MODEL 1
REMARK VINA RESULT:       7.7      0.000      0.000
REMARK  Name = 45784109
REMARK  9 active torsions:
REMARK  status: ('A' for Active; 'I' for Inactive)
REMARK    1  A    between atoms: N_3  and  C_14
REMARK    2  A    between atoms: C_9  and  C_13
REMARK    3  A    between atoms: C_10  and  C_14
REMARK    4  A    between atoms: C_12  and  C_17
REMARK    5  A    between atoms: C_13  and  C_18
REMARK    6  A    between atoms: C_13  and  C_19
REMARK    7  A    between atoms: C_16  and  C_22
REMARK    8  A    between atoms: C_17  and  C_25
REMARK    9  A    between atoms: C_27  and  C_29
REMARK                            x       y       z     vdW  Elec       q    Type
REMARK                         _______ _______ _______ _____ _____    ______ ____
ROOT
ATOM      9  C   UNL     1      -3.370  -0.982  25.039  0.00  0.00    +0.000 C 
ATOM     10  C   UNL     1      -3.392  -0.282  23.660  0.00  0.00    +0.029 C 
ATOM     11  C   UNL     1      -4.034  -0.096  26.102  0.00  0.00    +0.012 C 
ATOM     12  C   UNL     1      -5.484   0.300  25.749  0.00  0.00    +0.024 C 
ATOM     15  C   UNL     1      -4.720   0.362  23.357  0.00  0.00    -0.023 C 
ATOM     16  C   UNL     1      -5.672   0.619  24.273  0.00  0.00    -0.073 C 
ATOM     22  C   UNL     1      -6.999   1.187  23.849  0.00  0.00    +0.039 C 
ENDROOT
BRANCH   9  13
ATOM     13  C   UNL     1      -4.034  -2.364  24.975  0.00  0.00    -0.013 C 
ATOM     18  C   UNL     1      -3.134  -3.417  25.613  0.00  0.00    +0.007 C 
ATOM     19  C   UNL     1      -4.360  -2.732  23.531  0.00  0.00    +0.007 C 
ENDBRANCH   9  13
BRANCH  10  14
ATOM     14  C   UNL     1      -2.283   0.770  23.542  0.00  0.00    +0.092 C 
BRANCH  14   3
ATOM      3  N   UNL     1      -0.984   0.131  23.335  0.00  0.00    -0.299 NA
ATOM      4  N   UNL     1       1.858  -0.107  23.483  0.00  0.00    -0.312 N 
ATOM      7  N   UNL     1       3.729  -1.531  23.824  0.00  0.00    -0.237 NA
ATOM      8  N   UNL     1       5.405   0.592  23.085  0.00  0.00    -0.258 NA
ATOM     20  C   UNL     1      -0.125   0.973  22.494  0.00  0.00    +0.103 C 
ATOM     21  C   UNL     1      -0.326  -0.127  24.621  0.00  0.00    +0.103 C 
ATOM     23  C   UNL     1       1.217   0.289  22.222  0.00  0.00    +0.122 C 
ATOM     24  C   UNL     1       1.009  -0.848  24.421  0.00  0.00    +0.122 C 
ATOM     26  C   UNL     1       3.241  -0.324  23.477  0.00  0.00    +0.140 A 
ATOM     28  C   UNL     1       4.064   0.720  23.115  0.00  0.00    +0.154 A 
ATOM     30  C   UNL     1       5.070  -1.659  23.793  0.00  0.00    +0.132 A 
ATOM     31  C   UNL     1       5.894  -0.615  23.431  0.00  0.00    +0.130 A 
ENDBRANCH  14   3
ENDBRANCH  10  14
BRANCH  12  17
ATOM     17  C   UNL     1      -5.915   1.451  26.668  0.00  0.00    +0.105 C 
BRANCH  17  25
ATOM      2  O   UNL     1      -3.951   2.743  26.014  0.00  0.00    -0.420 OA
ATOM      5  N   UNL     1      -5.848   3.925  26.067  0.00  0.00    -0.112 NA
ATOM      6  N   UNL     1      -4.827   4.774  25.685  0.00  0.00    -0.107 NA
ATOM     25  C   UNL     1      -5.291   2.751  26.249  0.00  0.00    +0.218 A 
ATOM     27  C   UNL     1      -3.738   4.042  25.667  0.00  0.00    +0.251 A 
BRANCH  27  29
ATOM      1  F   UNL     1      -1.617   2.243  26.015  0.00  0.00    -0.205 F 
ATOM     29  C   UNL     1      -2.386   4.392  25.345  0.00  0.00    +0.074 A 
ATOM     32  C   UNL     1      -1.358   3.468  25.533  0.00  0.00    +0.136 A 
ATOM     33  C   UNL     1      -2.098   5.662  24.843  0.00  0.00    +0.016 A 
ATOM     34  C   UNL     1      -0.043   3.813  25.219  0.00  0.00    +0.039 A 
ATOM     35  C   UNL     1      -0.783   6.006  24.529  0.00  0.00    +0.001 A 
ATOM     36  C   UNL     1       0.244   5.082  24.717  0.00  0.00    +0.003 A 
ENDBRANCH  27  29
ENDBRANCH  17  25
ENDBRANCH  12  17
TORSDOF 6
ENDMDL
MODEL 2
REMARK VINA RESULT:       8.0      1.392      4.704
REMARK  Name = 45784109
REMARK  9 active torsions:
REMARK  status: ('A' for Active; 'I' for Inactive)
REMARK    1  A    between atoms: N_3  and  C_14
REMARK    2  A    between atoms: C_9  and  C_13
REMARK    3  A    between atoms: C_10  and  C_14
REMARK    4  A    between atoms: C_12  and  C_17
REMARK    5  A    between atoms: C_13  and  C_18
REMARK    6  A    between atoms: C_13  and  C_19
REMARK    7  A    between atoms: C_16  and  C_22
REMARK    8  A    between atoms: C_17  and  C_25
REMARK    9  A    between atoms: C_27  and  C_29
REMARK                            x       y       z     vdW  Elec       q    Type
REMARK                         _______ _______ _______ _____ _____    ______ ____
ROOT
ATOM      9  C   UNL     1      -1.882   3.953  23.641  0.00  0.00    +0.000 C 
ATOM     10  C   UNL     1      -1.169   2.865  24.478  0.00  0.00    +0.029 C 
ATOM     11  C   UNL     1      -3.376   4.006  23.989  0.00  0.00    +0.012 C 
ATOM     12  C   UNL     1      -3.647   4.252  25.489  0.00  0.00    +0.024 C 
ATOM     15  C   UNL     1      -1.590   2.879  25.926  0.00  0.00    -0.023 C 
ATOM     16  C   UNL     1      -2.685   3.502  26.398  0.00  0.00    -0.073 C 
ATOM     22  C   UNL     1      -2.965   3.525  27.876  0.00  0.00    +0.039 C 
ENDROOT
BRANCH   9  13
ATOM     13  C   UNL     1      -1.220   5.326  23.828  0.00  0.00    -0.013 C 
ATOM     18  C   UNL     1       0.115   5.179  24.550  0.00  0.00    +0.007 C 
ATOM     19  C   UNL     1      -2.149   6.265  24.590  0.00  0.00    +0.007 C 
ENDBRANCH   9  13
BRANCH  10  14
ATOM     14  C   UNL     1      -1.401   1.465  23.900  0.00  0.00    +0.092 C 
BRANCH  14   3
ATOM      3  N   UNL     1      -0.139   0.873  23.458  0.00  0.00    -0.299 NA
ATOM      4  N   UNL     1       2.613   0.138  23.673  0.00  0.00    -0.312 N 
ATOM      7  N   UNL     1       4.287  -1.490  23.236  0.00  0.00    -0.237 NA
ATOM      8  N   UNL     1       6.221   0.354  24.085  0.00  0.00    -0.258 NA
ATOM     20  C   UNL     1       0.910   1.896  23.379  0.00  0.00    +0.103 C 
ATOM     21  C   UNL     1       0.275  -0.198  24.373  0.00  0.00    +0.103 C 
ATOM     23  C   UNL     1       2.222   1.299  22.863  0.00  0.00    +0.122 C 
ATOM     24  C   UNL     1       1.567  -0.865  23.891  0.00  0.00    +0.122 C 
ATOM     26  C   UNL     1       3.957  -0.253  23.655  0.00  0.00    +0.140 A 
ATOM     28  C   UNL     1       4.907   0.653  24.073  0.00  0.00    +0.154 A 
ATOM     30  C   UNL     1       5.601  -1.790  23.249  0.00  0.00    +0.132 A 
ATOM     31  C   UNL     1       6.551  -0.883  23.667  0.00  0.00    +0.130 A 
ENDBRANCH  14   3
ENDBRANCH  10  14
BRANCH  12  17
ATOM     17  C   UNL     1      -5.118   3.928  25.780  0.00  0.00    +0.105 C 
BRANCH  17  25
ATOM      2  O   UNL     1      -4.470   1.624  25.305  0.00  0.00    -0.420 OA
ATOM      5  N   UNL     1      -6.634   2.061  24.942  0.00  0.00    -0.112 NA
ATOM      6  N   UNL     1      -6.409   0.732  24.635  0.00  0.00    -0.107 NA
ATOM     25  C   UNL     1      -5.475   2.542  25.328  0.00  0.00    +0.218 A 
ATOM     27  C   UNL     1      -5.134   0.521  24.862  0.00  0.00    +0.251 A 
BRANCH  27  29
ATOM      1  F   UNL     1      -2.909   0.008  26.488  0.00  0.00    -0.205 F 
ATOM     29  C   UNL     1      -4.347  -0.669  24.718  0.00  0.00    +0.074 A 
ATOM     32  C   UNL     1      -3.246  -0.886  25.547  0.00  0.00    +0.136 A 
ATOM     33  C   UNL     1      -4.682  -1.609  23.744  0.00  0.00    +0.016 A 
ATOM     34  C   UNL     1      -2.482  -2.044  25.403  0.00  0.00    +0.039 A 
ATOM     35  C   UNL     1      -3.918  -2.768  23.600  0.00  0.00    +0.001 A 
ATOM     36  C   UNL     1      -2.818  -2.985  24.430  0.00  0.00    +0.003 A 
ENDBRANCH  27  29
ENDBRANCH  17  25
ENDBRANCH  12  17
TORSDOF 6
ENDMDL
MODEL 3
REMARK VINA RESULT:       8.7      1.351      1.999
REMARK  Name = 45784109
REMARK  9 active torsions:
REMARK  status: ('A' for Active; 'I' for Inactive)
REMARK    1  A    between atoms: N_3  and  C_14
REMARK    2  A    between atoms: C_9  and  C_13
REMARK    3  A    between atoms: C_10  and  C_14
REMARK    4  A    between atoms: C_12  and  C_17
REMARK    5  A    between atoms: C_13  and  C_18
REMARK    6  A    between atoms: C_13  and  C_19
REMARK    7  A    between atoms: C_16  and  C_22
REMARK    8  A    between atoms: C_17  and  C_25
REMARK    9  A    between atoms: C_27  and  C_29
REMARK                            x       y       z     vdW  Elec       q    Type
REMARK                         _______ _______ _______ _____ _____    ______ ____
ROOT
ATOM      9  C   UNL     1      -1.696  -0.244  25.379  0.00  0.00    +0.000 C 
ATOM     10  C   UNL     1      -1.623  -0.575  23.870  0.00  0.00    +0.029 C 
ATOM     11  C   UNL     1      -3.068   0.344  25.734  0.00  0.00    +0.012 C 
ATOM     12  C   UNL     1      -4.247  -0.577  25.353  0.00  0.00    +0.024 C 
ATOM     15  C   UNL     1      -2.870  -1.254  23.364  0.00  0.00    -0.023 C 
ATOM     16  C   UNL     1      -4.047  -1.276  24.017  0.00  0.00    -0.073 C 
ATOM     22  C   UNL     1      -5.207  -2.058  23.462  0.00  0.00    +0.039 C 
ENDROOT
BRANCH   9  13
ATOM     13  C   UNL     1      -1.382  -1.477  26.238  0.00  0.00    -0.013 C 
ATOM     18  C   UNL     1      -0.943  -1.054  27.636  0.00  0.00    +0.007 C 
ATOM     19  C   UNL     1      -0.311  -2.333  25.569  0.00  0.00    +0.007 C 
ENDBRANCH   9  13
BRANCH  10  14
ATOM     14  C   UNL     1      -1.355   0.678  23.029  0.00  0.00    +0.092 C 
BRANCH  14   3
ATOM      3  N   UNL     1       0.075   0.824  22.761  0.00  0.00    -0.299 NA
ATOM      4  N   UNL     1       2.858   0.272  23.084  0.00  0.00    -0.312 N 
ATOM      7  N   UNL     1       4.977   0.002  22.043  0.00  0.00    -0.237 NA
ATOM      8  N   UNL     1       6.148  -0.118  24.588  0.00  0.00    -0.258 NA
ATOM     20  C   UNL     1       0.783   1.266  23.968  0.00  0.00    +0.103 C 
ATOM     21  C   UNL     1       0.641  -0.444  22.285  0.00  0.00    +0.103 C 
ATOM     23  C   UNL     1       2.273   1.477  23.685  0.00  0.00    +0.122 C 
ATOM     24  C   UNL     1       2.126  -0.290  21.945  0.00  0.00    +0.122 C 
ATOM     26  C   UNL     1       4.246   0.103  23.170  0.00  0.00    +0.140 A 
ATOM     28  C   UNL     1       4.820   0.044  24.421  0.00  0.00    +0.154 A 
ATOM     30  C   UNL     1       6.304  -0.159  22.210  0.00  0.00    +0.132 A 
ATOM     31  C   UNL     1       6.879  -0.218  23.461  0.00  0.00    +0.130 A 
ENDBRANCH  14   3
ENDBRANCH  10  14
BRANCH  12  17
ATOM     17  C   UNL     1      -5.545   0.239  25.411  0.00  0.00    +0.105 C 
BRANCH  17  25
ATOM      2  O   UNL     1      -4.010   2.121  25.169  0.00  0.00    -0.420 OA
ATOM      5  N   UNL     1      -6.058   2.693  25.862  0.00  0.00    -0.112 NA
ATOM      6  N   UNL     1      -5.301   3.845  25.770  0.00  0.00    -0.107 NA
ATOM     25  C   UNL     1      -5.264   1.712  25.503  0.00  0.00    +0.218 A 
ATOM     27  C   UNL     1      -4.113   3.465  25.362  0.00  0.00    +0.251 A 
BRANCH  27  29
ATOM      1  F   UNL     1      -1.580   2.635  26.229  0.00  0.00    -0.205 F 
ATOM     29  C   UNL     1      -2.931   4.230  25.093  0.00  0.00    +0.074 A 
ATOM     32  C   UNL     1      -1.689   3.783  25.542  0.00  0.00    +0.136 A 
ATOM     33  C   UNL     1      -3.025   5.425  24.380  0.00  0.00    +0.016 A 
ATOM     34  C   UNL     1      -0.541   4.531  25.279  0.00  0.00    +0.039 A 
ATOM     35  C   UNL     1      -1.878   6.173  24.117  0.00  0.00    +0.001 A 
ATOM     36  C   UNL     1      -0.635   5.725  24.567  0.00  0.00    +0.003 A 
ENDBRANCH  27  29
ENDBRANCH  17  25
ENDBRANCH  12  17
TORSDOF 6
ENDMDL
MODEL 4
REMARK VINA RESULT:      10.3      2.957      5.997
REMARK  Name = 45784109
REMARK  9 active torsions:
REMARK  status: ('A' for Active; 'I' for Inactive)
REMARK    1  A    between atoms: N_3  and  C_14
REMARK    2  A    between atoms: C_9  and  C_13
REMARK    3  A    between atoms: C_10  and  C_14
REMARK    4  A    between atoms: C_12  and  C_17
REMARK    5  A    between atoms: C_13  and  C_18
REMARK    6  A    between atoms: C_13  and  C_19
REMARK    7  A    between atoms: C_16  and  C_22
REMARK    8  A    between atoms: C_17  and  C_25
REMARK    9  A    between atoms: C_27  and  C_29
REMARK                            x       y       z     vdW  Elec       q    Type
REMARK                         _______ _______ _______ _____ _____    ______ ____
ROOT
ATOM      9  C   UNL     1      -3.799   0.047  23.217  0.00  0.00    +0.000 C 
ATOM     10  C   UNL     1      -3.467   1.238  24.147  0.00  0.00    +0.029 C 
ATOM     11  C   UNL     1      -2.643  -0.963  23.204  0.00  0.00    +0.012 C 
ATOM     12  C   UNL     1      -2.276  -1.493  24.606  0.00  0.00    +0.024 C 
ATOM     15  C   UNL     1      -2.853   0.801  25.452  0.00  0.00    -0.023 C 
ATOM     16  C   UNL     1      -2.328  -0.417  25.681  0.00  0.00    -0.073 C 
ATOM     22  C   UNL     1      -1.819  -0.778  27.050  0.00  0.00    +0.039 C 
ENDROOT
BRANCH   9  13
ATOM     13  C   UNL     1      -5.118  -0.626  23.620  0.00  0.00    -0.013 C 
ATOM     18  C   UNL     1      -5.738   0.089  24.816  0.00  0.00    +0.007 C 
ATOM     19  C   UNL     1      -4.889  -2.103  23.931  0.00  0.00    +0.007 C 
ENDBRANCH   9  13
BRANCH  10  14
ATOM     14  C   UNL     1      -2.534   2.244  23.464  0.00  0.00    +0.092 C 
BRANCH  14   3
ATOM      3  N   UNL     1      -1.507   2.710  24.395  0.00  0.00    -0.299 NA
ATOM      4  N   UNL     1       0.142   2.605  26.725  0.00  0.00    -0.312 N 
ATOM      7  N   UNL     1       2.281   3.000  27.679  0.00  0.00    -0.237 NA
ATOM      8  N   UNL     1       1.196   2.440  30.203  0.00  0.00    -0.258 NA
ATOM     20  C   UNL     1      -2.085   2.945  25.724  0.00  0.00    +0.103 C 
ATOM     21  C   UNL     1      -0.416   1.732  24.490  0.00  0.00    +0.103 C 
ATOM     23  C   UNL     1      -1.031   3.488  26.693  0.00  0.00    +0.122 C 
ATOM     24  C   UNL     1       0.693   2.234  25.419  0.00  0.00    +0.122 C 
ATOM     26  C   UNL     1       0.984   2.673  27.841  0.00  0.00    +0.140 A 
ATOM     28  C   UNL     1       0.451   2.397  29.081  0.00  0.00    +0.154 A 
ATOM     30  C   UNL     1       3.026   3.044  28.801  0.00  0.00    +0.132 A 
ATOM     31  C   UNL     1       2.492   2.768  30.041  0.00  0.00    +0.130 A 
ENDBRANCH  14   3
ENDBRANCH  10  14
BRANCH  12  17
ATOM     17  C   UNL     1      -0.912  -2.190  24.525  0.00  0.00    +0.105 C 
BRANCH  17  25
ATOM      2  O   UNL     1       1.371  -1.413  24.152  0.00  0.00    -0.420 OA
ATOM      5  N   UNL     1      -0.118  -0.615  22.686  0.00  0.00    -0.112 NA
ATOM      6  N   UNL     1       1.121  -0.099  22.360  0.00  0.00    -0.107 NA
ATOM     25  C   UNL     1       0.075  -1.376  23.738  0.00  0.00    +0.218 A 
ATOM     27  C   UNL     1       1.960  -0.590  23.241  0.00  0.00    +0.251 A 
BRANCH  27  29
ATOM      1  F   UNL     1       3.196   1.856  22.654  0.00  0.00    -0.205 F 
ATOM     29  C   UNL     1       3.373  -0.399  23.390  0.00  0.00    +0.074 A 
ATOM     32  C   UNL     1       3.950   0.834  23.086  0.00  0.00    +0.136 A 
ATOM     33  C   UNL     1       4.172  -1.452  23.838  0.00  0.00    +0.016 A 
ATOM     34  C   UNL     1       5.326   1.015  23.231  0.00  0.00    +0.039 A 
ATOM     35  C   UNL     1       5.547  -1.270  23.983  0.00  0.00    +0.001 A 
ATOM     36  C   UNL     1       6.124  -0.037  23.680  0.00  0.00    +0.003 A 
ENDBRANCH  27  29
ENDBRANCH  17  25
ENDBRANCH  12  17
TORSDOF 6
ENDMDL
MODEL 5
REMARK VINA RESULT:      10.7      1.807      5.246
REMARK  Name = 45784109
REMARK  9 active torsions:
REMARK  status: ('A' for Active; 'I' for Inactive)
REMARK    1  A    between atoms: N_3  and  C_14
REMARK    2  A    between atoms: C_9  and  C_13
REMARK    3  A    between atoms: C_10  and  C_14
REMARK    4  A    between atoms: C_12  and  C_17
REMARK    5  A    between atoms: C_13  and  C_18
REMARK    6  A    between atoms: C_13  and  C_19
REMARK    7  A    between atoms: C_16  and  C_22
REMARK    8  A    between atoms: C_17  and  C_25
REMARK    9  A    between atoms: C_27  and  C_29
REMARK                            x       y       z     vdW  Elec       q    Type
REMARK                         _______ _______ _______ _____ _____    ______ ____
ROOT
ATOM      9  C   UNL     1      -1.859   4.084  24.689  0.00  0.00    +0.000 C 
ATOM     10  C   UNL     1      -2.205   4.211  26.192  0.00  0.00    +0.029 C 
ATOM     11  C   UNL     1      -2.996   3.382  23.934  0.00  0.00    +0.012 C 
ATOM     12  C   UNL     1      -4.361   4.087  24.089  0.00  0.00    +0.024 C 
ATOM     15  C   UNL     1      -3.627   4.651  26.424  0.00  0.00    -0.023 C 
ATOM     16  C   UNL     1      -4.601   4.615  25.496  0.00  0.00    -0.073 C 
ATOM     22  C   UNL     1      -5.967   5.161  25.809  0.00  0.00    +0.039 C 
ENDROOT
BRANCH   9  13
ATOM     13  C   UNL     1      -1.544   5.453  24.070  0.00  0.00    -0.013 C 
ATOM     18  C   UNL     1      -0.230   5.399  23.299  0.00  0.00    +0.007 C 
ATOM     19  C   UNL     1      -1.494   6.527  25.153  0.00  0.00    +0.007 C 
ENDBRANCH   9  13
BRANCH  10  14
ATOM     14  C   UNL     1      -1.955   2.898  26.942  0.00  0.00    +0.092 C 
BRANCH  14   3
ATOM      3  N   UNL     1      -0.829   2.174  26.354  0.00  0.00    -0.299 NA
ATOM      4  N   UNL     1       0.857   1.240  24.246  0.00  0.00    -0.312 N 
ATOM      7  N   UNL     1       3.065   0.748  23.522  0.00  0.00    -0.237 NA
ATOM      8  N   UNL     1       1.988  -0.386  21.195  0.00  0.00    -0.258 NA
ATOM     20  C   UNL     1      -1.307   1.145  25.423  0.00  0.00    +0.103 C 
ATOM     21  C   UNL     1       0.071   3.100  25.657  0.00  0.00    +0.103 C 
ATOM     23  C   UNL     1      -0.139   0.342  24.845  0.00  0.00    +0.122 C 
ATOM     24  C   UNL     1       1.285   2.362  25.086  0.00  0.00    +0.122 C 
ATOM     26  C   UNL     1       1.738   0.705  23.298  0.00  0.00    +0.140 A 
ATOM     28  C   UNL     1       1.208   0.148  22.155  0.00  0.00    +0.154 A 
ATOM     30  C   UNL     1       3.846   0.213  22.562  0.00  0.00    +0.132 A 
ATOM     31  C   UNL     1       3.316  -0.344  21.419  0.00  0.00    +0.130 A 
ENDBRANCH  14   3
ENDBRANCH  10  14
BRANCH  12  17
ATOM     17  C   UNL     1      -5.462   3.130  23.615  0.00  0.00    +0.105 C 
BRANCH  17  25
ATOM      2  O   UNL     1      -4.609   0.875  23.992  0.00  0.00    -0.420 OA
ATOM      5  N   UNL     1      -6.164   1.523  25.463  0.00  0.00    -0.112 NA
ATOM      6  N   UNL     1      -5.774   0.239  25.792  0.00  0.00    -0.107 NA
ATOM     25  C   UNL     1      -5.459   1.854  24.407  0.00  0.00    +0.218 A 
ATOM     27  C   UNL     1      -4.865  -0.099  24.908  0.00  0.00    +0.251 A 
BRANCH  27  29
ATOM      1  F   UNL     1      -3.008  -0.939  26.833  0.00  0.00    -0.205 F 
ATOM     29  C   UNL     1      -4.115  -1.312  24.760  0.00  0.00    +0.074 A 
ATOM     32  C   UNL     1      -3.200  -1.694  25.741  0.00  0.00    +0.136 A 
ATOM     33  C   UNL     1      -4.301  -2.110  23.631  0.00  0.00    +0.016 A 
ATOM     34  C   UNL     1      -2.471  -2.874  25.592  0.00  0.00    +0.039 A 
ATOM     35  C   UNL     1      -3.572  -3.290  23.483  0.00  0.00    +0.001 A 
ATOM     36  C   UNL     1      -2.657  -3.672  24.464  0.00  0.00    +0.003 A 
ENDBRANCH  27  29
ENDBRANCH  17  25
ENDBRANCH  12  17
TORSDOF 6
ENDMDL
MODEL 6
REMARK VINA RESULT:      11.4      1.802      4.556
REMARK  Name = 45784109
REMARK  9 active torsions:
REMARK  status: ('A' for Active; 'I' for Inactive)
REMARK    1  A    between atoms: N_3  and  C_14
REMARK    2  A    between atoms: C_9  and  C_13
REMARK    3  A    between atoms: C_10  and  C_14
REMARK    4  A    between atoms: C_12  and  C_17
REMARK    5  A    between atoms: C_13  and  C_18
REMARK    6  A    between atoms: C_13  and  C_19
REMARK    7  A    between atoms: C_16  and  C_22
REMARK    8  A    between atoms: C_17  and  C_25
REMARK    9  A    between atoms: C_27  and  C_29
REMARK                            x       y       z     vdW  Elec       q    Type
REMARK                         _______ _______ _______ _____ _____    ______ ____
ROOT
ATOM      9  C   UNL     1      -3.199   2.378  22.052  0.00  0.00    +0.000 C 
ATOM     10  C   UNL     1      -1.862   1.994  22.729  0.00  0.00    +0.029 C 
ATOM     11  C   UNL     1      -4.257   2.723  23.109  0.00  0.00    +0.012 C 
ATOM     12  C   UNL     1      -3.822   3.853  24.066  0.00  0.00    +0.024 C 
ATOM     15  C   UNL     1      -1.499   2.918  23.863  0.00  0.00    -0.023 C 
ATOM     16  C   UNL     1      -2.356   3.764  24.464  0.00  0.00    -0.073 C 
ATOM     22  C   UNL     1      -1.867   4.707  25.530  0.00  0.00    +0.039 C 
ENDROOT
BRANCH   9  13
ATOM     13  C   UNL     1      -3.010   3.534  21.059  0.00  0.00    -0.013 C 
ATOM     18  C   UNL     1      -4.362   4.031  20.558  0.00  0.00    +0.007 C 
ATOM     19  C   UNL     1      -2.128   3.095  19.894  0.00  0.00    +0.007 C 
ENDBRANCH   9  13
BRANCH  10  14
ATOM     14  C   UNL     1      -1.884   0.550  23.244  0.00  0.00    +0.092 C 
BRANCH  14   3
ATOM      3  N   UNL     1      -0.566  -0.067  23.108  0.00  0.00    -0.299 NA
ATOM      4  N   UNL     1       2.266  -0.266  23.426  0.00  0.00    -0.312 N 
ATOM      7  N   UNL     1       4.135  -1.667  23.862  0.00  0.00    -0.237 NA
ATOM      8  N   UNL     1       5.820   0.490  23.253  0.00  0.00    -0.258 NA
ATOM     20  C   UNL     1       0.331   0.798  22.332  0.00  0.00    +0.103 C 
ATOM     21  C   UNL     1       0.017  -0.333  24.429  0.00  0.00    +0.103 C 
ATOM     23  C   UNL     1       1.697   0.137  22.134  0.00  0.00    +0.122 C 
ATOM     24  C   UNL     1       1.374  -1.032  24.301  0.00  0.00    +0.122 C 
ATOM     26  C   UNL     1       3.650  -0.462  23.502  0.00  0.00    +0.140 A 
ATOM     28  C   UNL     1       4.478   0.598  23.203  0.00  0.00    +0.154 A 
ATOM     30  C   UNL     1       5.477  -1.775  23.911  0.00  0.00    +0.132 A 
ATOM     31  C   UNL     1       6.305  -0.715  23.612  0.00  0.00    +0.130 A 
ENDBRANCH  14   3
ENDBRANCH  10  14
BRANCH  12  17
ATOM     17  C   UNL     1      -4.768   3.865  25.272  0.00  0.00    +0.105 C 
BRANCH  17  25
ATOM      2  O   UNL     1      -4.413   1.455  25.139  0.00  0.00    -0.420 OA
ATOM      5  N   UNL     1      -5.989   2.068  26.603  0.00  0.00    -0.112 NA
ATOM      6  N   UNL     1      -5.895   0.690  26.630  0.00  0.00    -0.107 NA
ATOM     25  C   UNL     1      -5.107   2.472  25.718  0.00  0.00    +0.218 A 
ATOM     27  C   UNL     1      -4.963   0.375  25.761  0.00  0.00    +0.251 A 
BRANCH  27  29
ATOM      1  F   UNL     1      -3.268  -1.107  27.430  0.00  0.00    -0.205 F 
ATOM     29  C   UNL     1      -4.445  -0.904  25.373  0.00  0.00    +0.074 A 
ATOM     32  C   UNL     1      -3.603  -1.610  26.232  0.00  0.00    +0.136 A 
ATOM     33  C   UNL     1      -4.783  -1.441  24.130  0.00  0.00    +0.016 A 
ATOM     34  C   UNL     1      -3.100  -2.853  25.850  0.00  0.00    +0.039 A 
ATOM     35  C   UNL     1      -4.280  -2.685  23.748  0.00  0.00    +0.001 A 
ATOM     36  C   UNL     1      -3.438  -3.391  24.608  0.00  0.00    +0.003 A 
ENDBRANCH  27  29
ENDBRANCH  17  25
ENDBRANCH  12  17
TORSDOF 6
ENDMDL
MODEL 7
REMARK VINA RESULT:      11.4      2.231      5.054
REMARK  Name = 45784109
REMARK  9 active torsions:
REMARK  status: ('A' for Active; 'I' for Inactive)
REMARK    1  A    between atoms: N_3  and  C_14
REMARK    2  A    between atoms: C_9  and  C_13
REMARK    3  A    between atoms: C_10  and  C_14
REMARK    4  A    between atoms: C_12  and  C_17
REMARK    5  A    between atoms: C_13  and  C_18
REMARK    6  A    between atoms: C_13  and  C_19
REMARK    7  A    between atoms: C_16  and  C_22
REMARK    8  A    between atoms: C_17  and  C_25
REMARK    9  A    between atoms: C_27  and  C_29
REMARK                            x       y       z     vdW  Elec       q    Type
REMARK                         _______ _______ _______ _____ _____    ______ ____
ROOT
ATOM      9  C   UNL     1      -3.272   3.282  24.201  0.00  0.00    +0.000 C 
ATOM     10  C   UNL     1      -3.535   4.254  25.375  0.00  0.00    +0.029 C 
ATOM     11  C   UNL     1      -3.928   1.922  24.473  0.00  0.00    +0.012 C 
ATOM     12  C   UNL     1      -5.447   2.015  24.732  0.00  0.00    +0.024 C 
ATOM     15  C   UNL     1      -4.962   4.207  25.859  0.00  0.00    -0.023 C 
ATOM     16  C   UNL     1      -5.834   3.223  25.573  0.00  0.00    -0.073 C 
ATOM     22  C   UNL     1      -7.262   3.318  26.036  0.00  0.00    +0.039 C 
ENDROOT
BRANCH   9  13
ATOM     13  C   UNL     1      -3.751   3.873  22.868  0.00  0.00    -0.013 C 
ATOM     18  C   UNL     1      -2.977   3.260  21.705  0.00  0.00    +0.007 C 
ATOM     19  C   UNL     1      -3.605   5.392  22.876  0.00  0.00    +0.007 C 
ENDBRANCH   9  13
BRANCH  10  14
ATOM     14  C   UNL     1      -2.594   3.983  26.555  0.00  0.00    +0.092 C 
BRANCH  14   3
ATOM      3  N   UNL     1      -1.355   3.359  26.094  0.00  0.00    -0.299 NA
ATOM      4  N   UNL     1       0.339   1.962  24.267  0.00  0.00    -0.312 N 
ATOM      7  N   UNL     1       2.512   1.726  23.337  0.00  0.00    -0.237 NA
ATOM      8  N   UNL     1       1.643  -0.604  22.042  0.00  0.00    -0.258 NA
ATOM     20  C   UNL     1      -1.563   1.929  25.834  0.00  0.00    +0.103 C 
ATOM     21  C   UNL     1      -0.865   4.022  24.879  0.00  0.00    +0.103 C 
ATOM     23  C   UNL     1      -0.259   1.252  25.405  0.00  0.00    +0.122 C 
ATOM     24  C   UNL     1       0.463   3.414  24.418  0.00  0.00    +0.122 C 
ATOM     26  C   UNL     1       1.253   1.266  23.466  0.00  0.00    +0.140 A 
ATOM     28  C   UNL     1       0.825   0.122  22.830  0.00  0.00    +0.154 A 
ATOM     30  C   UNL     1       3.331   1.000  22.550  0.00  0.00    +0.132 A 
ATOM     31  C   UNL     1       2.903  -0.144  21.913  0.00  0.00    +0.130 A 
ENDBRANCH  14   3
ENDBRANCH  10  14
BRANCH  12  17
ATOM     17  C   UNL     1      -5.923   0.689  25.337  0.00  0.00    +0.105 C 
BRANCH  17  25
ATOM      2  O   UNL     1      -3.810  -0.530  25.278  0.00  0.00    -0.420 OA
ATOM      5  N   UNL     1      -5.434  -1.452  24.047  0.00  0.00    -0.112 NA
ATOM      6  N   UNL     1      -4.305  -2.239  23.922  0.00  0.00    -0.107 NA
ATOM     25  C   UNL     1      -5.099  -0.466  24.846  0.00  0.00    +0.218 A 
ATOM     27  C   UNL     1      -3.382  -1.663  24.657  0.00  0.00    +0.251 A 
BRANCH  27  29
ATOM      1  F   UNL     1      -2.044  -0.932  27.009  0.00  0.00    -0.205 F 
ATOM     29  C   UNL     1      -2.019  -2.036  24.902  0.00  0.00    +0.074 A 
ATOM     32  C   UNL     1      -1.389  -1.652  26.086  0.00  0.00    +0.136 A 
ATOM     33  C   UNL     1      -1.323  -2.785  23.953  0.00  0.00    +0.016 A 
ATOM     34  C   UNL     1      -0.063  -2.016  26.320  0.00  0.00    +0.039 A 
ATOM     35  C   UNL     1       0.003  -3.149  24.187  0.00  0.00    +0.001 A 
ATOM     36  C   UNL     1       0.633  -2.765  25.371  0.00  0.00    +0.003 A 
ENDBRANCH  27  29
ENDBRANCH  17  25
ENDBRANCH  12  17
TORSDOF 6
ENDMDL
