MODEL 1
REMARK VINA RESULT:      -5.3      0.000      0.000
REMARK  Name = 75536813
REMARK  7 active torsions:
REMARK  status: ('A' for Active; 'I' for Inactive)
REMARK    1  A    between atoms: O_2  and  C_9
REMARK    2  A    between atoms: N_4  and  C_7
REMARK    3  A    between atoms: N_4  and  C_8
REMARK    4  A    between atoms: N_5  and  C_23
REMARK    5  A    between atoms: N_6  and  C_15
REMARK    6  A    between atoms: C_10  and  C_15
REMARK    7  A    between atoms: C_14  and  C_22
REMARK                            x       y       z     vdW  Elec       q    Type
REMARK                         _______ _______ _______ _____ _____    ______ ____
ROOT
ATOM      1  O   UNL     1       0.413   3.233  23.486  0.00  0.00    -0.371 OA
ATOM      7  C   UNL     1      -0.768   4.123  25.345  0.00  0.00    +0.111 C 
ATOM      9  C   UNL     1      -0.514   2.646  25.582  0.00  0.00    +0.164 C 
ATOM     10  C   UNL     1       0.646   2.391  24.628  0.00  0.00    +0.165 C 
ATOM     11  C   UNL     1      -0.565   4.226  23.842  0.00  0.00    +0.181 C 
ENDROOT
BRANCH   9   2
ATOM      2  O   UNL     1      -0.168   2.359  26.923  0.00  0.00    -0.388 OA
ATOM     26  H   UNL     1       0.793   2.472  27.020  0.00  0.00    +0.210 HD
ENDBRANCH   9   2
BRANCH   7   4
ATOM      4  N   UNL     1      -2.088   4.564  25.768  0.00  0.00    -0.306 NA
ATOM     24  H   UNL     1      -2.365   5.394  25.246  0.00  0.00    +0.123 HD
BRANCH   4   8
ATOM      5  N   UNL     1      -5.796   2.689  24.876  0.00  0.00    -0.305 NA
ATOM      8  C   UNL     1      -3.075   3.503  25.577  0.00  0.00    +0.056 C 
ATOM     12  C   UNL     1      -4.252   3.670  26.542  0.00  0.00    +0.034 C 
ATOM     13  C   UNL     1      -3.580   3.503  24.132  0.00  0.00    +0.034 C 
ATOM     16  C   UNL     1      -5.337   2.624  26.271  0.00  0.00    +0.085 C 
ATOM     17  C   UNL     1      -4.687   2.463  23.938  0.00  0.00    +0.085 C 
ATOM     23  C   UNL     1      -6.867   1.719  24.645  0.00  0.00    +0.104 C 
ENDBRANCH   4   8
ENDBRANCH   7   4
BRANCH  10  15
ATOM     15  C   UNL     1       0.752   0.943  24.185  0.00  0.00    +0.138 C 
BRANCH  15   6
ATOM      3  O   UNL     1      -2.010   0.559  23.378  0.00  0.00    -0.276 OA
ATOM      6  N   UNL     1      -0.238   0.127  24.826  0.00  0.00    -0.313 N 
ATOM     22  C   UNL     1      -1.544   0.002  24.368  0.00  0.00    +0.216 C 
ATOM     25  H   UNL     1       0.044  -0.384  25.658  0.00  0.00    +0.149 HD
BRANCH  22  14
ATOM     14  C   UNL     1      -2.363  -0.931  25.208  0.00  0.00    +0.075 C 
ATOM     18  C   UNL     1      -3.854  -0.624  25.058  0.00  0.00    +0.013 C 
ATOM     19  C   UNL     1      -2.173  -2.377  24.737  0.00  0.00    +0.013 C 
ATOM     20  C   UNL     1      -4.359  -1.656  24.060  0.00  0.00    +0.001 C 
ATOM     21  C   UNL     1      -3.571  -2.900  24.423  0.00  0.00    +0.001 C 
ENDBRANCH  22  14
ENDBRANCH  15   6
ENDBRANCH  10  15
TORSDOF 6
ENDMDL
MODEL 2
REMARK VINA RESULT:      -4.9      1.391      1.728
REMARK  Name = 75536813
REMARK  7 active torsions:
REMARK  status: ('A' for Active; 'I' for Inactive)
REMARK    1  A    between atoms: O_2  and  C_9
REMARK    2  A    between atoms: N_4  and  C_7
REMARK    3  A    between atoms: N_4  and  C_8
REMARK    4  A    between atoms: N_5  and  C_23
REMARK    5  A    between atoms: N_6  and  C_15
REMARK    6  A    between atoms: C_10  and  C_15
REMARK    7  A    between atoms: C_14  and  C_22
REMARK                            x       y       z     vdW  Elec       q    Type
REMARK                         _______ _______ _______ _____ _____    ______ ____
ROOT
ATOM      1  O   UNL     1      -0.511   0.695  22.702  0.00  0.00    -0.371 OA
ATOM      7  C   UNL     1      -0.451   2.769  23.860  0.00  0.00    +0.111 C 
ATOM      9  C   UNL     1      -0.057   1.657  24.815  0.00  0.00    +0.164 C 
ATOM     10  C   UNL     1       0.359   0.565  23.839  0.00  0.00    +0.165 C 
ATOM     11  C   UNL     1      -1.145   1.985  22.757  0.00  0.00    +0.181 C 
ENDROOT
BRANCH   9   2
ATOM      2  O   UNL     1       1.002   2.028  25.677  0.00  0.00    -0.388 OA
ATOM     26  H   UNL     1       0.854   2.944  25.965  0.00  0.00    +0.210 HD
ENDBRANCH   9   2
BRANCH   7   4
ATOM      4  N   UNL     1      -1.308   3.779  24.461  0.00  0.00    -0.306 NA
ATOM     24  H   UNL     1      -1.529   4.504  23.779  0.00  0.00    +0.123 HD
BRANCH   4   8
ATOM      5  N   UNL     1      -5.408   3.388  25.507  0.00  0.00    -0.305 NA
ATOM      8  C   UNL     1      -2.540   3.179  24.967  0.00  0.00    +0.056 C 
ATOM     12  C   UNL     1      -3.093   3.977  26.151  0.00  0.00    +0.034 C 
ATOM     13  C   UNL     1      -3.589   3.103  23.853  0.00  0.00    +0.034 C 
ATOM     16  C   UNL     1      -4.439   3.415  26.612  0.00  0.00    +0.085 C 
ATOM     17  C   UNL     1      -4.920   2.568  24.389  0.00  0.00    +0.085 C 
ATOM     23  C   UNL     1      -6.704   2.895  25.975  0.00  0.00    +0.104 C 
ENDBRANCH   4   8
ENDBRANCH   7   4
BRANCH  10  15
ATOM     15  C   UNL     1       0.243  -0.833  24.417  0.00  0.00    +0.138 C 
BRANCH  15   6
ATOM      3  O   UNL     1      -1.256  -0.759  26.902  0.00  0.00    -0.276 OA
ATOM      6  N   UNL     1      -1.127  -1.203  24.619  0.00  0.00    -0.313 N 
ATOM     22  C   UNL     1      -1.767  -1.136  25.851  0.00  0.00    +0.216 C 
ATOM     25  H   UNL     1      -1.649  -1.529  23.810  0.00  0.00    +0.149 HD
BRANCH  22  14
ATOM     14  C   UNL     1      -3.204  -1.557  25.778  0.00  0.00    +0.075 C 
ATOM     18  C   UNL     1      -4.066  -0.434  25.197  0.00  0.00    +0.013 C 
ATOM     19  C   UNL     1      -3.361  -2.752  24.831  0.00  0.00    +0.013 C 
ATOM     20  C   UNL     1      -4.254  -0.812  23.735  0.00  0.00    +0.001 C 
ATOM     21  C   UNL     1      -4.386  -2.322  23.786  0.00  0.00    +0.001 C 
ENDBRANCH  22  14
ENDBRANCH  15   6
ENDBRANCH  10  15
TORSDOF 6
ENDMDL
MODEL 3
REMARK VINA RESULT:      -4.5      1.526      4.698
REMARK  Name = 75536813
REMARK  7 active torsions:
REMARK  status: ('A' for Active; 'I' for Inactive)
REMARK    1  A    between atoms: O_2  and  C_9
REMARK    2  A    between atoms: N_4  and  C_7
REMARK    3  A    between atoms: N_4  and  C_8
REMARK    4  A    between atoms: N_5  and  C_23
REMARK    5  A    between atoms: N_6  and  C_15
REMARK    6  A    between atoms: C_10  and  C_15
REMARK    7  A    between atoms: C_14  and  C_22
REMARK                            x       y       z     vdW  Elec       q    Type
REMARK                         _______ _______ _______ _____ _____    ______ ____
ROOT
ATOM      1  O   UNL     1      -0.599   3.228  26.472  0.00  0.00    -0.371 OA
ATOM      7  C   UNL     1       0.392   1.977  24.713  0.00  0.00    +0.111 C 
ATOM      9  C   UNL     1      -0.320   3.181  24.124  0.00  0.00    +0.164 C 
ATOM     10  C   UNL     1      -0.408   4.093  25.341  0.00  0.00    +0.165 C 
ATOM     11  C   UNL     1      -0.257   1.886  26.085  0.00  0.00    +0.181 C 
ENDROOT
BRANCH   9   2
ATOM      2  O   UNL     1       0.404   3.780  23.066  0.00  0.00    -0.388 OA
ATOM     26  H   UNL     1      -0.110   4.536  22.735  0.00  0.00    +0.210 HD
ENDBRANCH   9   2
BRANCH   7   4
ATOM      4  N   UNL     1       0.230   0.762  23.930  0.00  0.00    -0.306 NA
ATOM     24  H   UNL     1       1.105   0.238  23.908  0.00  0.00    +0.123 HD
BRANCH   4   8
ATOM      5  N   UNL     1      -2.559  -2.427  24.264  0.00  0.00    -0.305 NA
ATOM      8  C   UNL     1      -0.836  -0.071  24.479  0.00  0.00    +0.056 C 
ATOM     12  C   UNL     1      -2.037  -0.122  23.530  0.00  0.00    +0.034 C 
ATOM     13  C   UNL     1      -0.319  -1.488  24.743  0.00  0.00    +0.034 C 
ATOM     16  C   UNL     1      -3.110  -1.081  24.052  0.00  0.00    +0.085 C 
ATOM     17  C   UNL     1      -1.448  -2.402  25.226  0.00  0.00    +0.085 C 
ATOM     23  C   UNL     1      -3.607  -3.343  24.715  0.00  0.00    +0.104 C 
ENDBRANCH   4   8
ENDBRANCH   7   4
BRANCH  10  15
ATOM     15  C   UNL     1      -1.549   5.092  25.260  0.00  0.00    +0.138 C 
BRANCH  15   6
ATOM      3  O   UNL     1      -3.751   4.147  26.899  0.00  0.00    -0.276 OA
ATOM      6  N   UNL     1      -2.760   4.466  24.815  0.00  0.00    -0.313 N 
ATOM     22  C   UNL     1      -3.766   4.043  25.675  0.00  0.00    +0.216 C 
ATOM     25  H   UNL     1      -2.878   4.333  23.815  0.00  0.00    +0.149 HD
BRANCH  22  14
ATOM     14  C   UNL     1      -4.933   3.445  24.948  0.00  0.00    +0.075 C 
ATOM     18  C   UNL     1      -4.510   2.178  24.202  0.00  0.00    +0.013 C 
ATOM     19  C   UNL     1      -6.018   3.017  25.942  0.00  0.00    +0.013 C 
ATOM     20  C   UNL     1      -4.950   1.036  25.106  0.00  0.00    +0.001 C 
ATOM     21  C   UNL     1      -6.265   1.535  25.675  0.00  0.00    +0.001 C 
ENDBRANCH  22  14
ENDBRANCH  15   6
ENDBRANCH  10  15
TORSDOF 6
ENDMDL
MODEL 4
REMARK VINA RESULT:      -4.2      1.994      5.328
REMARK  Name = 75536813
REMARK  7 active torsions:
REMARK  status: ('A' for Active; 'I' for Inactive)
REMARK    1  A    between atoms: O_2  and  C_9
REMARK    2  A    between atoms: N_4  and  C_7
REMARK    3  A    between atoms: N_4  and  C_8
REMARK    4  A    between atoms: N_5  and  C_23
REMARK    5  A    between atoms: N_6  and  C_15
REMARK    6  A    between atoms: C_10  and  C_15
REMARK    7  A    between atoms: C_14  and  C_22
REMARK                            x       y       z     vdW  Elec       q    Type
REMARK                         _______ _______ _______ _____ _____    ______ ____
ROOT
ATOM      1  O   UNL     1      -4.160   3.628  24.130  0.00  0.00    -0.371 OA
ATOM      7  C   UNL     1      -5.604   1.806  24.618  0.00  0.00    +0.111 C 
ATOM      9  C   UNL     1      -5.157   2.445  25.920  0.00  0.00    +0.164 C 
ATOM     10  C   UNL     1      -4.726   3.824  25.436  0.00  0.00    +0.165 C 
ATOM     11  C   UNL     1      -4.556   2.331  23.650  0.00  0.00    +0.181 C 
ENDROOT
BRANCH   9   2
ATOM      2  O   UNL     1      -6.196   2.521  26.876  0.00  0.00    -0.388 OA
ATOM     26  H   UNL     1      -6.086   3.344  27.381  0.00  0.00    +0.210 HD
ENDBRANCH   9   2
BRANCH   7   4
ATOM      4  N   UNL     1      -5.649   0.353  24.667  0.00  0.00    -0.306 NA
ATOM     24  H   UNL     1      -6.257  -0.005  23.931  0.00  0.00    +0.123 HD
BRANCH   4   8
ATOM      5  N   UNL     1      -2.413  -2.370  25.086  0.00  0.00    -0.305 NA
ATOM      8  C   UNL     1      -4.310  -0.213  24.526  0.00  0.00    +0.056 C 
ATOM     12  C   UNL     1      -3.636  -0.375  25.892  0.00  0.00    +0.034 C 
ATOM     13  C   UNL     1      -4.379  -1.568  23.814  0.00  0.00    +0.034 C 
ATOM     16  C   UNL     1      -2.278  -1.068  25.755  0.00  0.00    +0.085 C 
ATOM     17  C   UNL     1      -2.997  -2.222  23.746  0.00  0.00    +0.085 C 
ATOM     23  C   UNL     1      -1.116  -3.042  25.009  0.00  0.00    +0.104 C 
ENDBRANCH   4   8
ENDBRANCH   7   4
BRANCH  10  15
ATOM     15  C   UNL     1      -3.706   4.487  26.344  0.00  0.00    +0.138 C 
BRANCH  15   6
ATOM      3  O   UNL     1      -1.508   5.660  24.856  0.00  0.00    -0.276 OA
ATOM      6  N   UNL     1      -2.396   3.937  26.147  0.00  0.00    -0.313 N 
ATOM     22  C   UNL     1      -1.400   4.572  25.414  0.00  0.00    +0.216 C 
ATOM     25  H   UNL     1      -2.198   3.036  26.571  0.00  0.00    +0.149 HD
BRANCH  22  14
ATOM     14  C   UNL     1      -0.120   3.792  25.386  0.00  0.00    +0.075 C 
ATOM     18  C   UNL     1      -0.191   2.606  26.350  0.00  0.00    +0.013 C 
ATOM     19  C   UNL     1       0.111   3.199  23.992  0.00  0.00    +0.013 C 
ATOM     20  C   UNL     1      -0.519   1.412  25.465  0.00  0.00    +0.001 C 
ATOM     21  C   UNL     1       0.269   1.696  24.200  0.00  0.00    +0.001 C 
ENDBRANCH  22  14
ENDBRANCH  15   6
ENDBRANCH  10  15
TORSDOF 6
ENDMDL
MODEL 5
REMARK VINA RESULT:      -3.9      2.021      4.880
REMARK  Name = 75536813
REMARK  7 active torsions:
REMARK  status: ('A' for Active; 'I' for Inactive)
REMARK    1  A    between atoms: O_2  and  C_9
REMARK    2  A    between atoms: N_4  and  C_7
REMARK    3  A    between atoms: N_4  and  C_8
REMARK    4  A    between atoms: N_5  and  C_23
REMARK    5  A    between atoms: N_6  and  C_15
REMARK    6  A    between atoms: C_10  and  C_15
REMARK    7  A    between atoms: C_14  and  C_22
REMARK                            x       y       z     vdW  Elec       q    Type
REMARK                         _______ _______ _______ _____ _____    ______ ____
ROOT
ATOM      1  O   UNL     1      -1.726  -2.760  23.634  0.00  0.00    -0.371 OA
ATOM      7  C   UNL     1      -0.371  -1.237  24.855  0.00  0.00    +0.111 C 
ATOM      9  C   UNL     1      -1.828  -0.989  25.199  0.00  0.00    +0.164 C 
ATOM     10  C   UNL     1      -2.457  -2.315  24.789  0.00  0.00    +0.165 C 
ATOM     11  C   UNL     1      -0.498  -2.015  23.555  0.00  0.00    +0.181 C 
ENDROOT
BRANCH   9   2
ATOM      2  O   UNL     1      -2.026  -0.714  26.573  0.00  0.00    -0.388 OA
ATOM     26  H   UNL     1      -1.328  -1.164  27.077  0.00  0.00    +0.210 HD
ENDBRANCH   9   2
BRANCH   7   4
ATOM      4  N   UNL     1       0.410  -0.020  24.712  0.00  0.00    -0.306 NA
ATOM     24  H   UNL     1       0.883  -0.010  23.809  0.00  0.00    +0.123 HD
BRANCH   4   8
ATOM      5  N   UNL     1      -0.708   4.071  24.999  0.00  0.00    -0.305 NA
ATOM      8  C   UNL     1      -0.441   1.161  24.841  0.00  0.00    +0.056 C 
ATOM     12  C   UNL     1      -0.101   1.945  26.112  0.00  0.00    +0.034 C 
ATOM     13  C   UNL     1      -0.286   2.063  23.614  0.00  0.00    +0.034 C 
ATOM     16  C   UNL     1      -0.915   3.239  26.193  0.00  0.00    +0.085 C 
ATOM     17  C   UNL     1      -1.094   3.353  23.776  0.00  0.00    +0.085 C 
ATOM     23  C   UNL     1      -1.452   5.325  25.114  0.00  0.00    +0.104 C 
ENDBRANCH   4   8
ENDBRANCH   7   4
BRANCH  10  15
ATOM     15  C   UNL     1      -3.932  -2.200  24.450  0.00  0.00    +0.138 C 
BRANCH  15   6
ATOM      3  O   UNL     1      -4.765  -0.028  26.186  0.00  0.00    -0.276 OA
ATOM      6  N   UNL     1      -4.278  -0.863  24.067  0.00  0.00    -0.313 N 
ATOM     22  C   UNL     1      -4.669   0.118  24.971  0.00  0.00    +0.216 C 
ATOM     25  H   UNL     1      -4.229  -0.631  23.079  0.00  0.00    +0.149 HD
BRANCH  22  14
ATOM     14  C   UNL     1      -4.949   1.433  24.309  0.00  0.00    +0.075 C 
ATOM     18  C   UNL     1      -6.278   2.011  24.799  0.00  0.00    +0.013 C 
ATOM     19  C   UNL     1      -3.872   2.458  24.681  0.00  0.00    +0.013 C 
ATOM     20  C   UNL     1      -5.885   3.035  25.854  0.00  0.00    +0.001 C 
ATOM     21  C   UNL     1      -4.616   3.644  25.285  0.00  0.00    +0.001 C 
ENDBRANCH  22  14
ENDBRANCH  15   6
ENDBRANCH  10  15
TORSDOF 6
ENDMDL
MODEL 6
REMARK VINA RESULT:      -3.7      2.763      6.852
REMARK  Name = 75536813
REMARK  7 active torsions:
REMARK  status: ('A' for Active; 'I' for Inactive)
REMARK    1  A    between atoms: O_2  and  C_9
REMARK    2  A    between atoms: N_4  and  C_7
REMARK    3  A    between atoms: N_4  and  C_8
REMARK    4  A    between atoms: N_5  and  C_23
REMARK    5  A    between atoms: N_6  and  C_15
REMARK    6  A    between atoms: C_10  and  C_15
REMARK    7  A    between atoms: C_14  and  C_22
REMARK                            x       y       z     vdW  Elec       q    Type
REMARK                         _______ _______ _______ _____ _____    ______ ____
ROOT
ATOM      1  O   UNL     1      -1.514  -1.988  24.530  0.00  0.00    -0.371 OA
ATOM      7  C   UNL     1       0.324  -0.655  23.828  0.00  0.00    +0.111 C 
ATOM      9  C   UNL     1      -0.645   0.211  24.612  0.00  0.00    +0.164 C 
ATOM     10  C   UNL     1      -1.414  -0.845  25.395  0.00  0.00    +0.165 C 
ATOM     11  C   UNL     1      -0.558  -1.839  23.465  0.00  0.00    +0.181 C 
ENDROOT
BRANCH   9   2
ATOM      2  O   UNL     1       0.011   1.128  25.466  0.00  0.00    -0.388 OA
ATOM     26  H   UNL     1       0.945   0.866  25.535  0.00  0.00    +0.210 HD
ENDBRANCH   9   2
BRANCH   7   4
ATOM      4  N   UNL     1       0.888   0.008  22.664  0.00  0.00    -0.306 NA
ATOM     24  H   UNL     1       0.688   1.007  22.696  0.00  0.00    +0.123 HD
BRANCH   4   8
ATOM      5  N   UNL     1       4.964  -0.095  23.863  0.00  0.00    -0.305 NA
ATOM      8  C   UNL     1       2.331  -0.209  22.591  0.00  0.00    +0.056 C 
ATOM     12  C   UNL     1       3.093   1.106  22.776  0.00  0.00    +0.034 C 
ATOM     13  C   UNL     1       2.769  -1.220  23.655  0.00  0.00    +0.034 C 
ATOM     16  C   UNL     1       4.605   0.865  22.810  0.00  0.00    +0.085 C 
ATOM     17  C   UNL     1       4.291  -1.386  23.660  0.00  0.00    +0.085 C 
ATOM     23  C   UNL     1       6.415  -0.276  23.916  0.00  0.00    +0.104 C 
ENDBRANCH   4   8
ENDBRANCH   7   4
BRANCH  10  15
ATOM     15  C   UNL     1      -2.803  -0.392  25.809  0.00  0.00    +0.138 C 
BRANCH  15   6
ATOM      3  O   UNL     1      -5.283   0.712  24.780  0.00  0.00    -0.276 OA
ATOM      6  N   UNL     1      -3.053   0.961  25.405  0.00  0.00    -0.313 N 
ATOM     22  C   UNL     1      -4.278   1.404  24.920  0.00  0.00    +0.216 C 
ATOM     25  H   UNL     1      -2.285   1.623  25.482  0.00  0.00    +0.149 HD
BRANCH  22  14
ATOM     14  C   UNL     1      -4.275   2.867  24.594  0.00  0.00    +0.075 C 
ATOM     18  C   UNL     1      -4.502   3.701  25.856  0.00  0.00    +0.013 C 
ATOM     19  C   UNL     1      -2.907   3.286  24.043  0.00  0.00    +0.013 C 
ATOM     20  C   UNL     1      -3.111   4.157  26.271  0.00  0.00    +0.001 C 
ATOM     21  C   UNL     1      -2.426   4.420  24.943  0.00  0.00    +0.001 C 
ENDBRANCH  22  14
ENDBRANCH  15   6
ENDBRANCH  10  15
TORSDOF 6
ENDMDL
MODEL 7
REMARK VINA RESULT:      -2.2      2.696      6.635
REMARK  Name = 75536813
REMARK  7 active torsions:
REMARK  status: ('A' for Active; 'I' for Inactive)
REMARK    1  A    between atoms: O_2  and  C_9
REMARK    2  A    between atoms: N_4  and  C_7
REMARK    3  A    between atoms: N_4  and  C_8
REMARK    4  A    between atoms: N_5  and  C_23
REMARK    5  A    between atoms: N_6  and  C_15
REMARK    6  A    between atoms: C_10  and  C_15
REMARK    7  A    between atoms: C_14  and  C_22
REMARK                            x       y       z     vdW  Elec       q    Type
REMARK                         _______ _______ _______ _____ _____    ______ ____
ROOT
ATOM      1  O   UNL     1      -1.438   0.499  25.344  0.00  0.00    -0.371 OA
ATOM      7  C   UNL     1       0.461   0.100  23.974  0.00  0.00    +0.111 C 
ATOM      9  C   UNL     1       0.409   1.574  24.330  0.00  0.00    +0.164 C 
ATOM     10  C   UNL     1      -0.479   1.545  25.568  0.00  0.00    +0.165 C 
ATOM     11  C   UNL     1      -0.967  -0.331  24.268  0.00  0.00    +0.181 C 
ENDROOT
BRANCH   9   2
ATOM      2  O   UNL     1       1.686   2.114  24.609  0.00  0.00    -0.388 OA
ATOM     26  H   UNL     1       2.087   2.397  23.770  0.00  0.00    +0.210 HD
ENDBRANCH   9   2
BRANCH   7   4
ATOM      4  N   UNL     1       0.857  -0.154  22.598  0.00  0.00    -0.306 NA
ATOM     24  H   UNL     1       0.604   0.638  22.008  0.00  0.00    +0.123 HD
BRANCH   4   8
ATOM      5  N   UNL     1       4.976  -0.129  23.644  0.00  0.00    -0.305 NA
ATOM      8  C   UNL     1       2.293  -0.404  22.508  0.00  0.00    +0.056 C 
ATOM     12  C   UNL     1       3.076   0.911  22.446  0.00  0.00    +0.034 C 
ATOM     13  C   UNL     1       2.763  -1.236  23.705  0.00  0.00    +0.034 C 
ATOM     16  C   UNL     1       4.585   0.653  22.462  0.00  0.00    +0.085 C 
ATOM     17  C   UNL     1       4.282  -1.423  23.680  0.00  0.00    +0.085 C 
ATOM     23  C   UNL     1       6.425  -0.323  23.672  0.00  0.00    +0.104 C 
ENDBRANCH   4   8
ENDBRANCH   7   4
BRANCH  10  15
ATOM     15  C   UNL     1      -1.200   2.857  25.820  0.00  0.00    +0.138 C 
BRANCH  15   6
ATOM      3  O   UNL     1      -3.371   4.653  26.518  0.00  0.00    -0.276 OA
ATOM      6  N   UNL     1      -2.557   2.805  25.358  0.00  0.00    -0.313 N 
ATOM     22  C   UNL     1      -3.536   3.711  25.748  0.00  0.00    +0.216 C 
ATOM     25  H   UNL     1      -2.803   2.061  24.711  0.00  0.00    +0.149 HD
BRANCH  22  14
ATOM     14  C   UNL     1      -4.860   3.443  25.099  0.00  0.00    +0.075 C 
ATOM     18  C   UNL     1      -4.715   2.399  23.990  0.00  0.00    +0.013 C 
ATOM     19  C   UNL     1      -5.842   2.854  26.117  0.00  0.00    +0.013 C 
ATOM     20  C   UNL     1      -5.169   1.095  24.629  0.00  0.00    +0.001 C 
ATOM     21  C   UNL     1      -6.316   1.532  25.522  0.00  0.00    +0.001 C 
ENDBRANCH  22  14
ENDBRANCH  15   6
ENDBRANCH  10  15
TORSDOF 6
ENDMDL
MODEL 8
REMARK VINA RESULT:      -1.6      2.276      4.103
REMARK  Name = 75536813
REMARK  7 active torsions:
REMARK  status: ('A' for Active; 'I' for Inactive)
REMARK    1  A    between atoms: O_2  and  C_9
REMARK    2  A    between atoms: N_4  and  C_7
REMARK    3  A    between atoms: N_4  and  C_8
REMARK    4  A    between atoms: N_5  and  C_23
REMARK    5  A    between atoms: N_6  and  C_15
REMARK    6  A    between atoms: C_10  and  C_15
REMARK    7  A    between atoms: C_14  and  C_22
REMARK                            x       y       z     vdW  Elec       q    Type
REMARK                         _______ _______ _______ _____ _____    ______ ____
ROOT
ATOM      1  O   UNL     1       0.390   3.296  23.451  0.00  0.00    -0.371 OA
ATOM      7  C   UNL     1      -0.832   4.105  25.321  0.00  0.00    +0.111 C 
ATOM      9  C   UNL     1      -0.665   2.602  25.451  0.00  0.00    +0.164 C 
ATOM     10  C   UNL     1       0.525   2.358  24.532  0.00  0.00    +0.165 C 
ATOM     11  C   UNL     1      -0.552   4.310  23.841  0.00  0.00    +0.181 C 
ENDROOT
BRANCH   9   2
ATOM      2  O   UNL     1      -0.398   2.195  26.779  0.00  0.00    -0.388 OA
ATOM     26  H   UNL     1      -1.234   2.205  27.275  0.00  0.00    +0.210 HD
ENDBRANCH   9   2
BRANCH   7   4
ATOM      4  N   UNL     1      -2.146   4.583  25.719  0.00  0.00    -0.306 NA
ATOM     24  H   UNL     1      -2.441   5.347  25.113  0.00  0.00    +0.123 HD
BRANCH   4   8
ATOM      5  N   UNL     1      -5.729   2.498  24.784  0.00  0.00    -0.305 NA
ATOM      8  C   UNL     1      -3.128   3.502  25.671  0.00  0.00    +0.056 C 
ATOM     12  C   UNL     1      -4.438   3.921  26.344  0.00  0.00    +0.034 C 
ATOM     13  C   UNL     1      -3.394   3.092  24.220  0.00  0.00    +0.034 C 
ATOM     16  C   UNL     1      -5.503   2.831  26.198  0.00  0.00    +0.085 C 
ATOM     17  C   UNL     1      -4.493   2.029  24.143  0.00  0.00    +0.085 C 
ATOM     23  C   UNL     1      -6.785   1.492  24.659  0.00  0.00    +0.104 C 
ENDBRANCH   4   8
ENDBRANCH   7   4
BRANCH  10  15
ATOM     15  C   UNL     1       0.578   0.944  23.981  0.00  0.00    +0.138 C 
BRANCH  15   6
ATOM      3  O   UNL     1       1.476  -0.419  21.581  0.00  0.00    -0.276 OA
ATOM      6  N   UNL     1       1.919   0.565  23.645  0.00  0.00    -0.313 N 
ATOM     22  C   UNL     1       2.260  -0.089  22.466  0.00  0.00    +0.216 C 
ATOM     25  H   UNL     1       2.652   0.793  24.311  0.00  0.00    +0.149 HD
BRANCH  22  14
ATOM     14  C   UNL     1       3.732  -0.346  22.355  0.00  0.00    +0.075 C 
ATOM     18  C   UNL     1       4.522   0.947  22.569  0.00  0.00    +0.013 C 
ATOM     19  C   UNL     1       4.188  -1.315  23.452  0.00  0.00    +0.013 C 
ATOM     20  C   UNL     1       4.985   0.878  24.017  0.00  0.00    +0.001 C 
ATOM     21  C   UNL     1       5.300  -0.594  24.207  0.00  0.00    +0.001 C 
ENDBRANCH  22  14
ENDBRANCH  15   6
ENDBRANCH  10  15
TORSDOF 6
ENDMDL
