MODEL 1
REMARK VINA RESULT:       8.4      0.000      0.000
REMARK  Name = 7134325
REMARK  12 active torsions:
REMARK  status: ('A' for Active; 'I' for Inactive)
REMARK    1  A    between atoms: N_8  and  C_14
REMARK    2  A    between atoms: N_9  and  C_21
REMARK    3  A    between atoms: C_15  and  C_19
REMARK    4  A    between atoms: C_20  and  C_25
REMARK    5  A    between atoms: C_21  and  C_22
REMARK    6  A    between atoms: C_21  and  C_26
REMARK    7  A    between atoms: C_22  and  C_23
REMARK    8  A    between atoms: C_23  and  C_27
REMARK    9  A    between atoms: C_23  and  C_28
REMARK   10  A    between atoms: C_24  and  C_29
REMARK   11  A    between atoms: C_31  and  C_33
REMARK   12  A    between atoms: C_32  and  C_34
REMARK                            x       y       z     vdW  Elec       q    Type
REMARK                         _______ _______ _______ _____ _____    ______ ____
ROOT
ATOM      4  O   UNL     1      -3.821   3.551  22.280  0.00  0.00    -0.268 OA
ATOM      7  N   UNL     1      -2.556   2.324  23.792  0.00  0.00    -0.285 N 
ATOM     14  C   UNL     1       0.048   1.053  24.195  0.00  0.00    +0.077 C 
ATOM     15  C   UNL     1      -2.100   1.306  22.838  0.00  0.00    +0.164 C 
ATOM     16  C   UNL     1      -0.582   1.128  22.802  0.00  0.00    +0.054 C 
ATOM     17  C   UNL     1      -0.400   2.245  25.034  0.00  0.00    +0.041 C 
ATOM     18  C   UNL     1      -1.921   2.320  25.121  0.00  0.00    +0.111 C 
ATOM     20  C   UNL     1      -3.646   3.151  23.433  0.00  0.00    +0.266 C 
ENDROOT
BRANCH  20  25
ATOM      1  S   UNL     1      -6.010   4.852  26.103  0.00  0.00    -0.080 S 
ATOM     10  N   UNL     1      -5.242   2.553  25.207  0.00  0.00    -0.240 NA
ATOM     25  C   UNL     1      -4.583   3.527  24.486  0.00  0.00    +0.133 A 
ATOM     30  C   UNL     1      -4.866   4.831  24.825  0.00  0.00    +0.080 A 
ATOM     32  C   UNL     1      -6.023   3.137  26.088  0.00  0.00    +0.076 A 
ATOM     34  C   UNL     1      -6.890   2.416  27.045  0.00  0.00    +0.073 C 
ENDBRANCH  20  25
BRANCH  15  19
ATOM      3  O   UNL     1      -3.309  -0.693  22.343  0.00  0.00    -0.274 OA
ATOM      9  N   UNL     1      -2.848  -0.176  24.565  0.00  0.00    -0.302 N 
ATOM     19  C   UNL     1      -2.813   0.035  23.198  0.00  0.00    +0.234 C 
ATOM     36  H   UNL     1      -2.251   0.395  25.156  0.00  0.00    +0.150 HD
BRANCH   9  21
ATOM     21  C   UNL     1      -3.495  -1.317  25.172  0.00  0.00    +0.159 C 
BRANCH  21  26
ATOM      6  O   UNL     1      -4.816  -2.772  23.741  0.00  0.00    -0.274 OA
ATOM     11  N   UNL     1      -5.617  -0.671  24.208  0.00  0.00    -0.328 N 
ATOM     26  C   UNL     1      -4.681  -1.680  24.289  0.00  0.00    +0.231 C 
ATOM     37  H   UNL     1      -5.503   0.219  24.684  0.00  0.00    +0.145 HD
ATOM     38  H   UNL     1      -6.464  -0.788  23.662  0.00  0.00    +0.145 HD
ENDBRANCH  21  26
BRANCH  21  22
ATOM     22  C   UNL     1      -2.549  -2.517  25.311  0.00  0.00    +0.034 C 
BRANCH  22  23
ATOM     23  C   UNL     1      -1.240  -2.406  24.502  0.00  0.00    -0.015 C 
ATOM     27  C   UNL     1      -1.205  -3.494  23.425  0.00  0.00    +0.007 C 
ATOM     28  C   UNL     1       0.002  -2.518  25.387  0.00  0.00    +0.007 C 
ENDBRANCH  22  23
ENDBRANCH  21  22
ENDBRANCH   9  21
ENDBRANCH  15  19
BRANCH  14   8
ATOM      5  O   UNL     1       1.537  -0.647  22.506  0.00  0.00    -0.270 OA
ATOM      8  N   UNL     1       1.489   1.005  24.102  0.00  0.00    -0.308 N 
ATOM     24  C   UNL     1       2.150   0.132  23.238  0.00  0.00    +0.254 C 
ATOM     35  H   UNL     1       2.031   1.669  24.647  0.00  0.00    +0.149 HD
BRANCH  24  29
ATOM      2  S   UNL     1       4.365   1.660  22.742  0.00  0.00    +0.041 S 
ATOM     12  N   UNL     1       5.855  -0.230  23.439  0.00  0.00    -0.146 NA
ATOM     13  N   UNL     1       5.891   1.017  22.998  0.00  0.00    -0.110 NA
ATOM     29  C   UNL     1       3.616   0.225  23.233  0.00  0.00    +0.117 A 
ATOM     31  C   UNL     1       4.553  -0.684  23.574  0.00  0.00    +0.081 A 
ATOM     33  C   UNL     1       4.343  -2.064  24.057  0.00  0.00    +0.069 C 
ENDBRANCH  24  29
ENDBRANCH  14   8
TORSDOF 8
ENDMDL
MODEL 2
REMARK VINA RESULT:       8.5      1.187      2.021
REMARK  Name = 7134325
REMARK  12 active torsions:
REMARK  status: ('A' for Active; 'I' for Inactive)
REMARK    1  A    between atoms: N_8  and  C_14
REMARK    2  A    between atoms: N_9  and  C_21
REMARK    3  A    between atoms: C_15  and  C_19
REMARK    4  A    between atoms: C_20  and  C_25
REMARK    5  A    between atoms: C_21  and  C_22
REMARK    6  A    between atoms: C_21  and  C_26
REMARK    7  A    between atoms: C_22  and  C_23
REMARK    8  A    between atoms: C_23  and  C_27
REMARK    9  A    between atoms: C_23  and  C_28
REMARK   10  A    between atoms: C_24  and  C_29
REMARK   11  A    between atoms: C_31  and  C_33
REMARK   12  A    between atoms: C_32  and  C_34
REMARK                            x       y       z     vdW  Elec       q    Type
REMARK                         _______ _______ _______ _____ _____    ______ ____
ROOT
ATOM      4  O   UNL     1      -3.749   3.402  22.104  0.00  0.00    -0.268 OA
ATOM      7  N   UNL     1      -2.429   2.266  23.640  0.00  0.00    -0.285 N 
ATOM     14  C   UNL     1       0.222   1.103  24.059  0.00  0.00    +0.077 C 
ATOM     15  C   UNL     1      -1.942   1.239  22.711  0.00  0.00    +0.164 C 
ATOM     16  C   UNL     1      -0.420   1.115  22.669  0.00  0.00    +0.054 C 
ATOM     17  C   UNL     1      -0.264   2.301  24.867  0.00  0.00    +0.041 C 
ATOM     18  C   UNL     1      -1.786   2.323  24.964  0.00  0.00    +0.111 C 
ATOM     20  C   UNL     1      -3.551   3.042  23.267  0.00  0.00    +0.266 C 
ENDROOT
BRANCH  20  25
ATOM      1  S   UNL     1      -5.930   4.730  25.933  0.00  0.00    -0.080 S 
ATOM     10  N   UNL     1      -5.162   2.435  25.025  0.00  0.00    -0.240 NA
ATOM     25  C   UNL     1      -4.495   3.413  24.316  0.00  0.00    +0.133 A 
ATOM     30  C   UNL     1      -4.777   4.715  24.663  0.00  0.00    +0.080 A 
ATOM     32  C   UNL     1      -5.947   3.014  25.905  0.00  0.00    +0.076 A 
ATOM     34  C   UNL     1      -6.823   2.289  26.850  0.00  0.00    +0.073 C 
ENDBRANCH  20  25
BRANCH  15  19
ATOM      3  O   UNL     1      -3.807  -0.235  22.944  0.00  0.00    -0.274 OA
ATOM      9  N   UNL     1      -1.717  -0.937  23.690  0.00  0.00    -0.302 N 
ATOM     19  C   UNL     1      -2.605  -0.047  23.112  0.00  0.00    +0.234 C 
ATOM     36  H   UNL     1      -0.722  -0.744  23.610  0.00  0.00    +0.150 HD
BRANCH   9  21
ATOM     21  C   UNL     1      -2.109  -2.237  24.182  0.00  0.00    +0.159 C 
BRANCH  21  26
ATOM      6  O   UNL     1      -0.803  -3.950  25.309  0.00  0.00    -0.274 OA
ATOM     11  N   UNL     1      -0.062  -1.777  25.385  0.00  0.00    -0.328 N 
ATOM     26  C   UNL     1      -0.953  -2.765  25.022  0.00  0.00    +0.231 C 
ATOM     37  H   UNL     1      -0.187  -0.805  25.122  0.00  0.00    +0.145 HD
ATOM     38  H   UNL     1       0.762  -1.997  25.936  0.00  0.00    +0.145 HD
ENDBRANCH  21  26
BRANCH  21  22
ATOM     22  C   UNL     1      -3.392  -2.179  25.021  0.00  0.00    +0.034 C 
BRANCH  22  23
ATOM     23  C   UNL     1      -3.397  -1.099  26.122  0.00  0.00    -0.015 C 
ATOM     27  C   UNL     1      -3.302  -1.765  27.498  0.00  0.00    +0.007 C 
ATOM     28  C   UNL     1      -4.643  -0.214  26.064  0.00  0.00    +0.007 C 
ENDBRANCH  22  23
ENDBRANCH  21  22
ENDBRANCH   9  21
ENDBRANCH  15  19
BRANCH  14   8
ATOM      5  O   UNL     1       1.792  -0.889  22.824  0.00  0.00    -0.270 OA
ATOM      8  N   UNL     1       1.663   1.105  23.956  0.00  0.00    -0.308 N 
ATOM     24  C   UNL     1       2.366   0.078  23.327  0.00  0.00    +0.254 C 
ATOM     35  H   UNL     1       2.172   1.912  24.308  0.00  0.00    +0.149 HD
BRANCH  24  29
ATOM      2  S   UNL     1       4.489   1.712  22.770  0.00  0.00    +0.041 S 
ATOM     12  N   UNL     1       6.089  -0.110  23.401  0.00  0.00    -0.146 NA
ATOM     13  N   UNL     1       6.051   1.140  22.969  0.00  0.00    -0.110 NA
ATOM     29  C   UNL     1       3.826   0.241  23.274  0.00  0.00    +0.117 A 
ATOM     31  C   UNL     1       4.815  -0.626  23.576  0.00  0.00    +0.081 A 
ATOM     33  C   UNL     1       4.686  -2.017  24.055  0.00  0.00    +0.069 C 
ENDBRANCH  24  29
ENDBRANCH  14   8
TORSDOF 8
ENDMDL
MODEL 3
REMARK VINA RESULT:       8.7      0.719      1.076
REMARK  Name = 7134325
REMARK  12 active torsions:
REMARK  status: ('A' for Active; 'I' for Inactive)
REMARK    1  A    between atoms: N_8  and  C_14
REMARK    2  A    between atoms: N_9  and  C_21
REMARK    3  A    between atoms: C_15  and  C_19
REMARK    4  A    between atoms: C_20  and  C_25
REMARK    5  A    between atoms: C_21  and  C_22
REMARK    6  A    between atoms: C_21  and  C_26
REMARK    7  A    between atoms: C_22  and  C_23
REMARK    8  A    between atoms: C_23  and  C_27
REMARK    9  A    between atoms: C_23  and  C_28
REMARK   10  A    between atoms: C_24  and  C_29
REMARK   11  A    between atoms: C_31  and  C_33
REMARK   12  A    between atoms: C_32  and  C_34
REMARK                            x       y       z     vdW  Elec       q    Type
REMARK                         _______ _______ _______ _____ _____    ______ ____
ROOT
ATOM      4  O   UNL     1      -3.717   3.558  22.268  0.00  0.00    -0.268 OA
ATOM      7  N   UNL     1      -2.495   2.293  23.783  0.00  0.00    -0.285 N 
ATOM     14  C   UNL     1       0.073   0.953  24.201  0.00  0.00    +0.077 C 
ATOM     15  C   UNL     1      -2.058   1.267  22.828  0.00  0.00    +0.164 C 
ATOM     16  C   UNL     1      -0.545   1.050  22.803  0.00  0.00    +0.054 C 
ATOM     17  C   UNL     1      -0.352   2.153  25.042  0.00  0.00    +0.041 C 
ATOM     18  C   UNL     1      -1.870   2.266  25.118  0.00  0.00    +0.111 C 
ATOM     20  C   UNL     1      -3.560   3.149  23.421  0.00  0.00    +0.266 C 
ENDROOT
BRANCH  20  25
ATOM      1  S   UNL     1      -5.908   4.898  26.074  0.00  0.00    -0.080 S 
ATOM     10  N   UNL     1      -5.173   2.583  25.191  0.00  0.00    -0.240 NA
ATOM     25  C   UNL     1      -4.496   3.544  24.468  0.00  0.00    +0.133 A 
ATOM     30  C   UNL     1      -4.760   4.854  24.800  0.00  0.00    +0.080 A 
ATOM     32  C   UNL     1      -5.948   3.183  26.067  0.00  0.00    +0.076 A 
ATOM     34  C   UNL     1      -6.829   2.480  27.023  0.00  0.00    +0.073 C 
ENDBRANCH  20  25
BRANCH  15  19
ATOM      3  O   UNL     1      -3.332  -0.687  22.317  0.00  0.00    -0.274 OA
ATOM      9  N   UNL     1      -2.834  -0.217  24.541  0.00  0.00    -0.302 N 
ATOM     19  C   UNL     1      -2.805   0.014  23.177  0.00  0.00    +0.234 C 
ATOM     36  H   UNL     1      -2.215   0.327  25.135  0.00  0.00    +0.150 HD
BRANCH   9  21
ATOM     21  C   UNL     1      -3.510  -1.346  25.138  0.00  0.00    +0.159 C 
BRANCH  21  26
ATOM      6  O   UNL     1      -4.911  -2.722  23.705  0.00  0.00    -0.274 OA
ATOM     11  N   UNL     1      -5.626  -0.604  24.232  0.00  0.00    -0.328 N 
ATOM     26  C   UNL     1      -4.726  -1.648  24.272  0.00  0.00    +0.231 C 
ATOM     37  H   UNL     1      -5.471   0.270  24.725  0.00  0.00    +0.145 HD
ATOM     38  H   UNL     1      -6.488  -0.679  23.701  0.00  0.00    +0.145 HD
ENDBRANCH  21  26
BRANCH  21  22
ATOM     22  C   UNL     1      -2.606  -2.582  25.232  0.00  0.00    +0.034 C 
BRANCH  22  23
ATOM     23  C   UNL     1      -1.264  -2.461  24.481  0.00  0.00    -0.015 C 
ATOM     27  C   UNL     1      -1.188  -3.528  23.386  0.00  0.00    +0.007 C 
ATOM     28  C   UNL     1      -0.060  -2.595  25.415  0.00  0.00    +0.007 C 
ENDBRANCH  22  23
ENDBRANCH  21  22
ENDBRANCH   9  21
ENDBRANCH  15  19
BRANCH  14   8
ATOM      5  O   UNL     1       1.532  -0.912  22.667  0.00  0.00    -0.270 OA
ATOM      8  N   UNL     1       1.512   0.869  24.118  0.00  0.00    -0.308 N 
ATOM     24  C   UNL     1       2.158  -0.087  23.334  0.00  0.00    +0.254 C 
ATOM     35  H   UNL     1       2.067   1.566  24.608  0.00  0.00    +0.149 HD
BRANCH  24  29
ATOM      2  S   UNL     1       4.525  -1.316  23.942  0.00  0.00    +0.041 S 
ATOM     12  N   UNL     1       5.803   0.645  23.049  0.00  0.00    -0.146 NA
ATOM     13  N   UNL     1       5.973  -0.544  23.606  0.00  0.00    -0.110 NA
ATOM     29  C   UNL     1       3.626  -0.023  23.328  0.00  0.00    +0.117 A 
ATOM     31  C   UNL     1       4.459   0.943  22.890  0.00  0.00    +0.081 A 
ATOM     33  C   UNL     1       4.101   2.240  22.280  0.00  0.00    +0.069 C 
ENDBRANCH  24  29
ENDBRANCH  14   8
TORSDOF 8
ENDMDL
MODEL 4
REMARK VINA RESULT:       9.4      1.760      2.853
REMARK  Name = 7134325
REMARK  12 active torsions:
REMARK  status: ('A' for Active; 'I' for Inactive)
REMARK    1  A    between atoms: N_8  and  C_14
REMARK    2  A    between atoms: N_9  and  C_21
REMARK    3  A    between atoms: C_15  and  C_19
REMARK    4  A    between atoms: C_20  and  C_25
REMARK    5  A    between atoms: C_21  and  C_22
REMARK    6  A    between atoms: C_21  and  C_26
REMARK    7  A    between atoms: C_22  and  C_23
REMARK    8  A    between atoms: C_23  and  C_27
REMARK    9  A    between atoms: C_23  and  C_28
REMARK   10  A    between atoms: C_24  and  C_29
REMARK   11  A    between atoms: C_31  and  C_33
REMARK   12  A    between atoms: C_32  and  C_34
REMARK                            x       y       z     vdW  Elec       q    Type
REMARK                         _______ _______ _______ _____ _____    ______ ____
ROOT
ATOM      4  O   UNL     1      -2.789   2.855  21.996  0.00  0.00    -0.268 OA
ATOM      7  N   UNL     1      -1.463   1.817  23.594  0.00  0.00    -0.285 N 
ATOM     14  C   UNL     1       0.943   0.192  23.963  0.00  0.00    +0.077 C 
ATOM     15  C   UNL     1      -1.360   0.523  22.910  0.00  0.00    +0.164 C 
ATOM     16  C   UNL     1       0.076   0.041  22.709  0.00  0.00    +0.054 C 
ATOM     17  C   UNL     1       0.852   1.622  24.488  0.00  0.00    +0.041 C 
ATOM     18  C   UNL     1      -0.593   2.019  24.767  0.00  0.00    +0.111 C 
ATOM     20  C   UNL     1      -2.460   2.729  23.178  0.00  0.00    +0.266 C 
ENDROOT
BRANCH  20  25
ATOM      1  S   UNL     1      -3.557   4.942  26.262  0.00  0.00    -0.080 S 
ATOM     10  N   UNL     1      -4.458   3.813  24.119  0.00  0.00    -0.240 NA
ATOM     25  C   UNL     1      -3.109   3.536  24.205  0.00  0.00    +0.133 A 
ATOM     30  C   UNL     1      -2.449   4.060  25.294  0.00  0.00    +0.080 A 
ATOM     32  C   UNL     1      -4.804   4.548  25.151  0.00  0.00    +0.076 A 
ATOM     34  C   UNL     1      -6.174   5.044  25.404  0.00  0.00    +0.073 C 
ENDBRANCH  20  25
BRANCH  15  19
ATOM      3  O   UNL     1      -1.684  -1.458  24.205  0.00  0.00    -0.274 OA
ATOM      9  N   UNL     1      -3.508  -0.073  23.788  0.00  0.00    -0.302 N 
ATOM     19  C   UNL     1      -2.178  -0.448  23.710  0.00  0.00    +0.234 C 
ATOM     36  H   UNL     1      -3.761   0.866  23.497  0.00  0.00    +0.150 HD
BRANCH   9  21
ATOM     21  C   UNL     1      -4.509  -0.850  24.483  0.00  0.00    +0.159 C 
BRANCH  21  26
ATOM      6  O   UNL     1      -3.448  -2.540  25.872  0.00  0.00    -0.274 OA
ATOM     11  N   UNL     1      -3.936  -3.061  23.689  0.00  0.00    -0.328 N 
ATOM     26  C   UNL     1      -3.894  -2.213  24.775  0.00  0.00    +0.231 C 
ATOM     37  H   UNL     1      -4.328  -2.785  22.795  0.00  0.00    +0.145 HD
ATOM     38  H   UNL     1      -3.571  -4.006  23.753  0.00  0.00    +0.145 HD
ENDBRANCH  21  26
BRANCH  21  22
ATOM     22  C   UNL     1      -4.961  -0.181  25.788  0.00  0.00    +0.034 C 
BRANCH  22  23
ATOM     23  C   UNL     1      -5.562   1.229  25.618  0.00  0.00    -0.015 C 
ATOM     27  C   UNL     1      -6.272   1.647  26.909  0.00  0.00    +0.007 C 
ATOM     28  C   UNL     1      -6.540   1.308  24.445  0.00  0.00    +0.007 C 
ENDBRANCH  22  23
ENDBRANCH  21  22
ENDBRANCH   9  21
ENDBRANCH  15  19
BRANCH  14   8
ATOM      5  O   UNL     1       2.948   1.946  23.036  0.00  0.00    -0.270 OA
ATOM      8  N   UNL     1       2.314  -0.165  23.683  0.00  0.00    -0.308 N 
ATOM     24  C   UNL     1       3.246   0.765  23.225  0.00  0.00    +0.254 C 
ATOM     35  H   UNL     1       2.616  -1.115  23.879  0.00  0.00    +0.149 HD
BRANCH  24  29
ATOM      2  S   UNL     1       5.080  -0.284  21.487  0.00  0.00    +0.041 S 
ATOM     12  N   UNL     1       6.788  -0.397  23.317  0.00  0.00    -0.146 NA
ATOM     13  N   UNL     1       6.618  -0.663  22.031  0.00  0.00    -0.110 NA
ATOM     29  C   UNL     1       4.609   0.256  23.018  0.00  0.00    +0.117 A 
ATOM     31  C   UNL     1       5.637   0.129  23.882  0.00  0.00    +0.081 A 
ATOM     33  C   UNL     1       5.664   0.480  25.317  0.00  0.00    +0.069 C 
ENDBRANCH  24  29
ENDBRANCH  14   8
TORSDOF 8
ENDMDL
MODEL 5
REMARK VINA RESULT:      10.3      2.436      4.786
REMARK  Name = 7134325
REMARK  12 active torsions:
REMARK  status: ('A' for Active; 'I' for Inactive)
REMARK    1  A    between atoms: N_8  and  C_14
REMARK    2  A    between atoms: N_9  and  C_21
REMARK    3  A    between atoms: C_15  and  C_19
REMARK    4  A    between atoms: C_20  and  C_25
REMARK    5  A    between atoms: C_21  and  C_22
REMARK    6  A    between atoms: C_21  and  C_26
REMARK    7  A    between atoms: C_22  and  C_23
REMARK    8  A    between atoms: C_23  and  C_27
REMARK    9  A    between atoms: C_23  and  C_28
REMARK   10  A    between atoms: C_24  and  C_29
REMARK   11  A    between atoms: C_31  and  C_33
REMARK   12  A    between atoms: C_32  and  C_34
REMARK                            x       y       z     vdW  Elec       q    Type
REMARK                         _______ _______ _______ _____ _____    ______ ____
ROOT
ATOM      4  O   UNL     1      -1.497   0.074  26.665  0.00  0.00    -0.268 OA
ATOM      7  N   UNL     1      -0.465   0.306  24.598  0.00  0.00    -0.285 N 
ATOM     14  C   UNL     1       2.081   0.922  23.294  0.00  0.00    +0.077 C 
ATOM     15  C   UNL     1       0.197   1.584  24.886  0.00  0.00    +0.164 C 
ATOM     16  C   UNL     1       1.703   1.572  24.628  0.00  0.00    +0.054 C 
ATOM     17  C   UNL     1       1.439  -0.458  23.188  0.00  0.00    +0.041 C 
ATOM     18  C   UNL     1      -0.075  -0.378  23.353  0.00  0.00    +0.111 C 
ATOM     20  C   UNL     1      -1.510  -0.125  25.448  0.00  0.00    +0.266 C 
ENDROOT
BRANCH  20  25
ATOM      1  S   UNL     1      -4.848  -1.358  23.729  0.00  0.00    -0.080 S 
ATOM     10  N   UNL     1      -2.600  -2.196  24.691  0.00  0.00    -0.240 NA
ATOM     25  C   UNL     1      -2.634  -0.825  24.835  0.00  0.00    +0.133 A 
ATOM     30  C   UNL     1      -3.767  -0.192  24.375  0.00  0.00    +0.080 A 
ATOM     32  C   UNL     1      -3.716  -2.587  24.118  0.00  0.00    +0.076 A 
ATOM     34  C   UNL     1      -4.045  -3.994  23.799  0.00  0.00    +0.073 C 
ENDBRANCH  20  25
BRANCH  15  19
ATOM      3  O   UNL     1       0.094   3.546  23.528  0.00  0.00    -0.274 OA
ATOM      9  N   UNL     1      -1.879   2.418  24.028  0.00  0.00    -0.302 N 
ATOM     19  C   UNL     1      -0.511   2.624  24.067  0.00  0.00    +0.234 C 
ATOM     36  H   UNL     1      -2.242   1.528  24.357  0.00  0.00    +0.150 HD
BRANCH   9  21
ATOM     21  C   UNL     1      -2.790   3.292  23.325  0.00  0.00    +0.159 C 
BRANCH  21  26
ATOM      6  O   UNL     1      -2.449   1.672  21.546  0.00  0.00    -0.274 OA
ATOM     11  N   UNL     1      -3.938   3.385  21.199  0.00  0.00    -0.328 N 
ATOM     26  C   UNL     1      -3.008   2.692  21.943  0.00  0.00    +0.231 C 
ATOM     37  H   UNL     1      -4.409   4.214  21.549  0.00  0.00    +0.145 HD
ATOM     38  H   UNL     1      -4.187   3.083  20.263  0.00  0.00    +0.145 HD
ENDBRANCH  21  26
BRANCH  21  22
ATOM     22  C   UNL     1      -4.131   3.444  24.056  0.00  0.00    +0.034 C 
BRANCH  22  23
ATOM     23  C   UNL     1      -4.103   3.055  25.548  0.00  0.00    -0.015 C 
ATOM     27  C   UNL     1      -5.522   2.732  26.024  0.00  0.00    +0.007 C 
ATOM     28  C   UNL     1      -3.504   4.154  26.426  0.00  0.00    +0.007 C 
ENDBRANCH  22  23
ENDBRANCH  21  22
ENDBRANCH   9  21
ENDBRANCH  15  19
BRANCH  14   8
ATOM      5  O   UNL     1       3.660  -1.328  23.927  0.00  0.00    -0.270 OA
ATOM      8  N   UNL     1       3.516   0.831  23.159  0.00  0.00    -0.308 N 
ATOM     24  C   UNL     1       4.224  -0.322  23.495  0.00  0.00    +0.254 C 
ATOM     35  H   UNL     1       4.015   1.619  22.753  0.00  0.00    +0.149 HD
BRANCH  24  29
ATOM      2  S   UNL     1       6.419  -1.456  22.320  0.00  0.00    +0.041 S 
ATOM     12  N   UNL     1       7.889   0.331  23.282  0.00  0.00    -0.146 NA
ATOM     13  N   UNL     1       7.927  -0.757  22.529  0.00  0.00    -0.110 NA
ATOM     29  C   UNL     1       5.675  -0.271  23.269  0.00  0.00    +0.117 A 
ATOM     31  C   UNL     1       6.599   0.609  23.706  0.00  0.00    +0.081 A 
ATOM     33  C   UNL     1       6.387   1.796  24.559  0.00  0.00    +0.069 C 
ENDBRANCH  24  29
ENDBRANCH  14   8
TORSDOF 8
ENDMDL
MODEL 6
REMARK VINA RESULT:      10.4      1.981      2.717
REMARK  Name = 7134325
REMARK  12 active torsions:
REMARK  status: ('A' for Active; 'I' for Inactive)
REMARK    1  A    between atoms: N_8  and  C_14
REMARK    2  A    between atoms: N_9  and  C_21
REMARK    3  A    between atoms: C_15  and  C_19
REMARK    4  A    between atoms: C_20  and  C_25
REMARK    5  A    between atoms: C_21  and  C_22
REMARK    6  A    between atoms: C_21  and  C_26
REMARK    7  A    between atoms: C_22  and  C_23
REMARK    8  A    between atoms: C_23  and  C_27
REMARK    9  A    between atoms: C_23  and  C_28
REMARK   10  A    between atoms: C_24  and  C_29
REMARK   11  A    between atoms: C_31  and  C_33
REMARK   12  A    between atoms: C_32  and  C_34
REMARK                            x       y       z     vdW  Elec       q    Type
REMARK                         _______ _______ _______ _____ _____    ______ ____
ROOT
ATOM      4  O   UNL     1      -2.465   1.902  21.625  0.00  0.00    -0.268 OA
ATOM      7  N   UNL     1      -0.967   1.328  23.303  0.00  0.00    -0.285 N 
ATOM     14  C   UNL     1       1.786   0.476  23.811  0.00  0.00    +0.077 C 
ATOM     15  C   UNL     1      -0.466   0.103  22.667  0.00  0.00    +0.164 C 
ATOM     16  C   UNL     1       1.055   0.053  22.533  0.00  0.00    +0.054 C 
ATOM     17  C   UNL     1       1.265   1.829  24.284  0.00  0.00    +0.041 C 
ATOM     18  C   UNL     1      -0.244   1.798  24.498  0.00  0.00    +0.111 C 
ATOM     20  C   UNL     1      -2.165   1.903  22.821  0.00  0.00    +0.266 C 
ENDROOT
BRANCH  20  25
ATOM      1  S   UNL     1      -4.179   4.137  25.383  0.00  0.00    -0.080 S 
ATOM     10  N   UNL     1      -4.110   1.781  24.323  0.00  0.00    -0.240 NA
ATOM     25  C   UNL     1      -3.063   2.510  23.797  0.00  0.00    +0.133 A 
ATOM     30  C   UNL     1      -2.937   3.805  24.248  0.00  0.00    +0.080 A 
ATOM     32  C   UNL     1      -4.767   2.539  25.172  0.00  0.00    +0.076 A 
ATOM     34  C   UNL     1      -5.956   2.103  25.936  0.00  0.00    +0.073 C 
ENDBRANCH  20  25
BRANCH  15  19
ATOM      3  O   UNL     1      -0.800  -2.212  23.147  0.00  0.00    -0.274 OA
ATOM      9  N   UNL     1      -1.745  -0.621  24.559  0.00  0.00    -0.302 N 
ATOM     19  C   UNL     1      -1.004  -1.045  23.470  0.00  0.00    +0.234 C 
ATOM     36  H   UNL     1      -1.692   0.358  24.825  0.00  0.00    +0.150 HD
BRANCH   9  21
ATOM     21  C   UNL     1      -2.389  -1.530  25.479  0.00  0.00    +0.159 C 
BRANCH  21  26
ATOM      6  O   UNL     1      -2.513  -1.476  27.905  0.00  0.00    -0.274 OA
ATOM     11  N   UNL     1      -0.722  -0.473  26.875  0.00  0.00    -0.328 N 
ATOM     26  C   UNL     1      -1.918  -1.160  26.878  0.00  0.00    +0.231 C 
ATOM     37  H   UNL     1      -0.230  -0.238  26.019  0.00  0.00    +0.145 HD
ATOM     38  H   UNL     1      -0.289  -0.178  27.744  0.00  0.00    +0.145 HD
ENDBRANCH  21  26
BRANCH  21  22
ATOM     22  C   UNL     1      -3.920  -1.454  25.396  0.00  0.00    +0.034 C 
BRANCH  22  23
ATOM     23  C   UNL     1      -4.530  -2.061  24.115  0.00  0.00    -0.015 C 
ATOM     27  C   UNL     1      -3.946  -3.456  23.877  0.00  0.00    +0.007 C 
ATOM     28  C   UNL     1      -4.289  -1.185  22.884  0.00  0.00    +0.007 C 
ENDBRANCH  22  23
ENDBRANCH  21  22
ENDBRANCH   9  21
ENDBRANCH  15  19
BRANCH  14   8
ATOM      5  O   UNL     1       3.553  -1.718  23.953  0.00  0.00    -0.270 OA
ATOM      8  N   UNL     1       3.213   0.525  23.591  0.00  0.00    -0.308 N 
ATOM     24  C   UNL     1       4.018  -0.610  23.680  0.00  0.00    +0.254 C 
ATOM     35  H   UNL     1       3.629   1.408  23.309  0.00  0.00    +0.149 HD
BRANCH  24  29
ATOM      2  S   UNL     1       6.262  -1.480  22.378  0.00  0.00    +0.041 S 
ATOM     12  N   UNL     1       7.586   0.417  23.340  0.00  0.00    -0.146 NA
ATOM     13  N   UNL     1       7.700  -0.638  22.549  0.00  0.00    -0.110 NA
ATOM     29  C   UNL     1       5.446  -0.406  23.397  0.00  0.00    +0.117 A 
ATOM     31  C   UNL     1       6.295   0.551  23.826  0.00  0.00    +0.081 A 
ATOM     33  C   UNL     1       6.004   1.684  24.727  0.00  0.00    +0.069 C 
ENDBRANCH  24  29
ENDBRANCH  14   8
TORSDOF 8
ENDMDL
MODEL 7
REMARK VINA RESULT:      11.4      2.470      5.229
REMARK  Name = 7134325
REMARK  12 active torsions:
REMARK  status: ('A' for Active; 'I' for Inactive)
REMARK    1  A    between atoms: N_8  and  C_14
REMARK    2  A    between atoms: N_9  and  C_21
REMARK    3  A    between atoms: C_15  and  C_19
REMARK    4  A    between atoms: C_20  and  C_25
REMARK    5  A    between atoms: C_21  and  C_22
REMARK    6  A    between atoms: C_21  and  C_26
REMARK    7  A    between atoms: C_22  and  C_23
REMARK    8  A    between atoms: C_23  and  C_27
REMARK    9  A    between atoms: C_23  and  C_28
REMARK   10  A    between atoms: C_24  and  C_29
REMARK   11  A    between atoms: C_31  and  C_33
REMARK   12  A    between atoms: C_32  and  C_34
REMARK                            x       y       z     vdW  Elec       q    Type
REMARK                         _______ _______ _______ _____ _____    ______ ____
ROOT
ATOM      4  O   UNL     1      -2.069  -0.902  26.765  0.00  0.00    -0.268 OA
ATOM      7  N   UNL     1      -1.100  -0.124  24.804  0.00  0.00    -0.285 N 
ATOM     14  C   UNL     1       1.389   0.895  23.651  0.00  0.00    +0.077 C 
ATOM     15  C   UNL     1      -0.473   1.067  25.390  0.00  0.00    +0.164 C 
ATOM     16  C   UNL     1       1.025   1.178  25.112  0.00  0.00    +0.054 C 
ATOM     17  C   UNL     1       0.791  -0.439  23.216  0.00  0.00    +0.041 C 
ATOM     18  C   UNL     1      -0.720  -0.461  23.421  0.00  0.00    +0.111 C 
ATOM     20  C   UNL     1      -2.107  -0.792  25.537  0.00  0.00    +0.266 C 
ENDROOT
BRANCH  20  25
ATOM      1  S   UNL     1      -5.428  -1.672  23.585  0.00  0.00    -0.080 S 
ATOM     10  N   UNL     1      -3.179  -2.674  24.371  0.00  0.00    -0.240 NA
ATOM     25  C   UNL     1      -3.223  -1.360  24.789  0.00  0.00    +0.133 A 
ATOM     30  C   UNL     1      -4.359  -0.655  24.459  0.00  0.00    +0.080 A 
ATOM     32  C   UNL     1      -4.289  -2.948  23.724  0.00  0.00    +0.076 A 
ATOM     34  C   UNL     1      -4.606  -4.263  23.125  0.00  0.00    +0.073 C 
ENDBRANCH  20  25
BRANCH  15  19
ATOM      3  O   UNL     1      -1.413   2.428  23.667  0.00  0.00    -0.274 OA
ATOM      9  N   UNL     1      -1.672   3.081  25.886  0.00  0.00    -0.302 N 
ATOM     19  C   UNL     1      -1.237   2.250  24.869  0.00  0.00    +0.234 C 
ATOM     36  H   UNL     1      -1.625   2.739  26.841  0.00  0.00    +0.150 HD
BRANCH   9  21
ATOM     21  C   UNL     1      -2.412   4.300  25.648  0.00  0.00    +0.159 C 
BRANCH  21  26
ATOM      6  O   UNL     1      -1.720   6.472  24.804  0.00  0.00    -0.274 OA
ATOM     11  N   UNL     1      -0.209   4.743  24.754  0.00  0.00    -0.328 N 
ATOM     26  C   UNL     1      -1.445   5.293  25.017  0.00  0.00    +0.231 C 
ATOM     37  H   UNL     1       0.011   3.773  24.955  0.00  0.00    +0.145 HD
ATOM     38  H   UNL     1       0.533   5.301  24.345  0.00  0.00    +0.145 HD
ENDBRANCH  21  26
BRANCH  21  22
ATOM     22  C   UNL     1      -3.620   4.077  24.730  0.00  0.00    +0.034 C 
BRANCH  22  23
ATOM     23  C   UNL     1      -4.880   3.536  25.437  0.00  0.00    -0.015 C 
ATOM     27  C   UNL     1      -5.385   2.288  24.708  0.00  0.00    +0.007 C 
ATOM     28  C   UNL     1      -5.998   4.577  25.512  0.00  0.00    +0.007 C 
ENDBRANCH  22  23
ENDBRANCH  21  22
ENDBRANCH   9  21
ENDBRANCH  15  19
BRANCH  14   8
ATOM      5  O   UNL     1       3.072  -1.365  23.789  0.00  0.00    -0.270 OA
ATOM      8  N   UNL     1       2.823   0.896  23.472  0.00  0.00    -0.308 N 
ATOM     24  C   UNL     1       3.584  -0.269  23.556  0.00  0.00    +0.254 C 
ATOM     35  H   UNL     1       3.278   1.770  23.224  0.00  0.00    +0.149 HD
BRANCH  24  29
ATOM      2  S   UNL     1       5.714  -0.724  21.901  0.00  0.00    +0.041 S 
ATOM     12  N   UNL     1       7.245   0.434  23.510  0.00  0.00    -0.146 NA
ATOM     13  N   UNL     1       7.238  -0.188  22.342  0.00  0.00    -0.110 NA
ATOM     29  C   UNL     1       5.025  -0.110  23.317  0.00  0.00    +0.117 A 
ATOM     31  C   UNL     1       5.978   0.479  24.069  0.00  0.00    +0.081 A 
ATOM     33  C   UNL     1       5.817   1.142  25.379  0.00  0.00    +0.069 C 
ENDBRANCH  24  29
ENDBRANCH  14   8
TORSDOF 8
ENDMDL
MODEL 8
REMARK VINA RESULT:      11.4      2.468      4.904
REMARK  Name = 7134325
REMARK  12 active torsions:
REMARK  status: ('A' for Active; 'I' for Inactive)
REMARK    1  A    between atoms: N_8  and  C_14
REMARK    2  A    between atoms: N_9  and  C_21
REMARK    3  A    between atoms: C_15  and  C_19
REMARK    4  A    between atoms: C_20  and  C_25
REMARK    5  A    between atoms: C_21  and  C_22
REMARK    6  A    between atoms: C_21  and  C_26
REMARK    7  A    between atoms: C_22  and  C_23
REMARK    8  A    between atoms: C_23  and  C_27
REMARK    9  A    between atoms: C_23  and  C_28
REMARK   10  A    between atoms: C_24  and  C_29
REMARK   11  A    between atoms: C_31  and  C_33
REMARK   12  A    between atoms: C_32  and  C_34
REMARK                            x       y       z     vdW  Elec       q    Type
REMARK                         _______ _______ _______ _____ _____    ______ ____
ROOT
ATOM      4  O   UNL     1      -2.158  -0.827  26.580  0.00  0.00    -0.268 OA
ATOM      7  N   UNL     1      -1.106  -0.310  24.576  0.00  0.00    -0.285 N 
ATOM     14  C   UNL     1       1.387   0.691  23.417  0.00  0.00    +0.077 C 
ATOM     15  C   UNL     1      -0.600   1.005  24.989  0.00  0.00    +0.164 C 
ATOM     16  C   UNL     1       0.904   1.181  24.785  0.00  0.00    +0.054 C 
ATOM     17  C   UNL     1       0.908  -0.737  23.177  0.00  0.00    +0.041 C 
ATOM     18  C   UNL     1      -0.609  -0.839  23.294  0.00  0.00    +0.111 C 
ATOM     20  C   UNL     1      -2.117  -0.923  25.351  0.00  0.00    +0.266 C 
ENDROOT
BRANCH  20  25
ATOM      1  S   UNL     1      -5.284  -2.392  23.501  0.00  0.00    -0.080 S 
ATOM     10  N   UNL     1      -2.889  -2.990  24.264  0.00  0.00    -0.240 NA
ATOM     25  C   UNL     1      -3.139  -1.688  24.645  0.00  0.00    +0.133 A 
ATOM     30  C   UNL     1      -4.380  -1.187  24.322  0.00  0.00    +0.080 A 
ATOM     32  C   UNL     1      -3.951  -3.461  23.651  0.00  0.00    +0.076 A 
ATOM     34  C   UNL     1      -4.061  -4.828  23.098  0.00  0.00    +0.073 C 
ENDBRANCH  20  25
BRANCH  15  19
ATOM      3  O   UNL     1      -0.883   2.767  23.402  0.00  0.00    -0.274 OA
ATOM      9  N   UNL     1      -2.733   2.027  24.605  0.00  0.00    -0.302 N 
ATOM     19  C   UNL     1      -1.400   2.026  24.233  0.00  0.00    +0.234 C 
ATOM     36  H   UNL     1      -3.077   1.252  25.165  0.00  0.00    +0.150 HD
BRANCH   9  21
ATOM     21  C   UNL     1      -3.710   2.931  24.041  0.00  0.00    +0.159 C 
BRANCH  21  26
ATOM      6  O   UNL     1      -5.551   1.436  24.574  0.00  0.00    -0.274 OA
ATOM     11  N   UNL     1      -5.652   3.608  25.312  0.00  0.00    -0.328 N 
ATOM     26  C   UNL     1      -5.060   2.560  24.641  0.00  0.00    +0.231 C 
ATOM     37  H   UNL     1      -5.224   4.526  25.379  0.00  0.00    +0.145 HD
ATOM     38  H   UNL     1      -6.550   3.491  25.771  0.00  0.00    +0.145 HD
ENDBRANCH  21  26
BRANCH  21  22
ATOM     22  C   UNL     1      -3.382   4.400  24.338  0.00  0.00    +0.034 C 
BRANCH  22  23
ATOM     23  C   UNL     1      -2.260   4.616  25.375  0.00  0.00    -0.015 C 
ATOM     27  C   UNL     1      -2.874   4.836  26.760  0.00  0.00    +0.007 C 
ATOM     28  C   UNL     1      -1.358   5.798  25.019  0.00  0.00    +0.007 C 
ENDBRANCH  22  23
ENDBRANCH  21  22
ENDBRANCH   9  21
ENDBRANCH  15  19
BRANCH  14   8
ATOM      5  O   UNL     1       3.184  -1.455  23.764  0.00  0.00    -0.270 OA
ATOM      8  N   UNL     1       2.826   0.771  23.324  0.00  0.00    -0.308 N 
ATOM     24  C   UNL     1       3.646  -0.341  23.510  0.00  0.00    +0.254 C 
ATOM     35  H   UNL     1       3.245   1.659  23.061  0.00  0.00    +0.149 HD
BRANCH  24  29
ATOM      2  S   UNL     1       5.895  -0.725  22.000  0.00  0.00    +0.041 S 
ATOM     12  N   UNL     1       7.258   0.573  23.653  0.00  0.00    -0.146 NA
ATOM     13  N   UNL     1       7.357  -0.087  22.510  0.00  0.00    -0.110 NA
ATOM     29  C   UNL     1       5.088  -0.106  23.350  0.00  0.00    +0.117 A 
ATOM     31  C   UNL     1       5.959   0.562  24.135  0.00  0.00    +0.081 A 
ATOM     33  C   UNL     1       5.682   1.257  25.408  0.00  0.00    +0.069 C 
ENDBRANCH  24  29
ENDBRANCH  14   8
TORSDOF 8
ENDMDL
