MODEL 1
REMARK VINA RESULT:      -3.2      0.000      0.000
REMARK  Name = 28961532
REMARK  7 active torsions:
REMARK  status: ('A' for Active; 'I' for Inactive)
REMARK    1  A    between atoms: O_4  and  C_11
REMARK    2  A    between atoms: O_5  and  C_18
REMARK    3  A    between atoms: N_7  and  C_9
REMARK    4  A    between atoms: N_8  and  C_17
REMARK    5  A    between atoms: C_10  and  C_17
REMARK    6  A    between atoms: C_12  and  C_18
REMARK    7  A    between atoms: C_19  and  C_20
REMARK                            x       y       z     vdW  Elec       q    Type
REMARK                         _______ _______ _______ _____ _____    ______ ____
ROOT
ATOM      3  O   UNL     1      -2.260   3.113  25.348  0.00  0.00    -0.365 OA
ATOM      9  C   UNL     1      -2.827   0.801  25.340  0.00  0.00    +0.118 C 
ATOM     10  C   UNL     1      -1.713   1.812  25.038  0.00  0.00    +0.155 C 
ATOM     11  C   UNL     1      -4.093   1.626  25.170  0.00  0.00    +0.165 C 
ATOM     12  C   UNL     1      -3.637   2.963  25.744  0.00  0.00    +0.174 C 
ENDROOT
BRANCH   9   7
ATOM      7  N   UNL     1      -2.790  -0.441  24.584  0.00  0.00    -0.295 NA
ATOM     13  C   UNL     1      -4.079  -1.131  24.580  0.00  0.00    +0.085 C 
ATOM     14  C   UNL     1      -1.844  -1.408  25.142  0.00  0.00    +0.085 C 
ATOM     15  C   UNL     1      -3.718  -2.528  24.096  0.00  0.00    +0.017 C 
ATOM     16  C   UNL     1      -2.250  -2.711  24.469  0.00  0.00    +0.017 C 
ENDBRANCH   9   7
BRANCH  11   4
ATOM      4  O   UNL     1      -4.443   1.769  23.800  0.00  0.00    -0.388 OA
ATOM     26  H   UNL     1      -4.973   2.579  23.714  0.00  0.00    +0.210 HD
ENDBRANCH  11   4
BRANCH  10  17
ATOM     17  C   UNL     1      -1.208   1.865  23.601  0.00  0.00    +0.137 C 
BRANCH  17   8
ATOM      6  O   UNL     1       0.085  -0.545  22.724  0.00  0.00    -0.270 OA
ATOM      8  N   UNL     1       0.203   1.624  23.541  0.00  0.00    -0.309 N 
ATOM     19  C   UNL     1       0.747   0.419  23.100  0.00  0.00    +0.244 C 
ATOM     27  H   UNL     1       0.804   2.355  23.905  0.00  0.00    +0.149 HD
BRANCH  19  20
ATOM      1 CL   UNL     1       4.983  -2.453  23.971  0.00  0.00    -0.081 Cl
ATOM      2  F   UNL     1       6.350   0.056  23.182  0.00  0.00    -0.204 F 
ATOM     20  C   UNL     1       2.228   0.319  23.124  0.00  0.00    +0.038 A 
ATOM     21  C   UNL     1       2.841  -0.879  23.493  0.00  0.00    +0.036 A 
ATOM     22  C   UNL     1       3.008   1.422  22.776  0.00  0.00    +0.016 A 
ATOM     23  C   UNL     1       4.233  -0.972  23.515  0.00  0.00    +0.077 A 
ATOM     24  C   UNL     1       4.399   1.329  22.798  0.00  0.00    +0.040 A 
ATOM     25  C   UNL     1       5.012   0.131  23.167  0.00  0.00    +0.142 A 
ENDBRANCH  19  20
ENDBRANCH  17   8
ENDBRANCH  10  17
BRANCH  12  18
ATOM     18  C   UNL     1      -4.425   4.175  25.283  0.00  0.00    +0.190 C 
BRANCH  18   5
ATOM      5  O   UNL     1      -5.790   3.992  25.629  0.00  0.00    -0.392 OA
ATOM     28  H   UNL     1      -6.204   4.872  25.630  0.00  0.00    +0.210 HD
ENDBRANCH  18   5
ENDBRANCH  12  18
TORSDOF 7
ENDMDL
MODEL 2
REMARK VINA RESULT:      -1.6      1.787      3.564
REMARK  Name = 28961532
REMARK  7 active torsions:
REMARK  status: ('A' for Active; 'I' for Inactive)
REMARK    1  A    between atoms: O_4  and  C_11
REMARK    2  A    between atoms: O_5  and  C_18
REMARK    3  A    between atoms: N_7  and  C_9
REMARK    4  A    between atoms: N_8  and  C_17
REMARK    5  A    between atoms: C_10  and  C_17
REMARK    6  A    between atoms: C_12  and  C_18
REMARK    7  A    between atoms: C_19  and  C_20
REMARK                            x       y       z     vdW  Elec       q    Type
REMARK                         _______ _______ _______ _____ _____    ______ ____
ROOT
ATOM      3  O   UNL     1      -2.471  -1.144  23.607  0.00  0.00    -0.365 OA
ATOM      9  C   UNL     1      -3.272   1.025  24.175  0.00  0.00    +0.118 C 
ATOM     10  C   UNL     1      -2.011   0.168  23.999  0.00  0.00    +0.155 C 
ATOM     11  C   UNL     1      -4.342  -0.005  24.505  0.00  0.00    +0.165 C 
ATOM     12  C   UNL     1      -3.911  -1.157  23.603  0.00  0.00    +0.174 C 
ENDROOT
BRANCH   9   7
ATOM      7  N   UNL     1      -3.170   2.135  25.110  0.00  0.00    -0.295 NA
ATOM     13  C   UNL     1      -4.398   2.925  25.173  0.00  0.00    +0.085 C 
ATOM     14  C   UNL     1      -2.124   3.087  24.735  0.00  0.00    +0.085 C 
ATOM     15  C   UNL     1      -3.948   4.200  25.873  0.00  0.00    +0.017 C 
ATOM     16  C   UNL     1      -2.454   4.307  25.582  0.00  0.00    +0.017 C 
ENDBRANCH   9   7
BRANCH  11   4
ATOM      4  O   UNL     1      -4.284  -0.398  25.870  0.00  0.00    -0.388 OA
ATOM     26  H   UNL     1      -3.879   0.331  26.369  0.00  0.00    +0.210 HD
ENDBRANCH  11   4
BRANCH  10  17
ATOM     17  C   UNL     1      -1.129  -0.011  25.230  0.00  0.00    +0.137 C 
BRANCH  17   8
ATOM      6  O   UNL     1      -0.025   0.497  22.629  0.00  0.00    -0.270 OA
ATOM      8  N   UNL     1       0.259  -0.006  24.876  0.00  0.00    -0.309 N 
ATOM     19  C   UNL     1       0.708   0.251  23.583  0.00  0.00    +0.244 C 
ATOM     27  H   UNL     1       0.914  -0.272  25.603  0.00  0.00    +0.149 HD
BRANCH  19  20
ATOM      1 CL   UNL     1       5.132  -2.445  23.925  0.00  0.00    -0.081 Cl
ATOM      2  F   UNL     1       6.263   0.046  22.784  0.00  0.00    -0.204 F 
ATOM     20  C   UNL     1       2.178   0.193  23.373  0.00  0.00    +0.038 A 
ATOM     21  C   UNL     1       2.885  -0.962  23.708  0.00  0.00    +0.036 A 
ATOM     22  C   UNL     1       2.851   1.293  22.843  0.00  0.00    +0.016 A 
ATOM     23  C   UNL     1       4.265  -1.016  23.511  0.00  0.00    +0.077 A 
ATOM     24  C   UNL     1       4.230   1.239  22.646  0.00  0.00    +0.040 A 
ATOM     25  C   UNL     1       4.938   0.084  22.981  0.00  0.00    +0.142 A 
ENDBRANCH  19  20
ENDBRANCH  17   8
ENDBRANCH  10  17
BRANCH  12  18
ATOM     18  C   UNL     1      -4.402  -2.531  24.020  0.00  0.00    +0.190 C 
BRANCH  18   5
ATOM      5  O   UNL     1      -3.551  -3.031  25.040  0.00  0.00    -0.392 OA
ATOM     28  H   UNL     1      -3.603  -4.001  25.005  0.00  0.00    +0.210 HD
ENDBRANCH  18   5
ENDBRANCH  12  18
TORSDOF 7
ENDMDL
MODEL 3
REMARK VINA RESULT:      -1.5      4.309      7.595
REMARK  Name = 28961532
REMARK  7 active torsions:
REMARK  status: ('A' for Active; 'I' for Inactive)
REMARK    1  A    between atoms: O_4  and  C_11
REMARK    2  A    between atoms: O_5  and  C_18
REMARK    3  A    between atoms: N_7  and  C_9
REMARK    4  A    between atoms: N_8  and  C_17
REMARK    5  A    between atoms: C_10  and  C_17
REMARK    6  A    between atoms: C_12  and  C_18
REMARK    7  A    between atoms: C_19  and  C_20
REMARK                            x       y       z     vdW  Elec       q    Type
REMARK                         _______ _______ _______ _____ _____    ______ ____
ROOT
ATOM      3  O   UNL     1       0.748  -1.175  23.713  0.00  0.00    -0.365 OA
ATOM      9  C   UNL     1       0.347   0.981  24.640  0.00  0.00    +0.118 C 
ATOM     10  C   UNL     1      -0.040  -0.502  24.720  0.00  0.00    +0.155 C 
ATOM     11  C   UNL     1       0.817   1.136  23.202  0.00  0.00    +0.165 C 
ATOM     12  C   UNL     1       1.525  -0.199  22.992  0.00  0.00    +0.174 C 
ENDROOT
BRANCH   9   7
ATOM      7  N   UNL     1      -0.665   1.934  25.068  0.00  0.00    -0.295 NA
ATOM     13  C   UNL     1      -0.512   3.238  24.423  0.00  0.00    +0.085 C 
ATOM     14  C   UNL     1      -0.601   2.211  26.503  0.00  0.00    +0.085 C 
ATOM     15  C   UNL     1      -1.385   4.146  25.277  0.00  0.00    +0.017 C 
ATOM     16  C   UNL     1      -1.440   3.473  26.645  0.00  0.00    +0.017 C 
ENDBRANCH   9   7
BRANCH  11   4
ATOM      4  O   UNL     1      -0.279   1.261  22.306  0.00  0.00    -0.388 OA
ATOM     26  H   UNL     1       0.074   1.221  21.401  0.00  0.00    +0.210 HD
ENDBRANCH  11   4
BRANCH  10  17
ATOM     17  C   UNL     1      -1.502  -0.841  24.451  0.00  0.00    +0.137 C 
BRANCH  17   8
ATOM      6  O   UNL     1      -4.360  -0.748  24.187  0.00  0.00    -0.270 OA
ATOM      8  N   UNL     1      -2.349   0.284  24.711  0.00  0.00    -0.309 N 
ATOM     19  C   UNL     1      -3.733   0.241  24.556  0.00  0.00    +0.244 C 
ATOM     27  H   UNL     1      -1.887   1.154  24.952  0.00  0.00    +0.149 HD
BRANCH  19  20
ATOM      1 CL   UNL     1      -4.261   5.342  23.751  0.00  0.00    -0.081 Cl
ATOM      2  F   UNL     1      -6.515   4.996  25.645  0.00  0.00    -0.204 F 
ATOM     20  C   UNL     1      -4.466   1.501  24.842  0.00  0.00    +0.038 A 
ATOM     21  C   UNL     1      -4.068   2.693  24.235  0.00  0.00    +0.036 A 
ATOM     22  C   UNL     1      -5.552   1.493  25.717  0.00  0.00    +0.016 A 
ATOM     23  C   UNL     1      -4.757   3.876  24.504  0.00  0.00    +0.077 A 
ATOM     24  C   UNL     1      -6.240   2.676  25.985  0.00  0.00    +0.040 A 
ATOM     25  C   UNL     1      -5.843   3.868  25.378  0.00  0.00    +0.142 A 
ENDBRANCH  19  20
ENDBRANCH  17   8
ENDBRANCH  10  17
BRANCH  12  18
ATOM     18  C   UNL     1       1.669  -0.641  21.548  0.00  0.00    +0.190 C 
BRANCH  18   5
ATOM      5  O   UNL     1       2.712   0.106  20.942  0.00  0.00    -0.392 OA
ATOM     28  H   UNL     1       3.429  -0.518  20.739  0.00  0.00    +0.210 HD
ENDBRANCH  18   5
ENDBRANCH  12  18
TORSDOF 7
ENDMDL
MODEL 4
REMARK VINA RESULT:      -1.3      1.268      1.615
REMARK  Name = 28961532
REMARK  7 active torsions:
REMARK  status: ('A' for Active; 'I' for Inactive)
REMARK    1  A    between atoms: O_4  and  C_11
REMARK    2  A    between atoms: O_5  and  C_18
REMARK    3  A    between atoms: N_7  and  C_9
REMARK    4  A    between atoms: N_8  and  C_17
REMARK    5  A    between atoms: C_10  and  C_17
REMARK    6  A    between atoms: C_12  and  C_18
REMARK    7  A    between atoms: C_19  and  C_20
REMARK                            x       y       z     vdW  Elec       q    Type
REMARK                         _______ _______ _______ _____ _____    ______ ____
ROOT
ATOM      3  O   UNL     1      -1.598   2.620  25.221  0.00  0.00    -0.365 OA
ATOM      9  C   UNL     1      -2.745   0.536  25.112  0.00  0.00    +0.118 C 
ATOM     10  C   UNL     1      -1.370   1.210  25.004  0.00  0.00    +0.155 C 
ATOM     11  C   UNL     1      -3.704   1.655  24.734  0.00  0.00    +0.165 C 
ATOM     12  C   UNL     1      -3.011   2.850  25.380  0.00  0.00    +0.174 C 
ENDROOT
BRANCH   9   7
ATOM      7  N   UNL     1      -2.914  -0.703  24.369  0.00  0.00    -0.295 NA
ATOM     13  C   UNL     1      -4.314  -1.117  24.285  0.00  0.00    +0.085 C 
ATOM     14  C   UNL     1      -2.222  -1.830  24.996  0.00  0.00    +0.085 C 
ATOM     15  C   UNL     1      -4.215  -2.568  23.837  0.00  0.00    +0.017 C 
ATOM     16  C   UNL     1      -2.841  -3.037  24.308  0.00  0.00    +0.017 C 
ENDBRANCH   9   7
BRANCH  11   4
ATOM      4  O   UNL     1      -3.776   1.826  23.325  0.00  0.00    -0.388 OA
ATOM     26  H   UNL     1      -4.448   2.505  23.145  0.00  0.00    +0.210 HD
ENDBRANCH  11   4
BRANCH  10  17
ATOM     17  C   UNL     1      -0.642   1.068  23.672  0.00  0.00    +0.137 C 
BRANCH  17   8
ATOM      6  O   UNL     1       1.110  -0.163  21.759  0.00  0.00    -0.270 OA
ATOM      8  N   UNL     1       0.734   0.724  23.870  0.00  0.00    -0.309 N 
ATOM     19  C   UNL     1       1.514   0.126  22.883  0.00  0.00    +0.244 C 
ATOM     27  H   UNL     1       1.109   0.872  24.800  0.00  0.00    +0.149 HD
BRANCH  19  20
ATOM      1 CL   UNL     1       6.354   1.787  23.758  0.00  0.00    -0.081 Cl
ATOM      2  F   UNL     1       6.811  -1.093  24.293  0.00  0.00    -0.204 F 
ATOM     20  C   UNL     1       2.916  -0.192  23.255  0.00  0.00    +0.038 A 
ATOM     21  C   UNL     1       3.868   0.826  23.324  0.00  0.00    +0.036 A 
ATOM     22  C   UNL     1       3.281  -1.508  23.535  0.00  0.00    +0.016 A 
ATOM     23  C   UNL     1       5.184   0.526  23.674  0.00  0.00    +0.077 A 
ATOM     24  C   UNL     1       4.598  -1.808  23.885  0.00  0.00    +0.040 A 
ATOM     25  C   UNL     1       5.550  -0.790  23.954  0.00  0.00    +0.142 A 
ENDBRANCH  19  20
ENDBRANCH  17   8
ENDBRANCH  10  17
BRANCH  12  18
ATOM     18  C   UNL     1      -3.366   4.204  24.796  0.00  0.00    +0.190 C 
BRANCH  18   5
ATOM      5  O   UNL     1      -4.779   4.330  24.758  0.00  0.00    -0.392 OA
ATOM     28  H   UNL     1      -5.105   4.157  25.658  0.00  0.00    +0.210 HD
ENDBRANCH  18   5
ENDBRANCH  12  18
TORSDOF 7
ENDMDL
MODEL 5
REMARK VINA RESULT:      -1.1      3.571      5.036
REMARK  Name = 28961532
REMARK  7 active torsions:
REMARK  status: ('A' for Active; 'I' for Inactive)
REMARK    1  A    between atoms: O_4  and  C_11
REMARK    2  A    between atoms: O_5  and  C_18
REMARK    3  A    between atoms: N_7  and  C_9
REMARK    4  A    between atoms: N_8  and  C_17
REMARK    5  A    between atoms: C_10  and  C_17
REMARK    6  A    between atoms: C_12  and  C_18
REMARK    7  A    between atoms: C_19  and  C_20
REMARK                            x       y       z     vdW  Elec       q    Type
REMARK                         _______ _______ _______ _____ _____    ______ ____
ROOT
ATOM      3  O   UNL     1      -5.625   3.740  24.507  0.00  0.00    -0.365 OA
ATOM      9  C   UNL     1      -3.392   4.060  25.270  0.00  0.00    +0.118 C 
ATOM     10  C   UNL     1      -4.303   4.083  24.034  0.00  0.00    +0.155 C 
ATOM     11  C   UNL     1      -4.105   3.093  26.202  0.00  0.00    +0.165 C 
ATOM     12  C   UNL     1      -5.560   3.446  25.915  0.00  0.00    +0.174 C 
ENDROOT
BRANCH   9   7
ATOM      7  N   UNL     1      -1.988   3.768  25.028  0.00  0.00    -0.295 NA
ATOM     13  C   UNL     1      -1.373   3.029  26.130  0.00  0.00    +0.085 C 
ATOM     14  C   UNL     1      -1.181   4.981  24.887  0.00  0.00    +0.085 C 
ATOM     15  C   UNL     1       0.115   3.179  25.853  0.00  0.00    +0.017 C 
ATOM     16  C   UNL     1       0.242   4.463  25.040  0.00  0.00    +0.017 C 
ENDBRANCH   9   7
BRANCH  11   4
ATOM      4  O   UNL     1      -3.844   1.741  25.849  0.00  0.00    -0.388 OA
ATOM     26  H   UNL     1      -2.953   1.703  25.464  0.00  0.00    +0.210 HD
ENDBRANCH  11   4
BRANCH  10  17
ATOM     17  C   UNL     1      -3.957   3.111  22.912  0.00  0.00    +0.137 C 
BRANCH  17   8
ATOM      6  O   UNL     1      -1.326   2.033  22.517  0.00  0.00    -0.270 OA
ATOM      8  N   UNL     1      -3.450   1.878  23.436  0.00  0.00    -0.309 N 
ATOM     19  C   UNL     1      -2.154   1.429  23.193  0.00  0.00    +0.244 C 
ATOM     27  H   UNL     1      -4.108   1.297  23.944  0.00  0.00    +0.149 HD
BRANCH  19  20
ATOM      1 CL   UNL     1      -3.637  -3.301  24.738  0.00  0.00    -0.081 Cl
ATOM      2  F   UNL     1      -0.765  -3.529  25.435  0.00  0.00    -0.204 F 
ATOM     20  C   UNL     1      -1.791   0.116  23.786  0.00  0.00    +0.038 A 
ATOM     21  C   UNL     1      -2.769  -0.863  23.964  0.00  0.00    +0.036 A 
ATOM     22  C   UNL     1      -0.473  -0.137  24.165  0.00  0.00    +0.016 A 
ATOM     23  C   UNL     1      -2.427  -2.096  24.521  0.00  0.00    +0.077 A 
ATOM     24  C   UNL     1      -0.132  -1.369  24.722  0.00  0.00    +0.040 A 
ATOM     25  C   UNL     1      -1.109  -2.349  24.900  0.00  0.00    +0.142 A 
ENDBRANCH  19  20
ENDBRANCH  17   8
ENDBRANCH  10  17
BRANCH  12  18
ATOM     18  C   UNL     1      -6.572   2.365  26.248  0.00  0.00    +0.190 C 
BRANCH  18   5
ATOM      5  O   UNL     1      -6.842   1.614  25.075  0.00  0.00    -0.392 OA
ATOM     28  H   UNL     1      -6.550   0.702  25.246  0.00  0.00    +0.210 HD
ENDBRANCH  18   5
ENDBRANCH  12  18
TORSDOF 7
ENDMDL
MODEL 6
REMARK VINA RESULT:      -1.0      3.976      6.757
REMARK  Name = 28961532
REMARK  7 active torsions:
REMARK  status: ('A' for Active; 'I' for Inactive)
REMARK    1  A    between atoms: O_4  and  C_11
REMARK    2  A    between atoms: O_5  and  C_18
REMARK    3  A    between atoms: N_7  and  C_9
REMARK    4  A    between atoms: N_8  and  C_17
REMARK    5  A    between atoms: C_10  and  C_17
REMARK    6  A    between atoms: C_12  and  C_18
REMARK    7  A    between atoms: C_19  and  C_20
REMARK                            x       y       z     vdW  Elec       q    Type
REMARK                         _______ _______ _______ _____ _____    ______ ____
ROOT
ATOM      3  O   UNL     1       1.702  -0.256  21.608  0.00  0.00    -0.365 OA
ATOM      9  C   UNL     1       0.419  -0.899  23.507  0.00  0.00    +0.118 C 
ATOM     10  C   UNL     1       0.362  -0.629  21.997  0.00  0.00    +0.155 C 
ATOM     11  C   UNL     1       1.592  -0.046  23.963  0.00  0.00    +0.165 C 
ATOM     12  C   UNL     1       2.539  -0.214  22.779  0.00  0.00    +0.174 C 
ENDROOT
BRANCH   9   7
ATOM      7  N   UNL     1      -0.819  -0.695  24.243  0.00  0.00    -0.295 NA
ATOM     13  C   UNL     1      -0.597  -0.559  25.682  0.00  0.00    +0.085 C 
ATOM     14  C   UNL     1      -1.743  -1.822  24.107  0.00  0.00    +0.085 C 
ATOM     15  C   UNL     1      -1.991  -0.749  26.262  0.00  0.00    +0.017 C 
ATOM     16  C   UNL     1      -2.742  -1.582  25.229  0.00  0.00    +0.017 C 
ENDBRANCH   9   7
BRANCH  11   4
ATOM      4  O   UNL     1       1.220   1.318  24.109  0.00  0.00    -0.388 OA
ATOM     26  H   UNL     1       0.901   1.630  23.246  0.00  0.00    +0.210 HD
ENDBRANCH  11   4
BRANCH  10  17
ATOM     17  C   UNL     1      -0.570   0.486  21.536  0.00  0.00    +0.137 C 
BRANCH  17   8
ATOM      6  O   UNL     1      -2.828   2.259  21.524  0.00  0.00    -0.270 OA
ATOM      8  N   UNL     1      -1.088   1.219  22.652  0.00  0.00    -0.309 N 
ATOM     19  C   UNL     1      -2.193   2.061  22.557  0.00  0.00    +0.244 C 
ATOM     27  H   UNL     1      -0.565   1.155  23.519  0.00  0.00    +0.149 HD
BRANCH  19  20
ATOM      1 CL   UNL     1      -5.976   3.736  25.693  0.00  0.00    -0.081 Cl
ATOM      2  F   UNL     1      -3.673   4.745  27.262  0.00  0.00    -0.204 F 
ATOM     20  C   UNL     1      -2.589   2.771  23.800  0.00  0.00    +0.038 A 
ATOM     21  C   UNL     1      -3.938   2.906  24.127  0.00  0.00    +0.036 A 
ATOM     22  C   UNL     1      -1.611   3.302  24.641  0.00  0.00    +0.016 A 
ATOM     23  C   UNL     1      -4.309   3.573  25.295  0.00  0.00    +0.077 A 
ATOM     24  C   UNL     1      -1.982   3.968  25.809  0.00  0.00    +0.040 A 
ATOM     25  C   UNL     1      -3.332   4.104  26.136  0.00  0.00    +0.142 A 
ENDBRANCH  19  20
ENDBRANCH  17   8
ENDBRANCH  10  17
BRANCH  12  18
ATOM     18  C   UNL     1       3.578   0.879  22.614  0.00  0.00    +0.190 C 
BRANCH  18   5
ATOM      5  O   UNL     1       4.457   0.848  23.728  0.00  0.00    -0.392 OA
ATOM     28  H   UNL     1       4.347   1.690  24.201  0.00  0.00    +0.210 HD
ENDBRANCH  18   5
ENDBRANCH  12  18
TORSDOF 7
ENDMDL
MODEL 7
REMARK VINA RESULT:      -0.8      4.226      7.251
REMARK  Name = 28961532
REMARK  7 active torsions:
REMARK  status: ('A' for Active; 'I' for Inactive)
REMARK    1  A    between atoms: O_4  and  C_11
REMARK    2  A    between atoms: O_5  and  C_18
REMARK    3  A    between atoms: N_7  and  C_9
REMARK    4  A    between atoms: N_8  and  C_17
REMARK    5  A    between atoms: C_10  and  C_17
REMARK    6  A    between atoms: C_12  and  C_18
REMARK    7  A    between atoms: C_19  and  C_20
REMARK                            x       y       z     vdW  Elec       q    Type
REMARK                         _______ _______ _______ _____ _____    ______ ____
ROOT
ATOM      3  O   UNL     1       1.535   0.937  23.197  0.00  0.00    -0.365 OA
ATOM      9  C   UNL     1      -0.373  -0.471  23.402  0.00  0.00    +0.118 C 
ATOM     10  C   UNL     1       0.143   0.963  23.583  0.00  0.00    +0.155 C 
ATOM     11  C   UNL     1       0.886  -1.310  23.558  0.00  0.00    +0.165 C 
ATOM     12  C   UNL     1       1.909  -0.414  22.868  0.00  0.00    +0.174 C 
ENDROOT
BRANCH   9   7
ATOM      7  N   UNL     1      -1.489  -0.864  24.249  0.00  0.00    -0.295 NA
ATOM     13  C   UNL     1      -1.553  -2.311  24.452  0.00  0.00    +0.085 C 
ATOM     14  C   UNL     1      -2.784  -0.505  23.669  0.00  0.00    +0.085 C 
ATOM     15  C   UNL     1      -2.956  -2.516  25.005  0.00  0.00    +0.017 C 
ATOM     16  C   UNL     1      -3.765  -1.331  24.487  0.00  0.00    +0.017 C 
ENDBRANCH   9   7
BRANCH  11   4
ATOM      4  O   UNL     1       1.228  -1.488  24.926  0.00  0.00    -0.388 OA
ATOM     26  H   UNL     1       0.425  -1.337  25.453  0.00  0.00    +0.210 HD
ENDBRANCH  11   4
BRANCH  10  17
ATOM     17  C   UNL     1       0.074   1.542  24.992  0.00  0.00    +0.137 C 
BRANCH  17   8
ATOM      6  O   UNL     1      -1.746   2.690  23.091  0.00  0.00    -0.270 OA
ATOM      8  N   UNL     1      -1.226   2.076  25.267  0.00  0.00    -0.309 N 
ATOM     19  C   UNL     1      -2.046   2.617  24.280  0.00  0.00    +0.244 C 
ATOM     27  H   UNL     1      -1.505   2.111  26.241  0.00  0.00    +0.149 HD
BRANCH  19  20
ATOM      1 CL   UNL     1      -6.632   1.775  26.562  0.00  0.00    -0.081 Cl
ATOM      2  F   UNL     1      -6.989   4.662  25.989  0.00  0.00    -0.204 F 
ATOM     20  C   UNL     1      -3.354   3.153  24.733  0.00  0.00    +0.038 A 
ATOM     21  C   UNL     1      -4.274   2.313  25.361  0.00  0.00    +0.036 A 
ATOM     22  C   UNL     1      -3.665   4.498  24.530  0.00  0.00    +0.016 A 
ATOM     23  C   UNL     1      -5.503   2.817  25.787  0.00  0.00    +0.077 A 
ATOM     24  C   UNL     1      -4.893   5.003  24.956  0.00  0.00    +0.040 A 
ATOM     25  C   UNL     1      -5.813   4.162  25.584  0.00  0.00    +0.142 A 
ENDBRANCH  19  20
ENDBRANCH  17   8
ENDBRANCH  10  17
BRANCH  12  18
ATOM     18  C   UNL     1       3.354  -0.646  23.266  0.00  0.00    +0.190 C 
BRANCH  18   5
ATOM      5  O   UNL     1       3.960   0.608  23.541  0.00  0.00    -0.392 OA
ATOM     28  H   UNL     1       4.641   0.453  24.218  0.00  0.00    +0.210 HD
ENDBRANCH  18   5
ENDBRANCH  12  18
TORSDOF 7
ENDMDL
MODEL 8
REMARK VINA RESULT:      -0.6      1.764      2.225
REMARK  Name = 28961532
REMARK  7 active torsions:
REMARK  status: ('A' for Active; 'I' for Inactive)
REMARK    1  A    between atoms: O_4  and  C_11
REMARK    2  A    between atoms: O_5  and  C_18
REMARK    3  A    between atoms: N_7  and  C_9
REMARK    4  A    between atoms: N_8  and  C_17
REMARK    5  A    between atoms: C_10  and  C_17
REMARK    6  A    between atoms: C_12  and  C_18
REMARK    7  A    between atoms: C_19  and  C_20
REMARK                            x       y       z     vdW  Elec       q    Type
REMARK                         _______ _______ _______ _____ _____    ______ ____
ROOT
ATOM      3  O   UNL     1      -4.175   3.597  25.724  0.00  0.00    -0.365 OA
ATOM      9  C   UNL     1      -3.885   1.236  25.629  0.00  0.00    +0.118 C 
ATOM     10  C   UNL     1      -3.189   2.587  25.413  0.00  0.00    +0.155 C 
ATOM     11  C   UNL     1      -5.353   1.568  25.411  0.00  0.00    +0.165 C 
ATOM     12  C   UNL     1      -5.424   2.955  26.041  0.00  0.00    +0.174 C 
ENDROOT
BRANCH   9   7
ATOM      7  N   UNL     1      -3.379   0.119  24.845  0.00  0.00    -0.295 NA
ATOM     13  C   UNL     1      -4.421  -0.853  24.521  0.00  0.00    +0.085 C 
ATOM     14  C   UNL     1      -2.355  -0.645  25.558  0.00  0.00    +0.085 C 
ATOM     15  C   UNL     1      -3.625  -2.069  24.068  0.00  0.00    +0.017 C 
ATOM     16  C   UNL     1      -2.269  -1.934  24.753  0.00  0.00    +0.017 C 
ENDBRANCH   9   7
BRANCH  11   4
ATOM      4  O   UNL     1      -5.673   1.636  24.028  0.00  0.00    -0.388 OA
ATOM     26  H   UNL     1      -5.261   2.440  23.670  0.00  0.00    +0.210 HD
ENDBRANCH  11   4
BRANCH  10  17
ATOM     17  C   UNL     1      -2.676   2.874  24.006  0.00  0.00    +0.137 C 
BRANCH  17   8
ATOM      6  O   UNL     1       0.085   3.265  24.692  0.00  0.00    -0.270 OA
ATOM      8  N   UNL     1      -1.581   2.014  23.671  0.00  0.00    -0.309 N 
ATOM     19  C   UNL     1      -0.266   2.281  24.046  0.00  0.00    +0.244 C 
ATOM     27  H   UNL     1      -1.793   1.220  23.077  0.00  0.00    +0.149 HD
BRANCH  19  20
ATOM      1 CL   UNL     1       4.726   1.203  23.115  0.00  0.00    -0.081 Cl
ATOM      2  F   UNL     1       3.593  -1.428  22.349  0.00  0.00    -0.204 F 
ATOM     20  C   UNL     1       0.757   1.304  23.598  0.00  0.00    +0.038 A 
ATOM     21  C   UNL     1       2.105   1.667  23.569  0.00  0.00    +0.036 A 
ATOM     22  C   UNL     1       0.373   0.022  23.205  0.00  0.00    +0.016 A 
ATOM     23  C   UNL     1       3.066   0.748  23.147  0.00  0.00    +0.077 A 
ATOM     24  C   UNL     1       1.334  -0.897  22.783  0.00  0.00    +0.040 A 
ATOM     25  C   UNL     1       2.681  -0.533  22.755  0.00  0.00    +0.142 A 
ENDBRANCH  19  20
ENDBRANCH  17   8
ENDBRANCH  10  17
BRANCH  12  18
ATOM     18  C   UNL     1      -6.571   3.829  25.568  0.00  0.00    +0.190 C 
BRANCH  18   5
ATOM      5  O   UNL     1      -6.339   5.161  25.998  0.00  0.00    -0.392 OA
ATOM     28  H   UNL     1      -6.415   5.731  25.214  0.00  0.00    +0.210 HD
ENDBRANCH  18   5
ENDBRANCH  12  18
TORSDOF 7
ENDMDL
MODEL 9
REMARK VINA RESULT:      -0.5      4.591      6.600
REMARK  Name = 28961532
REMARK  7 active torsions:
REMARK  status: ('A' for Active; 'I' for Inactive)
REMARK    1  A    between atoms: O_4  and  C_11
REMARK    2  A    between atoms: O_5  and  C_18
REMARK    3  A    between atoms: N_7  and  C_9
REMARK    4  A    between atoms: N_8  and  C_17
REMARK    5  A    between atoms: C_10  and  C_17
REMARK    6  A    between atoms: C_12  and  C_18
REMARK    7  A    between atoms: C_19  and  C_20
REMARK                            x       y       z     vdW  Elec       q    Type
REMARK                         _______ _______ _______ _____ _____    ______ ____
ROOT
ATOM      3  O   UNL     1       0.765   1.590  24.186  0.00  0.00    -0.365 OA
ATOM      9  C   UNL     1      -0.443  -0.379  24.760  0.00  0.00    +0.118 C 
ATOM     10  C   UNL     1       0.096   0.456  23.591  0.00  0.00    +0.155 C 
ATOM     11  C   UNL     1      -0.610   0.650  25.868  0.00  0.00    +0.165 C 
ATOM     12  C   UNL     1       0.607   1.534  25.617  0.00  0.00    +0.174 C 
ENDROOT
BRANCH   9   7
ATOM      7  N   UNL     1      -1.619  -1.189  24.483  0.00  0.00    -0.295 NA
ATOM     13  C   UNL     1      -2.536  -1.249  25.621  0.00  0.00    +0.085 C 
ATOM     14  C   UNL     1      -1.283  -2.583  24.194  0.00  0.00    +0.085 C 
ATOM     15  C   UNL     1      -3.447  -2.415  25.264  0.00  0.00    +0.017 C 
ATOM     16  C   UNL     1      -2.622  -3.293  24.329  0.00  0.00    +0.017 C 
ENDBRANCH   9   7
BRANCH  11   4
ATOM      4  O   UNL     1      -1.807   1.399  25.707  0.00  0.00    -0.388 OA
ATOM     26  H   UNL     1      -1.709   1.944  24.908  0.00  0.00    +0.210 HD
ENDBRANCH  11   4
BRANCH  10  17
ATOM     17  C   UNL     1      -0.934   1.003  22.609  0.00  0.00    +0.137 C 
BRANCH  17   8
ATOM      6  O   UNL     1      -3.710   0.349  22.945  0.00  0.00    -0.270 OA
ATOM      8  N   UNL     1      -1.923   1.789  23.284  0.00  0.00    -0.309 N 
ATOM     19  C   UNL     1      -3.254   1.394  23.400  0.00  0.00    +0.244 C 
ATOM     27  H   UNL     1      -1.627   2.699  23.621  0.00  0.00    +0.149 HD
BRANCH  19  20
ATOM      1 CL   UNL     1      -7.027   2.140  26.887  0.00  0.00    -0.081 Cl
ATOM      2  F   UNL     1      -6.672   4.965  26.064  0.00  0.00    -0.204 F 
ATOM     20  C   UNL     1      -4.160   2.335  24.106  0.00  0.00    +0.038 A 
ATOM     21  C   UNL     1      -5.064   1.855  25.055  0.00  0.00    +0.036 A 
ATOM     22  C   UNL     1      -4.107   3.700  23.823  0.00  0.00    +0.016 A 
ATOM     23  C   UNL     1      -5.915   2.739  25.718  0.00  0.00    +0.077 A 
ATOM     24  C   UNL     1      -4.958   4.584  24.486  0.00  0.00    +0.040 A 
ATOM     25  C   UNL     1      -5.862   4.103  25.434  0.00  0.00    +0.142 A 
ENDBRANCH  19  20
ENDBRANCH  17   8
ENDBRANCH  10  17
BRANCH  12  18
ATOM     18  C   UNL     1       0.513   2.945  26.167  0.00  0.00    +0.190 C 
BRANCH  18   5
ATOM      5  O   UNL     1      -0.404   3.685  25.376  0.00  0.00    -0.392 OA
ATOM     28  H   UNL     1      -0.181   3.514  24.445  0.00  0.00    +0.210 HD
ENDBRANCH  18   5
ENDBRANCH  12  18
TORSDOF 7
ENDMDL
MODEL 10
REMARK VINA RESULT:      -0.4      4.166      7.279
REMARK  Name = 28961532
REMARK  7 active torsions:
REMARK  status: ('A' for Active; 'I' for Inactive)
REMARK    1  A    between atoms: O_4  and  C_11
REMARK    2  A    between atoms: O_5  and  C_18
REMARK    3  A    between atoms: N_7  and  C_9
REMARK    4  A    between atoms: N_8  and  C_17
REMARK    5  A    between atoms: C_10  and  C_17
REMARK    6  A    between atoms: C_12  and  C_18
REMARK    7  A    between atoms: C_19  and  C_20
REMARK                            x       y       z     vdW  Elec       q    Type
REMARK                         _______ _______ _______ _____ _____    ______ ____
ROOT
ATOM      3  O   UNL     1       3.110   1.605  23.005  0.00  0.00    -0.365 OA
ATOM      9  C   UNL     1       1.426  -0.000  22.503  0.00  0.00    +0.118 C 
ATOM     10  C   UNL     1       1.682   1.399  23.078  0.00  0.00    +0.155 C 
ATOM     11  C   UNL     1       2.742  -0.720  22.753  0.00  0.00    +0.165 C 
ATOM     12  C   UNL     1       3.733   0.410  22.497  0.00  0.00    +0.174 C 
ENDROOT
BRANCH   9   7
ATOM      7  N   UNL     1       0.240  -0.689  22.990  0.00  0.00    -0.295 NA
ATOM     13  C   UNL     1      -0.954   0.154  22.943  0.00  0.00    +0.085 C 
ATOM     14  C   UNL     1       0.364  -1.093  24.391  0.00  0.00    +0.085 C 
ATOM     15  C   UNL     1      -1.937  -0.597  23.829  0.00  0.00    +0.017 C 
ATOM     16  C   UNL     1      -1.071  -1.413  24.782  0.00  0.00    +0.017 C 
ENDBRANCH   9   7
BRANCH  11   4
ATOM      4  O   UNL     1       2.842  -1.170  24.098  0.00  0.00    -0.388 OA
ATOM     26  H   UNL     1       3.115  -2.103  24.076  0.00  0.00    +0.210 HD
ENDBRANCH  11   4
BRANCH  10  17
ATOM     17  C   UNL     1       1.264   1.630  24.526  0.00  0.00    +0.137 C 
BRANCH  17   8
ATOM      6  O   UNL     1      -0.123   2.455  26.900  0.00  0.00    -0.270 OA
ATOM      8  N   UNL     1      -0.073   2.137  24.603  0.00  0.00    -0.309 N 
ATOM     19  C   UNL     1      -0.671   2.515  25.803  0.00  0.00    +0.244 C 
ATOM     27  H   UNL     1      -0.605   2.145  23.739  0.00  0.00    +0.149 HD
BRANCH  19  20
ATOM      1 CL   UNL     1      -5.645   1.500  24.718  0.00  0.00    -0.081 Cl
ATOM      2  F   UNL     1      -5.970   4.347  25.479  0.00  0.00    -0.204 F 
ATOM     20  C   UNL     1      -2.073   2.996  25.715  0.00  0.00    +0.038 A 
ATOM     21  C   UNL     1      -3.085   2.126  25.305  0.00  0.00    +0.036 A 
ATOM     22  C   UNL     1      -2.380   4.316  26.043  0.00  0.00    +0.016 A 
ATOM     23  C   UNL     1      -4.402   2.578  25.224  0.00  0.00    +0.077 A 
ATOM     24  C   UNL     1      -3.697   4.768  25.961  0.00  0.00    +0.040 A 
ATOM     25  C   UNL     1      -4.709   3.899  25.551  0.00  0.00    +0.142 A 
ENDBRANCH  19  20
ENDBRANCH  17   8
ENDBRANCH  10  17
BRANCH  12  18
ATOM     18  C   UNL     1       5.096   0.242  23.143  0.00  0.00    +0.190 C 
BRANCH  18   5
ATOM      5  O   UNL     1       4.992   0.562  24.521  0.00  0.00    -0.392 OA
ATOM     28  H   UNL     1       4.166   1.061  24.637  0.00  0.00    +0.210 HD
ENDBRANCH  18   5
ENDBRANCH  12  18
TORSDOF 7
ENDMDL
