MODEL 1
REMARK VINA RESULT:      -2.1      0.000      0.000
REMARK  Name = 45784418
REMARK  10 active torsions:
REMARK  status: ('A' for Active; 'I' for Inactive)
REMARK    1  A    between atoms: O_2  and  C_11
REMARK    2  A    between atoms: N_5  and  C_15
REMARK    3  A    between atoms: N_6  and  C_25
REMARK    4  A    between atoms: C_8  and  C_18
REMARK    5  A    between atoms: C_10  and  C_20
REMARK    6  A    between atoms: C_14  and  C_19
REMARK    7  A    between atoms: C_19  and  C_21
REMARK    8  A    between atoms: C_19  and  C_22
REMARK    9  A    between atoms: C_23  and  C_24
REMARK   10  A    between atoms: C_25  and  C_27
REMARK                            x       y       z     vdW  Elec       q    Type
REMARK                         _______ _______ _______ _____ _____    ______ ____
ROOT
ATOM      8  C   UNL     1      -2.952  -1.334  24.849  0.00  0.00    -0.027 C 
ATOM      9  C   UNL     1      -2.568   0.011  24.148  0.00  0.00    +0.028 C 
ATOM     10  C   UNL     1      -1.022   0.273  24.251  0.00  0.00    +0.012 C 
ATOM     11  C   UNL     1      -3.477   1.178  24.631  0.00  0.00    +0.122 C 
ATOM     12  C   UNL     1      -4.457  -1.618  24.632  0.00  0.00    +0.007 C 
ATOM     13  C   UNL     1      -2.158  -2.489  24.194  0.00  0.00    +0.009 C 
ATOM     14  C   UNL     1      -4.982   0.848  24.509  0.00  0.00    +0.029 C 
ATOM     15  C   UNL     1      -0.232  -0.927  23.657  0.00  0.00    +0.076 C 
ATOM     16  C   UNL     1      -5.352  -0.494  25.139  0.00  0.00    +0.007 C 
ATOM     17  C   UNL     1      -0.650  -2.277  24.240  0.00  0.00    +0.023 C 
ATOM     18  C   UNL     1      -2.663  -1.316  26.371  0.00  0.00    +0.011 C 
ATOM     20  C   UNL     1      -0.570   1.569  23.557  0.00  0.00    +0.010 C 
ENDROOT
BRANCH  15   5
ATOM      4  O   UNL     1       1.689  -0.232  21.640  0.00  0.00    -0.269 OA
ATOM      5  N   UNL     1       1.196  -0.772  23.841  0.00  0.00    -0.307 N 
ATOM     23  C   UNL     1       2.043  -0.433  22.799  0.00  0.00    +0.263 C 
ATOM     34  H   UNL     1       1.591  -0.976  24.755  0.00  0.00    +0.149 HD
BRANCH  23  24
ATOM      7  N   UNL     1       4.027  -1.443  23.707  0.00  0.00    -0.250 NA
ATOM     24  C   UNL     1       3.484  -0.339  23.144  0.00  0.00    +0.125 A 
ATOM     26  C   UNL     1       4.189   0.828  22.891  0.00  0.00    +0.033 A 
ATOM     28  C   UNL     1       5.535   0.863  23.233  0.00  0.00    +0.004 A 
ATOM     29  C   UNL     1       5.339  -1.371  24.026  0.00  0.00    +0.111 A 
ATOM     31  C   UNL     1       6.129  -0.254  23.812  0.00  0.00    +0.020 A 
ENDBRANCH  23  24
ENDBRANCH  15   5
BRANCH  11   2
ATOM      2  O   UNL     1      -3.244   2.331  23.821  0.00  0.00    -0.391 OA
ATOM     35  H   UNL     1      -2.396   2.209  23.360  0.00  0.00    +0.210 HD
ENDBRANCH  11   2
BRANCH  14  19
ATOM     19  C   UNL     1      -5.858   1.954  25.109  0.00  0.00    +0.077 C 
ATOM     21  C   UNL     1      -7.110   2.151  24.260  0.00  0.00    +0.017 C 
BRANCH  19  22
ATOM      3  O   UNL     1      -5.044   4.102  24.341  0.00  0.00    -0.276 OA
ATOM      6  N   UNL     1      -4.360   3.336  26.420  0.00  0.00    -0.310 N 
ATOM     22  C   UNL     1      -5.057   3.247  25.224  0.00  0.00    +0.216 C 
ATOM     36  H   UNL     1      -4.409   2.568  27.085  0.00  0.00    +0.149 HD
BRANCH   6  25
ATOM     25  C   UNL     1      -3.529   4.467  26.759  0.00  0.00    +0.146 C 
BRANCH  25  27
ATOM      1  S   UNL     1      -1.090   3.192  26.388  0.00  0.00    -0.100 S 
ATOM     27  C   UNL     1      -2.214   4.434  26.034  0.00  0.00    +0.007 A 
ATOM     30  C   UNL     1      -1.743   5.298  25.071  0.00  0.00    +0.013 A 
ATOM     32  C   UNL     1      -0.442   4.936  24.617  0.00  0.00    +0.008 A 
ATOM     33  C   UNL     1       0.032   3.809  25.251  0.00  0.00    +0.045 A 
ENDBRANCH  25  27
ENDBRANCH   6  25
ENDBRANCH  19  22
ENDBRANCH  14  19
TORSDOF 7
ENDMDL
