MODEL 1
REMARK VINA RESULT:      -3.8      0.000      0.000
REMARK  Name = 40533382
REMARK  5 active torsions:
REMARK  status: ('A' for Active; 'I' for Inactive)
REMARK    1  A    between atoms: N_3  and  C_10
REMARK    2  A    between atoms: N_4  and  C_11
REMARK    3  A    between atoms: N_4  and  C_14
REMARK    4  A    between atoms: C_14  and  C_17
REMARK    5  A    between atoms: C_16  and  C_18
REMARK                            x       y       z     vdW  Elec       q    Type
REMARK                         _______ _______ _______ _____ _____    ______ ____
ROOT
ATOM      1  O   UNL     1      14.078  -9.151  29.494  0.00  0.00    -0.370 OA
ATOM      2  O   UNL     1      16.004  -7.773  31.496  0.00  0.00    -0.370 OA
ATOM      8  C   UNL     1      14.610  -7.572  31.191  0.00  0.00    +0.175 C 
ATOM      9  C   UNL     1      14.452  -7.778  29.697  0.00  0.00    +0.168 C 
ATOM     10  C   UNL     1      13.778  -8.678  31.817  0.00  0.00    +0.166 C 
ATOM     11  C   UNL     1      15.834  -7.523  29.138  0.00  0.00    +0.111 C 
ATOM     12  C   UNL     1      13.881  -9.782  30.768  0.00  0.00    +0.189 C 
ATOM     13  C   UNL     1      16.725  -7.997  30.276  0.00  0.00    +0.181 C 
ENDROOT
BRANCH  10   3
ATOM      3  N   UNL     1      12.373  -8.201  32.133  0.00  0.00    -0.243 N 
ATOM      5  N   UNL     1      12.169  -7.012  32.724  0.00  0.00    -0.065 NA
ATOM      6  N   UNL     1      10.857  -6.866  32.873  0.00  0.00    -0.128 NA
ATOM     15  C   UNL     1      11.200  -8.847  31.888  0.00  0.00    +0.140 A 
ATOM     16  C   UNL     1      10.250  -7.982  32.366  0.00  0.00    +0.131 A 
BRANCH  16  18
ATOM      7  N   UNL     1       8.083  -7.198  32.845  0.00  0.00    -0.253 NA
ATOM     18  C   UNL     1       8.839  -8.200  32.344  0.00  0.00    +0.092 A 
ATOM     23  C   UNL     1       8.323  -9.380  31.831  0.00  0.00    +0.030 A 
ATOM     25  C   UNL     1       6.942  -9.541  31.834  0.00  0.00    +0.004 A 
ATOM     26  C   UNL     1       6.745  -7.390  32.831  0.00  0.00    +0.111 A 
ATOM     27  C   UNL     1       6.130  -8.532  32.342  0.00  0.00    +0.020 A 
ENDBRANCH  16  18
ENDBRANCH  10   3
BRANCH  11   4
ATOM      4  N   UNL     1      16.041  -6.094  28.913  0.00  0.00    -0.305 NA
ATOM     28  H   UNL     1      15.202  -5.582  29.189  0.00  0.00    +0.123 HD
BRANCH   4  14
ATOM     14  C   UNL     1      17.159  -5.604  29.704  0.00  0.00    +0.116 C 
BRANCH  14  17
ATOM     17  C   UNL     1      16.858  -4.269  30.334  0.00  0.00    -0.034 A 
ATOM     19  C   UNL     1      16.373  -4.209  31.640  0.00  0.00    +0.005 A 
ATOM     20  C   UNL     1      17.063  -3.094  29.612  0.00  0.00    +0.005 A 
ATOM     21  C   UNL     1      16.094  -2.974  32.224  0.00  0.00    +0.000 A 
ATOM     22  C   UNL     1      16.784  -1.859  30.196  0.00  0.00    +0.000 A 
ATOM     24  C   UNL     1      16.300  -1.799  31.502  0.00  0.00    +0.000 A 
ENDBRANCH  14  17
ENDBRANCH   4  14
ENDBRANCH  11   4
TORSDOF 5
ENDMDL
MODEL 2
REMARK VINA RESULT:      -3.8      2.533      3.363
REMARK  Name = 40533382
REMARK  5 active torsions:
REMARK  status: ('A' for Active; 'I' for Inactive)
REMARK    1  A    between atoms: N_3  and  C_10
REMARK    2  A    between atoms: N_4  and  C_11
REMARK    3  A    between atoms: N_4  and  C_14
REMARK    4  A    between atoms: C_14  and  C_17
REMARK    5  A    between atoms: C_16  and  C_18
REMARK                            x       y       z     vdW  Elec       q    Type
REMARK                         _______ _______ _______ _____ _____    ______ ____
ROOT
ATOM      1  O   UNL     1      13.898 -10.390  30.486  0.00  0.00    -0.370 OA
ATOM      2  O   UNL     1      15.759  -8.845  32.426  0.00  0.00    -0.370 OA
ATOM      8  C   UNL     1      14.465  -8.541  31.869  0.00  0.00    +0.175 C 
ATOM      9  C   UNL     1      14.463  -9.069  30.448  0.00  0.00    +0.168 C 
ATOM     10  C   UNL     1      13.394  -9.350  32.578  0.00  0.00    +0.166 C 
ATOM     11  C   UNL     1      15.927  -9.134  30.072  0.00  0.00    +0.111 C 
ATOM     12  C   UNL     1      13.445 -10.674  31.818  0.00  0.00    +0.189 C 
ATOM     13  C   UNL     1      16.580  -9.440  31.411  0.00  0.00    +0.181 C 
ENDROOT
BRANCH  10   3
ATOM      3  N   UNL     1      12.057  -8.634  32.560  0.00  0.00    -0.243 N 
ATOM      5  N   UNL     1      11.993  -7.298  32.681  0.00  0.00    -0.065 NA
ATOM      6  N   UNL     1      10.710  -6.957  32.631  0.00  0.00    -0.128 NA
ATOM     15  C   UNL     1      10.819  -9.184  32.428  0.00  0.00    +0.140 A 
ATOM     16  C   UNL     1       9.978  -8.102  32.476  0.00  0.00    +0.131 A 
BRANCH  16  18
ATOM      7  N   UNL     1       7.897  -7.077  32.873  0.00  0.00    -0.253 NA
ATOM     18  C   UNL     1       8.554  -8.150  32.379  0.00  0.00    +0.092 A 
ATOM     23  C   UNL     1       7.929  -9.247  31.808  0.00  0.00    +0.030 A 
ATOM     25  C   UNL     1       6.541  -9.242  31.740  0.00  0.00    +0.004 A 
ATOM     26  C   UNL     1       6.548  -7.108  32.790  0.00  0.00    +0.111 A 
ATOM     27  C   UNL     1       5.829  -8.156  32.238  0.00  0.00    +0.020 A 
ENDBRANCH  16  18
ENDBRANCH  10   3
BRANCH  11   4
ATOM      4  N   UNL     1      16.389  -7.838  29.583  0.00  0.00    -0.305 NA
ATOM     28  H   UNL     1      17.290  -7.954  29.116  0.00  0.00    +0.123 HD
BRANCH   4  14
ATOM     14  C   UNL     1      15.445  -7.281  28.627  0.00  0.00    +0.116 C 
BRANCH  14  17
ATOM     17  C   UNL     1      16.048  -7.153  27.253  0.00  0.00    -0.034 A 
ATOM     19  C   UNL     1      16.536  -5.921  26.818  0.00  0.00    +0.005 A 
ATOM     20  C   UNL     1      16.118  -8.266  26.416  0.00  0.00    +0.005 A 
ATOM     21  C   UNL     1      17.094  -5.802  25.546  0.00  0.00    +0.000 A 
ATOM     22  C   UNL     1      16.677  -8.147  25.143  0.00  0.00    +0.000 A 
ATOM     24  C   UNL     1      17.165  -6.915  24.708  0.00  0.00    +0.000 A 
ENDBRANCH  14  17
ENDBRANCH   4  14
ENDBRANCH  11   4
TORSDOF 5
ENDMDL
MODEL 3
REMARK VINA RESULT:      -3.2     16.273     20.045
REMARK  Name = 40533382
REMARK  5 active torsions:
REMARK  status: ('A' for Active; 'I' for Inactive)
REMARK    1  A    between atoms: N_3  and  C_10
REMARK    2  A    between atoms: N_4  and  C_11
REMARK    3  A    between atoms: N_4  and  C_14
REMARK    4  A    between atoms: C_14  and  C_17
REMARK    5  A    between atoms: C_16  and  C_18
REMARK                            x       y       z     vdW  Elec       q    Type
REMARK                         _______ _______ _______ _____ _____    ______ ____
ROOT
ATOM      1  O   UNL     1      -3.918   3.587  23.474  0.00  0.00    -0.370 OA
ATOM      2  O   UNL     1      -4.533   3.516  26.512  0.00  0.00    -0.370 OA
ATOM      8  C   UNL     1      -3.549   2.844  25.702  0.00  0.00    +0.175 C 
ATOM      9  C   UNL     1      -4.217   2.514  24.382  0.00  0.00    +0.168 C 
ATOM     10  C   UNL     1      -2.435   3.808  25.334  0.00  0.00    +0.166 C 
ATOM     11  C   UNL     1      -5.694   2.497  24.706  0.00  0.00    +0.111 C 
ATOM     12  C   UNL     1      -3.015   4.506  24.106  0.00  0.00    +0.189 C 
ATOM     13  C   UNL     1      -5.785   3.537  25.811  0.00  0.00    +0.181 C 
ENDROOT
BRANCH  10   3
ATOM      3  N   UNL     1      -1.122   3.079  25.117  0.00  0.00    -0.243 N 
ATOM      5  N   UNL     1      -0.213   2.997  26.102  0.00  0.00    -0.065 NA
ATOM      6  N   UNL     1       0.821   2.310  25.627  0.00  0.00    -0.128 NA
ATOM     15  C   UNL     1      -0.697   2.448  23.988  0.00  0.00    +0.140 A 
ATOM     16  C   UNL     1       0.539   1.967  24.334  0.00  0.00    +0.131 A 
BRANCH  16  18
ATOM      7  N   UNL     1       2.700   1.619  23.470  0.00  0.00    -0.253 NA
ATOM     18  C   UNL     1       1.409   1.220  23.483  0.00  0.00    +0.092 A 
ATOM     23  C   UNL     1       0.916   0.161  22.736  0.00  0.00    +0.030 A 
ATOM     25  C   UNL     1       1.806  -0.532  21.924  0.00  0.00    +0.004 A 
ATOM     26  C   UNL     1       3.536   0.922  22.668  0.00  0.00    +0.111 A 
ATOM     27  C   UNL     1       3.143  -0.151  21.882  0.00  0.00    +0.020 A 
ENDBRANCH  16  18
ENDBRANCH  10   3
BRANCH  11   4
ATOM      4  N   UNL     1      -6.091   1.190  25.225  0.00  0.00    -0.305 NA
ATOM     28  H   UNL     1      -7.085   1.205  25.456  0.00  0.00    +0.123 HD
BRANCH   4  14
ATOM     14  C   UNL     1      -5.865   0.151  24.233  0.00  0.00    +0.116 C 
BRANCH  14  17
ATOM     17  C   UNL     1      -4.693  -0.724  24.594  0.00  0.00    -0.034 A 
ATOM     19  C   UNL     1      -4.379  -1.829  23.803  0.00  0.00    +0.005 A 
ATOM     20  C   UNL     1      -3.922  -0.429  25.718  0.00  0.00    +0.005 A 
ATOM     21  C   UNL     1      -3.294  -2.639  24.136  0.00  0.00    +0.000 A 
ATOM     22  C   UNL     1      -2.837  -1.239  26.051  0.00  0.00    +0.000 A 
ATOM     24  C   UNL     1      -2.523  -2.344  25.260  0.00  0.00    +0.000 A 
ENDBRANCH  14  17
ENDBRANCH   4  14
ENDBRANCH  11   4
TORSDOF 5
ENDMDL
MODEL 4
REMARK VINA RESULT:      -2.7     15.284     19.343
REMARK  Name = 40533382
REMARK  5 active torsions:
REMARK  status: ('A' for Active; 'I' for Inactive)
REMARK    1  A    between atoms: N_3  and  C_10
REMARK    2  A    between atoms: N_4  and  C_11
REMARK    3  A    between atoms: N_4  and  C_14
REMARK    4  A    between atoms: C_14  and  C_17
REMARK    5  A    between atoms: C_16  and  C_18
REMARK                            x       y       z     vdW  Elec       q    Type
REMARK                         _______ _______ _______ _____ _____    ______ ____
ROOT
ATOM      1  O   UNL     1      -3.229   2.847  22.825  0.00  0.00    -0.370 OA
ATOM      2  O   UNL     1      -3.059   3.364  25.878  0.00  0.00    -0.370 OA
ATOM      8  C   UNL     1      -2.493   2.345  25.030  0.00  0.00    +0.175 C 
ATOM      9  C   UNL     1      -3.530   2.030  23.969  0.00  0.00    +0.168 C 
ATOM     10  C   UNL     1      -1.316   2.911  24.255  0.00  0.00    +0.166 C 
ATOM     11  C   UNL     1      -4.841   2.459  24.590  0.00  0.00    +0.111 C 
ATOM     12  C   UNL     1      -2.009   3.564  23.062  0.00  0.00    +0.189 C 
ATOM     13  C   UNL     1      -4.408   3.627  25.462  0.00  0.00    +0.181 C 
ENDROOT
BRANCH  10   3
ATOM      3  N   UNL     1      -0.306   1.831  23.918  0.00  0.00    -0.243 N 
ATOM      5  N   UNL     1      -0.710   0.622  23.496  0.00  0.00    -0.065 NA
ATOM      6  N   UNL     1       0.381  -0.105  23.280  0.00  0.00    -0.128 NA
ATOM     15  C   UNL     1       1.051   1.912  23.983  0.00  0.00    +0.140 A 
ATOM     16  C   UNL     1       1.468   0.671  23.574  0.00  0.00    +0.131 A 
BRANCH  16  18
ATOM      7  N   UNL     1       3.711   1.191  23.089  0.00  0.00    -0.253 NA
ATOM     18  C   UNL     1       2.825   0.242  23.467  0.00  0.00    +0.092 A 
ATOM     23  C   UNL     1       3.167  -1.072  23.742  0.00  0.00    +0.030 A 
ATOM     25  C   UNL     1       4.503  -1.436  23.622  0.00  0.00    +0.004 A 
ATOM     26  C   UNL     1       5.001   0.800  22.982  0.00  0.00    +0.111 A 
ATOM     27  C   UNL     1       5.445  -0.488  23.235  0.00  0.00    +0.020 A 
ENDBRANCH  16  18
ENDBRANCH  10   3
BRANCH  11   4
ATOM      4  N   UNL     1      -5.384   1.393  25.428  0.00  0.00    -0.305 NA
ATOM     28  H   UNL     1      -6.275   1.695  25.825  0.00  0.00    +0.123 HD
BRANCH   4  14
ATOM     14  C   UNL     1      -5.615   0.188  24.646  0.00  0.00    +0.116 C 
BRANCH  14  17
ATOM     17  C   UNL     1      -4.475  -0.788  24.770  0.00  0.00    -0.034 A 
ATOM     19  C   UNL     1      -4.314  -1.795  23.820  0.00  0.00    +0.005 A 
ATOM     20  C   UNL     1      -3.580  -0.684  25.835  0.00  0.00    +0.005 A 
ATOM     21  C   UNL     1      -3.258  -2.700  23.934  0.00  0.00    +0.000 A 
ATOM     22  C   UNL     1      -2.525  -1.588  25.950  0.00  0.00    +0.000 A 
ATOM     24  C   UNL     1      -2.363  -2.596  24.999  0.00  0.00    +0.000 A 
ENDBRANCH  14  17
ENDBRANCH   4  14
ENDBRANCH  11   4
TORSDOF 5
ENDMDL
MODEL 5
REMARK VINA RESULT:      -1.8     15.671     19.159
REMARK  Name = 40533382
REMARK  5 active torsions:
REMARK  status: ('A' for Active; 'I' for Inactive)
REMARK    1  A    between atoms: N_3  and  C_10
REMARK    2  A    between atoms: N_4  and  C_11
REMARK    3  A    between atoms: N_4  and  C_14
REMARK    4  A    between atoms: C_14  and  C_17
REMARK    5  A    between atoms: C_16  and  C_18
REMARK                            x       y       z     vdW  Elec       q    Type
REMARK                         _______ _______ _______ _____ _____    ______ ____
ROOT
ATOM      1  O   UNL     1      -4.466   0.154  25.549  0.00  0.00    -0.370 OA
ATOM      2  O   UNL     1      -4.544   2.328  23.341  0.00  0.00    -0.370 OA
ATOM      8  C   UNL     1      -3.461   1.726  24.075  0.00  0.00    +0.175 C 
ATOM      9  C   UNL     1      -3.961   1.498  25.488  0.00  0.00    +0.168 C 
ATOM     10  C   UNL     1      -3.184   0.332  23.540  0.00  0.00    +0.166 C 
ATOM     11  C   UNL     1      -5.091   2.491  25.648  0.00  0.00    +0.111 C 
ATOM     12  C   UNL     1      -4.209  -0.506  24.301  0.00  0.00    +0.189 C 
ATOM     13  C   UNL     1      -5.641   2.569  24.233  0.00  0.00    +0.181 C 
ENDROOT
BRANCH  10   3
ATOM      3  N   UNL     1      -1.733  -0.061  23.744  0.00  0.00    -0.243 N 
ATOM      5  N   UNL     1      -1.407  -1.086  24.548  0.00  0.00    -0.065 NA
ATOM      6  N   UNL     1      -0.083  -1.194  24.531  0.00  0.00    -0.128 NA
ATOM     15  C   UNL     1      -0.630   0.512  23.190  0.00  0.00    +0.140 A 
ATOM     16  C   UNL     1       0.408  -0.223  23.703  0.00  0.00    +0.131 A 
BRANCH  16  18
ATOM      7  N   UNL     1       2.590  -1.094  23.584  0.00  0.00    -0.253 NA
ATOM     18  C   UNL     1       1.792  -0.015  23.424  0.00  0.00    +0.092 A 
ATOM     23  C   UNL     1       2.244   1.230  23.017  0.00  0.00    +0.030 A 
ATOM     25  C   UNL     1       3.602   1.378  22.759  0.00  0.00    +0.004 A 
ATOM     26  C   UNL     1       3.905  -0.913  23.324  0.00  0.00    +0.111 A 
ATOM     27  C   UNL     1       4.456   0.290  22.913  0.00  0.00    +0.020 A 
ENDBRANCH  16  18
ENDBRANCH  10   3
BRANCH  11   4
ATOM      4  N   UNL     1      -4.573   3.797  26.049  0.00  0.00    -0.305 NA
ATOM     28  H   UNL     1      -5.283   4.290  26.593  0.00  0.00    +0.123 HD
BRANCH   4  14
ATOM     14  C   UNL     1      -3.383   3.650  26.871  0.00  0.00    +0.116 C 
BRANCH  14  17
ATOM     17  C   UNL     1      -2.122   3.858  26.075  0.00  0.00    -0.034 A 
ATOM     19  C   UNL     1      -1.090   2.923  26.148  0.00  0.00    +0.005 A 
ATOM     20  C   UNL     1      -1.986   4.985  25.265  0.00  0.00    +0.005 A 
ATOM     21  C   UNL     1       0.078   3.115  25.410  0.00  0.00    +0.000 A 
ATOM     22  C   UNL     1      -0.817   5.177  24.528  0.00  0.00    +0.000 A 
ATOM     24  C   UNL     1       0.214   4.242  24.600  0.00  0.00    +0.000 A 
ENDBRANCH  14  17
ENDBRANCH   4  14
ENDBRANCH  11   4
TORSDOF 5
ENDMDL
MODEL 6
REMARK VINA RESULT:      -1.7     15.112     18.759
REMARK  Name = 40533382
REMARK  5 active torsions:
REMARK  status: ('A' for Active; 'I' for Inactive)
REMARK    1  A    between atoms: N_3  and  C_10
REMARK    2  A    between atoms: N_4  and  C_11
REMARK    3  A    between atoms: N_4  and  C_14
REMARK    4  A    between atoms: C_14  and  C_17
REMARK    5  A    between atoms: C_16  and  C_18
REMARK                            x       y       z     vdW  Elec       q    Type
REMARK                         _______ _______ _______ _____ _____    ______ ____
ROOT
ATOM      1  O   UNL     1      -2.619  -0.657  26.151  0.00  0.00    -0.370 OA
ATOM      2  O   UNL     1      -4.075  -1.216  23.471  0.00  0.00    -0.370 OA
ATOM      8  C   UNL     1      -2.903  -0.444  23.800  0.00  0.00    +0.175 C 
ATOM      9  C   UNL     1      -3.169   0.207  25.143  0.00  0.00    +0.168 C 
ATOM     10  C   UNL     1      -1.726  -1.370  24.052  0.00  0.00    +0.166 C 
ATOM     11  C   UNL     1      -4.677   0.243  25.249  0.00  0.00    +0.111 C 
ATOM     12  C   UNL     1      -1.929  -1.745  25.518  0.00  0.00    +0.189 C 
ATOM     13  C   UNL     1      -5.075  -1.007  24.479  0.00  0.00    +0.181 C 
ENDROOT
BRANCH  10   3
ATOM      3  N   UNL     1      -0.410  -0.692  23.724  0.00  0.00    -0.243 N 
ATOM      5  N   UNL     1      -0.387   0.541  23.192  0.00  0.00    -0.065 NA
ATOM      6  N   UNL     1       0.887   0.871  23.015  0.00  0.00    -0.128 NA
ATOM     15  C   UNL     1       0.847  -1.184  23.903  0.00  0.00    +0.140 A 
ATOM     16  C   UNL     1       1.656  -0.175  23.446  0.00  0.00    +0.131 A 
BRANCH  16  18
ATOM      7  N   UNL     1       3.656  -1.363  23.806  0.00  0.00    -0.253 NA
ATOM     18  C   UNL     1       3.083  -0.201  23.419  0.00  0.00    +0.092 A 
ATOM     23  C   UNL     1       3.795   0.918  23.016  0.00  0.00    +0.030 A 
ATOM     25  C   UNL     1       5.183   0.838  23.009  0.00  0.00    +0.004 A 
ATOM     26  C   UNL     1       5.007  -1.402  23.787  0.00  0.00    +0.111 A 
ATOM     27  C   UNL     1       5.809  -0.340  23.401  0.00  0.00    +0.020 A 
ENDBRANCH  16  18
ENDBRANCH  10   3
BRANCH  11   4
ATOM      4  N   UNL     1      -5.211   1.425  24.577  0.00  0.00    -0.305 NA
ATOM     28  H   UNL     1      -6.203   1.285  24.381  0.00  0.00    +0.123 HD
BRANCH   4  14
ATOM     14  C   UNL     1      -5.072   2.603  25.419  0.00  0.00    +0.116 C 
BRANCH  14  17
ATOM     17  C   UNL     1      -3.740   3.278  25.223  0.00  0.00    -0.034 A 
ATOM     19  C   UNL     1      -3.168   4.007  26.266  0.00  0.00    +0.005 A 
ATOM     20  C   UNL     1      -3.078   3.174  24.000  0.00  0.00    +0.005 A 
ATOM     21  C   UNL     1      -1.935   4.632  26.085  0.00  0.00    +0.000 A 
ATOM     22  C   UNL     1      -1.844   3.799  23.820  0.00  0.00    +0.000 A 
ATOM     24  C   UNL     1      -1.273   4.528  24.862  0.00  0.00    +0.000 A 
ENDBRANCH  14  17
ENDBRANCH   4  14
ENDBRANCH  11   4
TORSDOF 5
ENDMDL
