MODEL 1
REMARK VINA RESULT:      -1.6      0.000      0.000
REMARK  Name = 45784245
REMARK  5 active torsions:
REMARK  status: ('A' for Active; 'I' for Inactive)
REMARK    1  A    between atoms: O_1  and  C_24
REMARK    2  A    between atoms: N_3  and  C_11
REMARK    3  A    between atoms: C_6  and  C_10
REMARK    4  A    between atoms: C_11  and  C_12
REMARK    5  A    between atoms: C_23  and  C_24
REMARK                            x       y       z     vdW  Elec       q    Type
REMARK                         _______ _______ _______ _____ _____    ______ ____
ROOT
ATOM      3  N   UNL     1       0.373   2.934  25.101  0.00  0.00    -0.297 NA
ATOM      6  C   UNL     1       0.068   0.613  24.975  0.00  0.00    +0.070 C 
ATOM      7  C   UNL     1       0.831   1.100  23.732  0.00  0.00    +0.028 C 
ATOM      8  C   UNL     1      -0.526   1.887  25.591  0.00  0.00    +0.096 C 
ATOM      9  C   UNL     1       0.605   2.606  23.695  0.00  0.00    +0.085 C 
ENDROOT
BRANCH   6  10
ATOM      4  N   UNL     1      -2.262  -0.121  24.401  0.00  0.00    -0.342 N 
ATOM      5  N   UNL     1      -0.789  -1.752  24.731  0.00  0.00    -0.232 NA
ATOM     10  C   UNL     1      -0.971  -0.451  24.707  0.00  0.00    +0.113 A 
ATOM     13  C   UNL     1      -2.959  -1.287  24.215  0.00  0.00    +0.066 A 
ATOM     14  C   UNL     1      -2.018  -2.290  24.426  0.00  0.00    +0.089 A 
ATOM     17  C   UNL     1      -4.292  -1.542  23.889  0.00  0.00    +0.028 A 
ATOM     18  C   UNL     1      -2.412  -3.634  24.310  0.00  0.00    +0.030 A 
ATOM     21  C   UNL     1      -4.667  -2.885  23.778  0.00  0.00    +0.002 A 
ATOM     22  C   UNL     1      -3.745  -3.914  23.984  0.00  0.00    +0.002 A 
ATOM     25  H   UNL     1      -2.639   0.814  24.324  0.00  0.00    +0.167 HD
ENDBRANCH   6  10
BRANCH   3  11
ATOM     11  C   UNL     1      -0.183   4.268  25.274  0.00  0.00    +0.119 C 
BRANCH  11  12
ATOM     12  C   UNL     1      -1.687   4.244  25.350  0.00  0.00    -0.033 A 
ATOM     15  C   UNL     1      -2.320   4.223  26.593  0.00  0.00    +0.006 A 
ATOM     16  C   UNL     1      -2.444   4.241  24.180  0.00  0.00    +0.006 A 
ATOM     19  C   UNL     1      -3.713   4.201  26.665  0.00  0.00    +0.015 A 
ATOM     20  C   UNL     1      -3.838   4.219  24.252  0.00  0.00    +0.015 A 
ATOM     23  C   UNL     1      -4.472   4.198  25.495  0.00  0.00    +0.059 A 
BRANCH  23  24
ATOM      2  O   UNL     1      -6.654   5.171  25.625  0.00  0.00    -0.245 OA
ATOM     24  C   UNL     1      -5.924   4.175  25.568  0.00  0.00    +0.337 C 
BRANCH  24   1
ATOM      1  O   UNL     1      -6.425   2.910  25.567  0.00  0.00    -0.477 OA
ATOM     26  H   UNL     1      -5.723   2.239  25.430  0.00  0.00    +0.295 HD
ENDBRANCH  24   1
ENDBRANCH  23  24
ENDBRANCH  11  12
ENDBRANCH   3  11
TORSDOF 5
ENDMDL
MODEL 2
REMARK VINA RESULT:      -1.1      2.750      5.283
REMARK  Name = 45784245
REMARK  5 active torsions:
REMARK  status: ('A' for Active; 'I' for Inactive)
REMARK    1  A    between atoms: O_1  and  C_24
REMARK    2  A    between atoms: N_3  and  C_11
REMARK    3  A    between atoms: C_6  and  C_10
REMARK    4  A    between atoms: C_11  and  C_12
REMARK    5  A    between atoms: C_23  and  C_24
REMARK                            x       y       z     vdW  Elec       q    Type
REMARK                         _______ _______ _______ _____ _____    ______ ____
ROOT
ATOM      3  N   UNL     1      -2.969  -0.825  24.545  0.00  0.00    -0.297 NA
ATOM      6  C   UNL     1      -0.868  -1.403  23.678  0.00  0.00    +0.070 C 
ATOM      7  C   UNL     1      -1.124  -2.190  24.973  0.00  0.00    +0.028 C 
ATOM      8  C   UNL     1      -1.910  -0.276  23.695  0.00  0.00    +0.096 C 
ATOM      9  C   UNL     1      -2.267  -1.456  25.662  0.00  0.00    +0.085 C 
ENDROOT
BRANCH   6  10
ATOM      4  N   UNL     1       1.620  -1.644  23.904  0.00  0.00    -0.342 N 
ATOM      5  N   UNL     1       0.912   0.260  23.003  0.00  0.00    -0.232 NA
ATOM     10  C   UNL     1       0.545  -0.895  23.512  0.00  0.00    +0.113 A 
ATOM     13  C   UNL     1       2.754  -0.925  23.629  0.00  0.00    +0.066 A 
ATOM     14  C   UNL     1       2.285   0.259  23.068  0.00  0.00    +0.089 A 
ATOM     17  C   UNL     1       4.110  -1.201  23.817  0.00  0.00    +0.028 A 
ATOM     18  C   UNL     1       3.209   1.238  22.665  0.00  0.00    +0.030 A 
ATOM     21  C   UNL     1       5.015  -0.215  23.411  0.00  0.00    +0.002 A 
ATOM     22  C   UNL     1       4.575   0.984  22.845  0.00  0.00    +0.002 A 
ATOM     25  H   UNL     1       1.587  -2.565  24.320  0.00  0.00    +0.167 HD
ENDBRANCH   6  10
BRANCH   3  11
ATOM     11  C   UNL     1      -3.911   0.193  24.986  0.00  0.00    +0.119 C 
BRANCH  11  12
ATOM     12  C   UNL     1      -3.290   1.565  24.998  0.00  0.00    -0.033 A 
ATOM     15  C   UNL     1      -3.985   2.647  24.457  0.00  0.00    +0.006 A 
ATOM     16  C   UNL     1      -2.023   1.752  25.547  0.00  0.00    +0.006 A 
ATOM     19  C   UNL     1      -3.410   3.919  24.468  0.00  0.00    +0.015 A 
ATOM     20  C   UNL     1      -1.448   3.023  25.558  0.00  0.00    +0.015 A 
ATOM     23  C   UNL     1      -2.142   4.107  25.018  0.00  0.00    +0.059 A 
BRANCH  23  24
ATOM      2  O   UNL     1      -2.130   6.481  25.315  0.00  0.00    -0.245 OA
ATOM     24  C   UNL     1      -1.542   5.432  25.030  0.00  0.00    +0.337 C 
BRANCH  24   1
ATOM      1  O   UNL     1      -0.225   5.410  24.689  0.00  0.00    -0.477 OA
ATOM     26  H   UNL     1      -0.040   4.746  23.991  0.00  0.00    +0.295 HD
ENDBRANCH  24   1
ENDBRANCH  23  24
ENDBRANCH  11  12
ENDBRANCH   3  11
TORSDOF 5
ENDMDL
MODEL 3
REMARK VINA RESULT:      -0.6      2.381      5.197
REMARK  Name = 45784245
REMARK  5 active torsions:
REMARK  status: ('A' for Active; 'I' for Inactive)
REMARK    1  A    between atoms: O_1  and  C_24
REMARK    2  A    between atoms: N_3  and  C_11
REMARK    3  A    between atoms: C_6  and  C_10
REMARK    4  A    between atoms: C_11  and  C_12
REMARK    5  A    between atoms: C_23  and  C_24
REMARK                            x       y       z     vdW  Elec       q    Type
REMARK                         _______ _______ _______ _____ _____    ______ ____
ROOT
ATOM      3  N   UNL     1      -2.767  -1.694  24.502  0.00  0.00    -0.297 NA
ATOM      6  C   UNL     1      -0.428  -1.871  24.539  0.00  0.00    +0.070 C 
ATOM      7  C   UNL     1      -0.931  -1.414  25.918  0.00  0.00    +0.028 C 
ATOM      8  C   UNL     1      -1.618  -1.642  23.596  0.00  0.00    +0.096 C 
ATOM      9  C   UNL     1      -2.355  -0.928  25.678  0.00  0.00    +0.085 C 
ENDROOT
BRANCH   6  10
ATOM      4  N   UNL     1       2.067  -1.741  24.302  0.00  0.00    -0.342 N 
ATOM      5  N   UNL     1       0.922  -0.057  23.410  0.00  0.00    -0.232 NA
ATOM     10  C   UNL     1       0.836  -1.193  24.067  0.00  0.00    +0.113 A 
ATOM     13  C   UNL     1       3.008  -0.904  23.761  0.00  0.00    +0.066 A 
ATOM     14  C   UNL     1       2.269   0.139  23.211  0.00  0.00    +0.089 A 
ATOM     17  C   UNL     1       4.402  -0.968  23.708  0.00  0.00    +0.028 A 
ATOM     18  C   UNL     1       2.942   1.189  22.564  0.00  0.00    +0.030 A 
ATOM     21  C   UNL     1       5.056   0.086  23.061  0.00  0.00    +0.002 A 
ATOM     22  C   UNL     1       4.341   1.146  22.498  0.00  0.00    +0.002 A 
ATOM     25  H   UNL     1       2.253  -2.608  24.787  0.00  0.00    +0.167 HD
ENDBRANCH   6  10
BRANCH   3  11
ATOM     11  C   UNL     1      -3.979  -1.168  23.893  0.00  0.00    +0.119 C 
BRANCH  11  12
ATOM     12  C   UNL     1      -4.255   0.248  24.325  0.00  0.00    -0.033 A 
ATOM     15  C   UNL     1      -5.262   0.508  25.255  0.00  0.00    +0.006 A 
ATOM     16  C   UNL     1      -3.505   1.298  23.796  0.00  0.00    +0.006 A 
ATOM     19  C   UNL     1      -5.518   1.819  25.656  0.00  0.00    +0.015 A 
ATOM     20  C   UNL     1      -3.762   2.609  24.197  0.00  0.00    +0.015 A 
ATOM     23  C   UNL     1      -4.768   2.870  25.128  0.00  0.00    +0.059 A 
BRANCH  23  24
ATOM      2  O   UNL     1      -6.154   4.747  25.656  0.00  0.00    -0.245 OA
ATOM     24  C   UNL     1      -5.034   4.237  25.545  0.00  0.00    +0.337 C 
BRANCH  24   1
ATOM      1  O   UNL     1      -3.895   4.930  25.815  0.00  0.00    -0.477 OA
ATOM     26  H   UNL     1      -3.707   4.962  26.778  0.00  0.00    +0.295 HD
ENDBRANCH  24   1
ENDBRANCH  23  24
ENDBRANCH  11  12
ENDBRANCH   3  11
TORSDOF 5
ENDMDL
MODEL 4
REMARK VINA RESULT:       0.4      4.745      7.663
REMARK  Name = 45784245
REMARK  5 active torsions:
REMARK  status: ('A' for Active; 'I' for Inactive)
REMARK    1  A    between atoms: O_1  and  C_24
REMARK    2  A    between atoms: N_3  and  C_11
REMARK    3  A    between atoms: C_6  and  C_10
REMARK    4  A    between atoms: C_11  and  C_12
REMARK    5  A    between atoms: C_23  and  C_24
REMARK                            x       y       z     vdW  Elec       q    Type
REMARK                         _______ _______ _______ _____ _____    ______ ____
ROOT
ATOM      3  N   UNL     1       0.169  -0.730  23.833  0.00  0.00    -0.297 NA
ATOM      6  C   UNL     1      -1.479   0.110  25.275  0.00  0.00    +0.070 C 
ATOM      7  C   UNL     1      -1.757  -1.374  24.985  0.00  0.00    +0.028 C 
ATOM      8  C   UNL     1      -0.473   0.535  24.196  0.00  0.00    +0.096 C 
ATOM      9  C   UNL     1      -0.924  -1.698  23.752  0.00  0.00    +0.085 C 
ENDROOT
BRANCH   6  10
ATOM      4  N   UNL     1      -2.602   2.353  25.377  0.00  0.00    -0.342 N 
ATOM      5  N   UNL     1      -3.960   0.595  25.300  0.00  0.00    -0.232 NA
ATOM     10  C   UNL     1      -2.706   0.990  25.315  0.00  0.00    +0.113 A 
ATOM     13  C   UNL     1      -3.871   2.869  25.402  0.00  0.00    +0.066 A 
ATOM     14  C   UNL     1      -4.700   1.752  25.353  0.00  0.00    +0.089 A 
ATOM     17  C   UNL     1      -4.351   4.179  25.462  0.00  0.00    +0.028 A 
ATOM     18  C   UNL     1      -6.094   1.934  25.362  0.00  0.00    +0.030 A 
ATOM     21  C   UNL     1      -5.740   4.340  25.471  0.00  0.00    +0.002 A 
ATOM     22  C   UNL     1      -6.598   3.239  25.422  0.00  0.00    +0.002 A 
ATOM     25  H   UNL     1      -1.743   2.886  25.400  0.00  0.00    +0.167 HD
ENDBRANCH   6  10
BRANCH   3  11
ATOM     11  C   UNL     1       0.920  -0.635  22.590  0.00  0.00    +0.119 C 
BRANCH  11  12
ATOM     12  C   UNL     1       2.388  -0.410  22.838  0.00  0.00    -0.033 A 
ATOM     15  C   UNL     1       3.144  -1.391  23.480  0.00  0.00    +0.006 A 
ATOM     16  C   UNL     1       2.991   0.779  22.428  0.00  0.00    +0.006 A 
ATOM     19  C   UNL     1       4.504  -1.183  23.710  0.00  0.00    +0.015 A 
ATOM     20  C   UNL     1       4.351   0.987  22.658  0.00  0.00    +0.015 A 
ATOM     23  C   UNL     1       5.108   0.005  23.299  0.00  0.00    +0.059 A 
BRANCH  23  24
ATOM      2  O   UNL     1       7.445  -0.435  23.040  0.00  0.00    -0.245 OA
ATOM     24  C   UNL     1       6.525   0.223  23.538  0.00  0.00    +0.337 C 
BRANCH  24   1
ATOM      1  O   UNL     1       6.757   1.257  24.391  0.00  0.00    -0.477 OA
ATOM     26  H   UNL     1       6.115   1.988  24.262  0.00  0.00    +0.295 HD
ENDBRANCH  24   1
ENDBRANCH  23  24
ENDBRANCH  11  12
ENDBRANCH   3  11
TORSDOF 5
ENDMDL
MODEL 5
REMARK VINA RESULT:       0.5      4.765      7.740
REMARK  Name = 45784245
REMARK  5 active torsions:
REMARK  status: ('A' for Active; 'I' for Inactive)
REMARK    1  A    between atoms: O_1  and  C_24
REMARK    2  A    between atoms: N_3  and  C_11
REMARK    3  A    between atoms: C_6  and  C_10
REMARK    4  A    between atoms: C_11  and  C_12
REMARK    5  A    between atoms: C_23  and  C_24
REMARK                            x       y       z     vdW  Elec       q    Type
REMARK                         _______ _______ _______ _____ _____    ______ ____
ROOT
ATOM      3  N   UNL     1       0.199  -0.660  23.878  0.00  0.00    -0.297 NA
ATOM      6  C   UNL     1      -1.379   0.303  25.321  0.00  0.00    +0.070 C 
ATOM      7  C   UNL     1      -1.742  -1.170  25.070  0.00  0.00    +0.028 C 
ATOM      8  C   UNL     1      -0.367   0.647  24.219  0.00  0.00    +0.096 C 
ATOM      9  C   UNL     1      -0.947  -1.567  23.834  0.00  0.00    +0.085 C 
ENDROOT
BRANCH   6  10
ATOM      4  N   UNL     1      -3.841   0.789  25.312  0.00  0.00    -0.342 N 
ATOM      5  N   UNL     1      -2.506   2.562  25.430  0.00  0.00    -0.232 NA
ATOM     10  C   UNL     1      -2.554   1.251  25.357  0.00  0.00    +0.113 A 
ATOM     13  C   UNL     1      -4.677   1.873  25.360  0.00  0.00    +0.066 A 
ATOM     14  C   UNL     1      -3.821   2.968  25.433  0.00  0.00    +0.089 A 
ATOM     17  C   UNL     1      -6.069   1.988  25.346  0.00  0.00    +0.028 A 
ATOM     18  C   UNL     1      -4.366   4.261  25.497  0.00  0.00    +0.030 A 
ATOM     21  C   UNL     1      -6.594   3.283  25.409  0.00  0.00    +0.002 A 
ATOM     22  C   UNL     1      -5.760   4.401  25.484  0.00  0.00    +0.002 A 
ATOM     25  H   UNL     1      -4.127  -0.179  25.255  0.00  0.00    +0.167 HD
ENDBRANCH   6  10
BRANCH   3  11
ATOM     11  C   UNL     1       0.936  -0.635  22.623  0.00  0.00    +0.119 C 
BRANCH  11  12
ATOM     12  C   UNL     1       2.410  -0.419  22.842  0.00  0.00    -0.033 A 
ATOM     15  C   UNL     1       3.016   0.754  22.391  0.00  0.00    +0.006 A 
ATOM     16  C   UNL     1       3.168  -1.391  23.494  0.00  0.00    +0.006 A 
ATOM     19  C   UNL     1       4.382   0.954  22.594  0.00  0.00    +0.015 A 
ATOM     20  C   UNL     1       4.534  -1.190  23.697  0.00  0.00    +0.015 A 
ATOM     23  C   UNL     1       5.141  -0.017  23.247  0.00  0.00    +0.059 A 
BRANCH  23  24
ATOM      2  O   UNL     1       7.471  -0.413  22.877  0.00  0.00    -0.245 OA
ATOM     24  C   UNL     1       6.564   0.191  23.459  0.00  0.00    +0.337 C 
BRANCH  24   1
ATOM      1  O   UNL     1       6.817   1.150  24.391  0.00  0.00    -0.477 OA
ATOM     26  H   UNL     1       7.183   1.966  23.985  0.00  0.00    +0.295 HD
ENDBRANCH  24   1
ENDBRANCH  23  24
ENDBRANCH  11  12
ENDBRANCH   3  11
TORSDOF 5
ENDMDL
MODEL 6
REMARK VINA RESULT:       0.9      2.856      5.499
REMARK  Name = 45784245
REMARK  5 active torsions:
REMARK  status: ('A' for Active; 'I' for Inactive)
REMARK    1  A    between atoms: O_1  and  C_24
REMARK    2  A    between atoms: N_3  and  C_11
REMARK    3  A    between atoms: C_6  and  C_10
REMARK    4  A    between atoms: C_11  and  C_12
REMARK    5  A    between atoms: C_23  and  C_24
REMARK                            x       y       z     vdW  Elec       q    Type
REMARK                         _______ _______ _______ _____ _____    ______ ____
ROOT
ATOM      3  N   UNL     1      -2.911   3.253  25.663  0.00  0.00    -0.297 NA
ATOM      6  C   UNL     1      -0.616   3.071  25.215  0.00  0.00    +0.070 C 
ATOM      7  C   UNL     1      -1.178   4.324  24.524  0.00  0.00    +0.028 C 
ATOM      8  C   UNL     1      -1.855   2.242  25.582  0.00  0.00    +0.096 C 
ATOM      9  C   UNL     1      -2.688   4.125  24.511  0.00  0.00    +0.085 C 
ENDROOT
BRANCH   6  10
ATOM      4  N   UNL     1       0.045   1.137  23.757  0.00  0.00    -0.342 N 
ATOM      5  N   UNL     1       1.656   2.601  24.212  0.00  0.00    -0.232 NA
ATOM     10  C   UNL     1       0.392   2.294  24.400  0.00  0.00    +0.113 A 
ATOM     13  C   UNL     1       1.159   0.668  23.111  0.00  0.00    +0.066 A 
ATOM     14  C   UNL     1       2.150   1.599  23.410  0.00  0.00    +0.089 A 
ATOM     17  C   UNL     1       1.379  -0.457  22.314  0.00  0.00    +0.028 A 
ATOM     18  C   UNL     1       3.443   1.412  22.892  0.00  0.00    +0.030 A 
ATOM     21  C   UNL     1       2.671  -0.627  21.807  0.00  0.00    +0.002 A 
ATOM     22  C   UNL     1       3.687   0.290  22.089  0.00  0.00    +0.002 A 
ATOM     25  H   UNL     1      -0.868   0.704  23.756  0.00  0.00    +0.167 HD
ENDBRANCH   6  10
BRANCH   3  11
ATOM     11  C   UNL     1      -4.243   2.666  25.666  0.00  0.00    +0.119 C 
BRANCH  11  12
ATOM     12  C   UNL     1      -4.222   1.226  25.224  0.00  0.00    -0.033 A 
ATOM     15  C   UNL     1      -4.125   0.209  26.174  0.00  0.00    +0.006 A 
ATOM     16  C   UNL     1      -4.298   0.911  23.868  0.00  0.00    +0.006 A 
ATOM     19  C   UNL     1      -4.106  -1.125  25.766  0.00  0.00    +0.015 A 
ATOM     20  C   UNL     1      -4.278  -0.423  23.460  0.00  0.00    +0.015 A 
ATOM     23  C   UNL     1      -4.182  -1.441  24.409  0.00  0.00    +0.059 A 
BRANCH  23  24
ATOM      2  O   UNL     1      -4.835  -3.307  23.062  0.00  0.00    -0.245 OA
ATOM     24  C   UNL     1      -4.163  -2.831  23.983  0.00  0.00    +0.337 C 
BRANCH  24   1
ATOM      1  O   UNL     1      -3.303  -3.589  24.717  0.00  0.00    -0.477 OA
ATOM     26  H   UNL     1      -3.742  -4.386  25.085  0.00  0.00    +0.295 HD
ENDBRANCH  24   1
ENDBRANCH  23  24
ENDBRANCH  11  12
ENDBRANCH   3  11
TORSDOF 5
ENDMDL
MODEL 7
REMARK VINA RESULT:       1.7      3.079      5.311
REMARK  Name = 45784245
REMARK  5 active torsions:
REMARK  status: ('A' for Active; 'I' for Inactive)
REMARK    1  A    between atoms: O_1  and  C_24
REMARK    2  A    between atoms: N_3  and  C_11
REMARK    3  A    between atoms: C_6  and  C_10
REMARK    4  A    between atoms: C_11  and  C_12
REMARK    5  A    between atoms: C_23  and  C_24
REMARK                            x       y       z     vdW  Elec       q    Type
REMARK                         _______ _______ _______ _____ _____    ______ ____
ROOT
ATOM      3  N   UNL     1      -1.288   0.729  22.964  0.00  0.00    -0.297 NA
ATOM      6  C   UNL     1       0.611  -0.639  23.125  0.00  0.00    +0.070 C 
ATOM      7  C   UNL     1      -0.203  -0.731  24.427  0.00  0.00    +0.028 C 
ATOM      8  C   UNL     1       0.064   0.606  22.413  0.00  0.00    +0.096 C 
ATOM      9  C   UNL     1      -1.137   0.472  24.395  0.00  0.00    +0.085 C 
ENDROOT
BRANCH   6  10
ATOM      4  N   UNL     1       2.823   0.545  23.085  0.00  0.00    -0.342 N 
ATOM      5  N   UNL     1       2.881  -1.591  23.695  0.00  0.00    -0.232 NA
ATOM     10  C   UNL     1       2.109  -0.599  23.314  0.00  0.00    +0.113 A 
ATOM     13  C   UNL     1       4.142   0.272  23.338  0.00  0.00    +0.066 A 
ATOM     14  C   UNL     1       4.152  -1.067  23.716  0.00  0.00    +0.089 A 
ATOM     17  C   UNL     1       5.294   1.058  23.269  0.00  0.00    +0.028 A 
ATOM     18  C   UNL     1       5.375  -1.675  24.050  0.00  0.00    +0.030 A 
ATOM     21  C   UNL     1       6.502   0.437  23.604  0.00  0.00    +0.002 A 
ATOM     22  C   UNL     1       6.544  -0.905  23.988  0.00  0.00    +0.002 A 
ATOM     25  H   UNL     1       2.448   1.435  22.786  0.00  0.00    +0.167 HD
ENDBRANCH   6  10
BRANCH   3  11
ATOM     11  C   UNL     1      -1.881   2.030  22.693  0.00  0.00    +0.119 C 
BRANCH  11  12
ATOM     12  C   UNL     1      -3.019   2.334  23.632  0.00  0.00    -0.033 A 
ATOM     15  C   UNL     1      -4.057   1.416  23.786  0.00  0.00    +0.006 A 
ATOM     16  C   UNL     1      -3.033   3.532  24.344  0.00  0.00    +0.006 A 
ATOM     19  C   UNL     1      -5.112   1.697  24.656  0.00  0.00    +0.015 A 
ATOM     20  C   UNL     1      -4.088   3.813  25.214  0.00  0.00    +0.015 A 
ATOM     23  C   UNL     1      -5.127   2.895  25.370  0.00  0.00    +0.059 A 
BRANCH  23  24
ATOM      2  O   UNL     1      -6.690   2.408  27.114  0.00  0.00    -0.245 OA
ATOM     24  C   UNL     1      -6.225   3.189  26.277  0.00  0.00    +0.337 C 
BRANCH  24   1
ATOM      1  O   UNL     1      -6.711   4.449  26.115  0.00  0.00    -0.477 OA
ATOM     26  H   UNL     1      -6.354   4.877  25.308  0.00  0.00    +0.295 HD
ENDBRANCH  24   1
ENDBRANCH  23  24
ENDBRANCH  11  12
ENDBRANCH   3  11
TORSDOF 5
ENDMDL
MODEL 8
REMARK VINA RESULT:       1.7      5.078      7.779
REMARK  Name = 45784245
REMARK  5 active torsions:
REMARK  status: ('A' for Active; 'I' for Inactive)
REMARK    1  A    between atoms: O_1  and  C_24
REMARK    2  A    between atoms: N_3  and  C_11
REMARK    3  A    between atoms: C_6  and  C_10
REMARK    4  A    between atoms: C_11  and  C_12
REMARK    5  A    between atoms: C_23  and  C_24
REMARK                            x       y       z     vdW  Elec       q    Type
REMARK                         _______ _______ _______ _____ _____    ______ ____
ROOT
ATOM      3  N   UNL     1       0.641   1.058  23.267  0.00  0.00    -0.297 NA
ATOM      6  C   UNL     1      -1.198   2.474  23.604  0.00  0.00    +0.070 C 
ATOM      7  C   UNL     1      -0.048   2.894  24.533  0.00  0.00    +0.028 C 
ATOM      8  C   UNL     1      -0.817   1.066  23.126  0.00  0.00    +0.096 C 
ATOM      9  C   UNL     1       0.899   1.701  24.554  0.00  0.00    +0.085 C 
ENDROOT
BRANCH   6  10
ATOM      4  N   UNL     1      -3.285   1.392  24.483  0.00  0.00    -0.342 N 
ATOM      5  N   UNL     1      -3.230   3.612  24.587  0.00  0.00    -0.232 NA
ATOM     10  C   UNL     1      -2.573   2.531  24.228  0.00  0.00    +0.113 A 
ATOM     13  C   UNL     1      -4.480   1.762  25.044  0.00  0.00    +0.066 A 
ATOM     14  C   UNL     1      -4.421   3.152  25.097  0.00  0.00    +0.089 A 
ATOM     17  C   UNL     1      -5.575   1.023  25.495  0.00  0.00    +0.028 A 
ATOM     18  C   UNL     1      -5.510   3.863  25.630  0.00  0.00    +0.030 A 
ATOM     21  C   UNL     1      -6.650   1.747  26.022  0.00  0.00    +0.002 A 
ATOM     22  C   UNL     1      -6.620   3.142  26.089  0.00  0.00    +0.002 A 
ATOM     25  H   UNL     1      -2.986   0.445  24.295  0.00  0.00    +0.167 HD
ENDBRANCH   6  10
BRANCH   3  11
ATOM     11  C   UNL     1       1.198  -0.285  23.195  0.00  0.00    +0.119 C 
BRANCH  11  12
ATOM     12  C   UNL     1       2.704  -0.267  23.193  0.00  0.00    -0.033 A 
ATOM     15  C   UNL     1       3.412  -1.344  23.728  0.00  0.00    +0.006 A 
ATOM     16  C   UNL     1       3.389   0.823  22.660  0.00  0.00    +0.006 A 
ATOM     19  C   UNL     1       4.807  -1.329  23.727  0.00  0.00    +0.015 A 
ATOM     20  C   UNL     1       4.784   0.838  22.660  0.00  0.00    +0.015 A 
ATOM     23  C   UNL     1       5.493  -0.238  23.193  0.00  0.00    +0.059 A 
BRANCH  23  24
ATOM      2  O   UNL     1       7.657   0.452  23.946  0.00  0.00    -0.245 OA
ATOM     24  C   UNL     1       6.947  -0.222  23.192  0.00  0.00    +0.337 C 
BRANCH  24   1
ATOM      1  O   UNL     1       7.476  -1.050  22.250  0.00  0.00    -0.477 OA
ATOM     26  H   UNL     1       7.340  -0.704  21.342  0.00  0.00    +0.295 HD
ENDBRANCH  24   1
ENDBRANCH  23  24
ENDBRANCH  11  12
ENDBRANCH   3  11
TORSDOF 5
ENDMDL
