MODEL 1
REMARK VINA RESULT:      -2.4      0.000      0.000
REMARK  Name = 75368442
REMARK  3 active torsions:
REMARK  status: ('A' for Active; 'I' for Inactive)
REMARK    1  A    between atoms: N_6  and  C_15
REMARK    2  A    between atoms: C_15  and  C_17
REMARK    3  A    between atoms: C_16  and  C_18
REMARK                            x       y       z     vdW  Elec       q    Type
REMARK                         _______ _______ _______ _____ _____    ______ ____
ROOT
ATOM      2  O   UNL     1      -3.483 -10.778  14.425  0.00  0.00    -0.252 OA
ATOM      3  O   UNL     1     -10.045  -9.549  12.364  0.00  0.00    -0.267 OA
ATOM      5  N   UNL     1      -5.277 -10.167  13.037  0.00  0.00    -0.278 N 
ATOM      6  N   UNL     1      -3.257 -10.461  12.100  0.00  0.00    -0.279 N 
ATOM      7  N   UNL     1      -7.847 -10.244  11.979  0.00  0.00    -0.292 N 
ATOM      9  C   UNL     1      -5.459  -9.785  11.647  0.00  0.00    +0.112 C 
ATOM     10  C   UNL     1      -4.147 -10.192  10.984  0.00  0.00    +0.133 C 
ATOM     11  C   UNL     1      -6.701 -10.460  11.074  0.00  0.00    +0.132 C 
ATOM     12  C   UNL     1      -6.392 -10.074  13.965  0.00  0.00    +0.128 C 
ATOM     13  C   UNL     1      -7.636 -10.716  13.354  0.00  0.00    +0.127 C 
ATOM     14  C   UNL     1      -3.947 -10.499  13.327  0.00  0.00    +0.306 C 
ATOM     16  C   UNL     1      -9.076  -9.689  11.619  0.00  0.00    +0.285 C 
ENDROOT
BRANCH  16  18
ATOM      4  O   UNL     1      -8.621  -8.066   9.875  0.00  0.00    -0.350 OA
ATOM      8  N   UNL     1      -8.903  -7.793   8.542  0.00  0.00    -0.086 NA
ATOM     18  C   UNL     1      -9.243  -9.215  10.238  0.00  0.00    +0.222 A 
ATOM     21  C   UNL     1      -9.939  -9.721   9.173  0.00  0.00    +0.077 A 
ATOM     25  C   UNL     1      -9.692  -8.795   8.143  0.00  0.00    +0.157 A 
ENDBRANCH  16  18
BRANCH   6  15
ATOM     15  C   UNL     1      -1.860 -10.780  11.906  0.00  0.00    +0.144 C 
BRANCH  15  17
ATOM      1  F   UNL     1       1.442  -6.268  12.567  0.00  0.00    -0.205 F 
ATOM     17  C   UNL     1      -0.979  -9.577  12.082  0.00  0.00    -0.030 A 
ATOM     19  C   UNL     1      -0.905  -8.943  13.323  0.00  0.00    +0.008 A 
ATOM     20  C   UNL     1      -0.236  -9.092  11.006  0.00  0.00    +0.008 A 
ATOM     22  C   UNL     1      -0.087  -7.825  13.486  0.00  0.00    +0.038 A 
ATOM     23  C   UNL     1       0.581  -7.974  11.170  0.00  0.00    +0.038 A 
ATOM     24  C   UNL     1       0.656  -7.340  12.411  0.00  0.00    +0.123 A 
ENDBRANCH  15  17
ENDBRANCH   6  15
TORSDOF 3
ENDMDL
MODEL 2
REMARK VINA RESULT:      -0.0     16.233     17.569
REMARK  Name = 75368442
REMARK  3 active torsions:
REMARK  status: ('A' for Active; 'I' for Inactive)
REMARK    1  A    between atoms: N_6  and  C_15
REMARK    2  A    between atoms: C_15  and  C_17
REMARK    3  A    between atoms: C_16  and  C_18
REMARK                            x       y       z     vdW  Elec       q    Type
REMARK                         _______ _______ _______ _____ _____    ______ ____
ROOT
ATOM      2  O   UNL     1       2.140   2.021  23.640  0.00  0.00    -0.252 OA
ATOM      3  O   UNL     1      -3.696   4.595  26.492  0.00  0.00    -0.267 OA
ATOM      5  N   UNL     1      -0.138   2.249  24.168  0.00  0.00    -0.278 N 
ATOM      6  N   UNL     1       0.538   0.357  23.162  0.00  0.00    -0.279 N 
ATOM      7  N   UNL     1      -2.367   2.833  25.722  0.00  0.00    -0.292 N 
ATOM      9  C   UNL     1      -1.363   1.509  23.917  0.00  0.00    +0.112 C 
ATOM     10  C   UNL     1      -0.872   0.147  23.434  0.00  0.00    +0.133 C 
ATOM     11  C   UNL     1      -2.222   1.469  25.177  0.00  0.00    +0.132 C 
ATOM     12  C   UNL     1      -0.199   3.559  24.793  0.00  0.00    +0.128 C 
ATOM     13  C   UNL     1      -1.098   3.507  26.028  0.00  0.00    +0.127 C 
ATOM     14  C   UNL     1       0.991   1.598  23.652  0.00  0.00    +0.306 C 
ATOM     16  C   UNL     1      -3.576   3.475  25.997  0.00  0.00    +0.285 C 
ENDROOT
BRANCH  16  18
ATOM      4  O   UNL     1      -5.735   2.585  26.651  0.00  0.00    -0.350 OA
ATOM      8  N   UNL     1      -6.834   1.907  26.136  0.00  0.00    -0.086 NA
ATOM     18  C   UNL     1      -4.823   2.774  25.664  0.00  0.00    +0.222 A 
ATOM     21  C   UNL     1      -5.289   2.235  24.495  0.00  0.00    +0.077 A 
ATOM     25  C   UNL     1      -6.545   1.709  24.846  0.00  0.00    +0.157 A 
ENDBRANCH  16  18
BRANCH   6  15
ATOM     15  C   UNL     1       1.367  -0.673  22.576  0.00  0.00    +0.144 C 
BRANCH  15  17
ATOM      1  F   UNL     1       6.819   0.079  23.764  0.00  0.00    -0.205 F 
ATOM     17  C   UNL     1       2.821  -0.473  22.893  0.00  0.00    -0.030 A 
ATOM     19  C   UNL     1       3.517   0.595  22.326  0.00  0.00    +0.008 A 
ATOM     20  C   UNL     1       3.475  -1.353  23.754  0.00  0.00    +0.008 A 
ATOM     22  C   UNL     1       4.868   0.781  22.620  0.00  0.00    +0.038 A 
ATOM     23  C   UNL     1       4.826  -1.167  24.048  0.00  0.00    +0.038 A 
ATOM     24  C   UNL     1       5.522  -0.100  23.480  0.00  0.00    +0.123 A 
ENDBRANCH  15  17
ENDBRANCH   6  15
TORSDOF 3
ENDMDL
MODEL 3
REMARK VINA RESULT:       0.6     15.722     16.849
REMARK  Name = 75368442
REMARK  3 active torsions:
REMARK  status: ('A' for Active; 'I' for Inactive)
REMARK    1  A    between atoms: N_6  and  C_15
REMARK    2  A    between atoms: C_15  and  C_17
REMARK    3  A    between atoms: C_16  and  C_18
REMARK                            x       y       z     vdW  Elec       q    Type
REMARK                         _______ _______ _______ _____ _____    ______ ____
ROOT
ATOM      2  O   UNL     1       0.235  -2.150  23.939  0.00  0.00    -0.252 OA
ATOM      3  O   UNL     1      -5.483   0.880  26.573  0.00  0.00    -0.267 OA
ATOM      5  N   UNL     1      -1.334  -0.478  24.450  0.00  0.00    -0.278 N 
ATOM      6  N   UNL     1       0.237  -0.029  22.908  0.00  0.00    -0.279 N 
ATOM      7  N   UNL     1      -3.835   0.635  24.933  0.00  0.00    -0.292 N 
ATOM      9  C   UNL     1      -1.541   0.920  24.112  0.00  0.00    +0.112 C 
ATOM     10  C   UNL     1      -0.615   1.146  22.921  0.00  0.00    +0.133 C 
ATOM     11  C   UNL     1      -3.018   1.182  23.833  0.00  0.00    +0.132 C 
ATOM     12  C   UNL     1      -2.170  -1.111  25.456  0.00  0.00    +0.128 C 
ATOM     13  C   UNL     1      -3.642  -0.800  25.183  0.00  0.00    +0.127 C 
ATOM     14  C   UNL     1      -0.227  -1.026  23.789  0.00  0.00    +0.306 C 
ATOM     16  C   UNL     1      -4.771   1.348  25.685  0.00  0.00    +0.285 C 
ENDROOT
BRANCH  16  18
ATOM      4  O   UNL     1      -6.010   3.419  25.927  0.00  0.00    -0.350 OA
ATOM      8  N   UNL     1      -5.972   4.759  25.559  0.00  0.00    -0.086 NA
ATOM     18  C   UNL     1      -4.926   2.783  25.415  0.00  0.00    +0.222 A 
ATOM     21  C   UNL     1      -4.159   3.672  24.710  0.00  0.00    +0.077 A 
ATOM     25  C   UNL     1      -4.858   4.887  24.834  0.00  0.00    +0.157 A 
ENDBRANCH  16  18
BRANCH   6  15
ATOM     15  C   UNL     1       1.342  -0.165  21.984  0.00  0.00    +0.144 C 
BRANCH  15  17
ATOM      1  F   UNL     1       6.315  -0.127  24.623  0.00  0.00    -0.205 F 
ATOM     17  C   UNL     1       2.667  -0.155  22.688  0.00  0.00    -0.030 A 
ATOM     19  C   UNL     1       3.426   1.015  22.729  0.00  0.00    +0.008 A 
ATOM     20  C   UNL     1       3.142  -1.315  23.300  0.00  0.00    +0.008 A 
ATOM     22  C   UNL     1       4.658   1.024  23.382  0.00  0.00    +0.038 A 
ATOM     23  C   UNL     1       4.374  -1.306  23.953  0.00  0.00    +0.038 A 
ATOM     24  C   UNL     1       5.132  -0.135  23.994  0.00  0.00    +0.123 A 
ENDBRANCH  15  17
ENDBRANCH   6  15
TORSDOF 3
ENDMDL
