MODEL 1
REMARK VINA RESULT:       0.3      0.000      0.000
REMARK  Name = 28961322
REMARK  8 active torsions:
REMARK  status: ('A' for Active; 'I' for Inactive)
REMARK    1  A    between atoms: O_2  and  C_10
REMARK    2  A    between atoms: O_3  and  C_17
REMARK    3  A    between atoms: N_5  and  C_8
REMARK    4  A    between atoms: N_6  and  C_18
REMARK    5  A    between atoms: N_7  and  C_14
REMARK    6  A    between atoms: C_9  and  C_14
REMARK    7  A    between atoms: C_11  and  C_17
REMARK    8  A    between atoms: C_19  and  C_22
REMARK                            x       y       z     vdW  Elec       q    Type
REMARK                         _______ _______ _______ _____ _____    ______ ____
ROOT
ATOM      1  O   UNL     1      -4.137  -0.412  25.826  0.00  0.00    -0.365 OA
ATOM      8  C   UNL     1      -2.667  -1.310  24.182  0.00  0.00    +0.118 C 
ATOM      9  C   UNL     1      -2.868  -1.088  25.687  0.00  0.00    +0.155 C 
ATOM     10  C   UNL     1      -3.491  -0.193  23.559  0.00  0.00    +0.165 C 
ATOM     11  C   UNL     1      -4.676  -0.150  24.516  0.00  0.00    +0.174 C 
ENDROOT
BRANCH   8   5
ATOM      5  N   UNL     1      -1.292  -1.394  23.724  0.00  0.00    -0.292 NA
ATOM      6  N   UNL     1       1.467  -0.663  23.607  0.00  0.00    -0.327 N 
ATOM     12  C   UNL     1      -0.884  -0.137  23.086  0.00  0.00    +0.104 C 
ATOM     13  C   UNL     1      -0.394  -1.699  24.845  0.00  0.00    +0.104 C 
ATOM     15  C   UNL     1       0.546  -0.233  22.548  0.00  0.00    +0.120 C 
ATOM     16  C   UNL     1       1.053  -1.847  24.367  0.00  0.00    +0.120 C 
BRANCH   6  18
ATOM     18  C   UNL     1       2.829  -0.381  23.450  0.00  0.00    +0.030 A 
ATOM     20  C   UNL     1       3.229   0.817  22.856  0.00  0.00    +0.023 A 
ATOM     21  C   UNL     1       3.786  -1.298  23.886  0.00  0.00    +0.023 A 
ATOM     23  C   UNL     1       4.586   1.097  22.700  0.00  0.00    +0.002 A 
ATOM     24  C   UNL     1       5.143  -1.016  23.729  0.00  0.00    +0.002 A 
ATOM     25  C   UNL     1       5.543   0.182  23.136  0.00  0.00    +0.000 A 
ENDBRANCH   6  18
ENDBRANCH   8   5
BRANCH  10   2
ATOM      2  O   UNL     1      -2.792   1.045  23.583  0.00  0.00    -0.388 OA
ATOM     31  H   UNL     1      -3.425   1.736  23.842  0.00  0.00    +0.210 HD
ENDBRANCH  10   2
BRANCH   9  14
ATOM     14  C   UNL     1      -1.822  -0.237  26.398  0.00  0.00    +0.137 C 
BRANCH  14   7
ATOM      4  O   UNL     1       0.261   1.642  25.787  0.00  0.00    -0.270 OA
ATOM      7  N   UNL     1      -1.986   1.151  26.085  0.00  0.00    -0.309 N 
ATOM     19  C   UNL     1      -0.915   1.993  25.799  0.00  0.00    +0.244 C 
ATOM     32  H   UNL     1      -2.929   1.522  26.147  0.00  0.00    +0.149 HD
BRANCH  19  22
ATOM     22  C   UNL     1      -1.251   3.413  25.520  0.00  0.00    +0.037 A 
ATOM     26  C   UNL     1      -0.356   4.216  24.813  0.00  0.00    +0.013 A 
ATOM     27  C   UNL     1      -2.462   3.944  25.966  0.00  0.00    +0.013 A 
ATOM     28  C   UNL     1      -0.670   5.549  24.551  0.00  0.00    +0.001 A 
ATOM     29  C   UNL     1      -2.776   5.278  25.704  0.00  0.00    +0.001 A 
ATOM     30  C   UNL     1      -1.882   6.080  24.996  0.00  0.00    +0.000 A 
ENDBRANCH  19  22
ENDBRANCH  14   7
ENDBRANCH   9  14
BRANCH  11  17
ATOM     17  C   UNL     1      -5.447   1.157  24.544  0.00  0.00    +0.190 C 
BRANCH  17   3
ATOM      3  O   UNL     1      -4.990   1.936  25.637  0.00  0.00    -0.392 OA
ATOM     33  H   UNL     1      -5.722   1.993  26.275  0.00  0.00    +0.210 HD
ENDBRANCH  17   3
ENDBRANCH  11  17
TORSDOF 8
ENDMDL
MODEL 2
REMARK VINA RESULT:       0.4      1.942      4.666
REMARK  Name = 28961322
REMARK  8 active torsions:
REMARK  status: ('A' for Active; 'I' for Inactive)
REMARK    1  A    between atoms: O_2  and  C_10
REMARK    2  A    between atoms: O_3  and  C_17
REMARK    3  A    between atoms: N_5  and  C_8
REMARK    4  A    between atoms: N_6  and  C_18
REMARK    5  A    between atoms: N_7  and  C_14
REMARK    6  A    between atoms: C_9  and  C_14
REMARK    7  A    between atoms: C_11  and  C_17
REMARK    8  A    between atoms: C_19  and  C_22
REMARK                            x       y       z     vdW  Elec       q    Type
REMARK                         _______ _______ _______ _____ _____    ______ ____
ROOT
ATOM      1  O   UNL     1      -5.167   4.008  24.763  0.00  0.00    -0.365 OA
ATOM      8  C   UNL     1      -2.914   4.030  25.533  0.00  0.00    +0.118 C 
ATOM      9  C   UNL     1      -3.812   4.201  24.300  0.00  0.00    +0.155 C 
ATOM     10  C   UNL     1      -3.742   3.129  26.436  0.00  0.00    +0.165 C 
ATOM     11  C   UNL     1      -5.142   3.665  26.161  0.00  0.00    +0.174 C 
ENDROOT
BRANCH   8   5
ATOM      5  N   UNL     1      -1.558   3.576  25.282  0.00  0.00    -0.292 NA
ATOM      6  N   UNL     1       0.474   1.986  24.056  0.00  0.00    -0.327 N 
ATOM     12  C   UNL     1      -1.418   2.156  25.626  0.00  0.00    +0.104 C 
ATOM     13  C   UNL     1      -1.198   3.785  23.874  0.00  0.00    +0.104 C 
ATOM     15  C   UNL     1       0.021   1.680  25.418  0.00  0.00    +0.120 C 
ATOM     16  C   UNL     1       0.249   3.364  23.606  0.00  0.00    +0.120 C 
BRANCH   6  18
ATOM     18  C   UNL     1       1.550   1.255  23.539  0.00  0.00    +0.030 A 
ATOM     20  C   UNL     1       2.788   1.872  23.356  0.00  0.00    +0.023 A 
ATOM     21  C   UNL     1       1.384  -0.090  23.207  0.00  0.00    +0.023 A 
ATOM     23  C   UNL     1       3.861   1.143  22.842  0.00  0.00    +0.002 A 
ATOM     24  C   UNL     1       2.457  -0.818  22.692  0.00  0.00    +0.002 A 
ATOM     25  C   UNL     1       3.695  -0.201  22.510  0.00  0.00    +0.000 A 
ENDBRANCH   6  18
ENDBRANCH   8   5
BRANCH  10   2
ATOM      2  O   UNL     1      -3.648   1.767  26.041  0.00  0.00    -0.388 OA
ATOM     31  H   UNL     1      -2.935   1.358  26.562  0.00  0.00    +0.210 HD
ENDBRANCH  10   2
BRANCH   9  14
ATOM     14  C   UNL     1      -3.583   3.229  23.148  0.00  0.00    +0.137 C 
BRANCH  14   7
ATOM      4  O   UNL     1      -2.021   1.037  22.153  0.00  0.00    -0.270 OA
ATOM      7  N   UNL     1      -3.627   1.872  23.603  0.00  0.00    -0.309 N 
ATOM     19  C   UNL     1      -2.830   0.867  23.061  0.00  0.00    +0.244 C 
ATOM     32  H   UNL     1      -4.326   1.650  24.305  0.00  0.00    +0.149 HD
BRANCH  19  22
ATOM     22  C   UNL     1      -3.014  -0.495  23.624  0.00  0.00    +0.037 A 
ATOM     26  C   UNL     1      -1.956  -1.127  24.279  0.00  0.00    +0.013 A 
ATOM     27  C   UNL     1      -4.243  -1.142  23.499  0.00  0.00    +0.013 A 
ATOM     28  C   UNL     1      -2.128  -2.407  24.808  0.00  0.00    +0.001 A 
ATOM     29  C   UNL     1      -4.415  -2.421  24.028  0.00  0.00    +0.001 A 
ATOM     30  C   UNL     1      -3.358  -3.053  24.683  0.00  0.00    +0.000 A 
ENDBRANCH  19  22
ENDBRANCH  14   7
ENDBRANCH   9  14
BRANCH  11  17
ATOM     17  C   UNL     1      -6.280   2.706  26.462  0.00  0.00    +0.190 C 
BRANCH  17   3
ATOM      3  O   UNL     1      -6.569   1.956  25.293  0.00  0.00    -0.392 OA
ATOM     33  H   UNL     1      -5.827   2.086  24.679  0.00  0.00    +0.210 HD
ENDBRANCH  17   3
ENDBRANCH  11  17
TORSDOF 8
ENDMDL
MODEL 3
REMARK VINA RESULT:       2.9      2.128      6.317
REMARK  Name = 28961322
REMARK  8 active torsions:
REMARK  status: ('A' for Active; 'I' for Inactive)
REMARK    1  A    between atoms: O_2  and  C_10
REMARK    2  A    between atoms: O_3  and  C_17
REMARK    3  A    between atoms: N_5  and  C_8
REMARK    4  A    between atoms: N_6  and  C_18
REMARK    5  A    between atoms: N_7  and  C_14
REMARK    6  A    between atoms: C_9  and  C_14
REMARK    7  A    between atoms: C_11  and  C_17
REMARK    8  A    between atoms: C_19  and  C_22
REMARK                            x       y       z     vdW  Elec       q    Type
REMARK                         _______ _______ _______ _____ _____    ______ ____
ROOT
ATOM      1  O   UNL     1       3.610   0.775  23.501  0.00  0.00    -0.365 OA
ATOM      8  C   UNL     1       1.498   0.241  22.541  0.00  0.00    +0.118 C 
ATOM      9  C   UNL     1       2.256   1.268  23.392  0.00  0.00    +0.155 C 
ATOM     10  C   UNL     1       2.277  -1.043  22.779  0.00  0.00    +0.165 C 
ATOM     11  C   UNL     1       3.700  -0.501  22.840  0.00  0.00    +0.174 C 
ENDROOT
BRANCH   8   5
ATOM      5  N   UNL     1       0.067   0.149  22.770  0.00  0.00    -0.292 NA
ATOM      6  N   UNL     1      -2.431   0.844  23.968  0.00  0.00    -0.327 N 
ATOM     12  C   UNL     1      -0.209  -0.202  24.169  0.00  0.00    +0.104 C 
ATOM     13  C   UNL     1      -0.591   1.419  22.435  0.00  0.00    +0.104 C 
ATOM     15  C   UNL     1      -1.712  -0.357  24.410  0.00  0.00    +0.120 C 
ATOM     16  C   UNL     1      -2.107   1.319  22.618  0.00  0.00    +0.120 C 
BRANCH   6  18
ATOM     18  C   UNL     1      -3.704   1.082  24.499  0.00  0.00    +0.030 A 
ATOM     20  C   UNL     1      -4.259   0.183  25.410  0.00  0.00    +0.023 A 
ATOM     21  C   UNL     1      -4.418   2.218  24.117  0.00  0.00    +0.023 A 
ATOM     23  C   UNL     1      -5.527   0.420  25.940  0.00  0.00    +0.002 A 
ATOM     24  C   UNL     1      -5.687   2.455  24.647  0.00  0.00    +0.002 A 
ATOM     25  C   UNL     1      -6.241   1.556  25.559  0.00  0.00    +0.000 A 
ENDBRANCH   6  18
ENDBRANCH   8   5
BRANCH  10   2
ATOM      2  O   UNL     1       1.923  -1.644  24.018  0.00  0.00    -0.388 OA
ATOM     31  H   UNL     1       2.720  -2.070  24.377  0.00  0.00    +0.210 HD
ENDBRANCH  10   2
BRANCH   9  14
ATOM     14  C   UNL     1       1.741   1.495  24.809  0.00  0.00    +0.137 C 
BRANCH  14   7
ATOM      4  O   UNL     1       0.230   2.339  27.099  0.00  0.00    -0.270 OA
ATOM      7  N   UNL     1       0.650   2.422  24.819  0.00  0.00    -0.309 N 
ATOM     19  C   UNL     1      -0.030   2.776  25.981  0.00  0.00    +0.244 C 
ATOM     32  H   UNL     1       0.339   2.767  23.917  0.00  0.00    +0.149 HD
BRANCH  19  22
ATOM     22  C   UNL     1      -1.157   3.731  25.819  0.00  0.00    +0.037 A 
ATOM     26  C   UNL     1      -2.349   3.527  26.516  0.00  0.00    +0.013 A 
ATOM     27  C   UNL     1      -1.024   4.829  24.970  0.00  0.00    +0.013 A 
ATOM     28  C   UNL     1      -3.408   4.423  26.364  0.00  0.00    +0.001 A 
ATOM     29  C   UNL     1      -2.083   5.725  24.818  0.00  0.00    +0.001 A 
ATOM     30  C   UNL     1      -3.274   5.522  25.515  0.00  0.00    +0.000 A 
ENDBRANCH  19  22
ENDBRANCH  14   7
ENDBRANCH   9  14
BRANCH  11  17
ATOM     17  C   UNL     1       4.701  -1.376  23.574  0.00  0.00    +0.190 C 
BRANCH  17   3
ATOM      3  O   UNL     1       5.293  -0.619  24.617  0.00  0.00    -0.392 OA
ATOM     33  H   UNL     1       4.838  -0.862  25.441  0.00  0.00    +0.210 HD
ENDBRANCH  17   3
ENDBRANCH  11  17
TORSDOF 8
ENDMDL
MODEL 4
REMARK VINA RESULT:       4.3      2.062      6.423
REMARK  Name = 28961322
REMARK  8 active torsions:
REMARK  status: ('A' for Active; 'I' for Inactive)
REMARK    1  A    between atoms: O_2  and  C_10
REMARK    2  A    between atoms: O_3  and  C_17
REMARK    3  A    between atoms: N_5  and  C_8
REMARK    4  A    between atoms: N_6  and  C_18
REMARK    5  A    between atoms: N_7  and  C_14
REMARK    6  A    between atoms: C_9  and  C_14
REMARK    7  A    between atoms: C_11  and  C_17
REMARK    8  A    between atoms: C_19  and  C_22
REMARK                            x       y       z     vdW  Elec       q    Type
REMARK                         _______ _______ _______ _____ _____    ______ ____
ROOT
ATOM      1  O   UNL     1      -0.248   5.024  24.690  0.00  0.00    -0.365 OA
ATOM      8  C   UNL     1      -1.564   3.437  25.881  0.00  0.00    +0.118 C 
ATOM      9  C   UNL     1      -0.262   3.637  25.094  0.00  0.00    +0.155 C 
ATOM     10  C   UNL     1      -2.474   4.518  25.317  0.00  0.00    +0.165 C 
ATOM     11  C   UNL     1      -1.474   5.649  25.114  0.00  0.00    +0.174 C 
ENDROOT
BRANCH   8   5
ATOM      5  N   UNL     1      -2.119   2.095  25.875  0.00  0.00    -0.292 NA
ATOM      6  N   UNL     1      -2.726  -0.469  24.773  0.00  0.00    -0.327 N 
ATOM     12  C   UNL     1      -3.131   1.962  24.820  0.00  0.00    +0.104 C 
ATOM     13  C   UNL     1      -1.057   1.101  25.676  0.00  0.00    +0.104 C 
ATOM     15  C   UNL     1      -3.763   0.569  24.839  0.00  0.00    +0.120 C 
ATOM     16  C   UNL     1      -1.619  -0.322  25.723  0.00  0.00    +0.120 C 
BRANCH   6  18
ATOM     18  C   UNL     1      -3.099  -1.744  24.333  0.00  0.00    +0.030 A 
ATOM     20  C   UNL     1      -2.151  -2.768  24.279  0.00  0.00    +0.023 A 
ATOM     21  C   UNL     1      -4.416  -1.992  23.947  0.00  0.00    +0.023 A 
ATOM     23  C   UNL     1      -2.523  -4.039  23.842  0.00  0.00    +0.002 A 
ATOM     24  C   UNL     1      -4.787  -3.264  23.509  0.00  0.00    +0.002 A 
ATOM     25  C   UNL     1      -3.840  -4.287  23.456  0.00  0.00    +0.000 A 
ENDBRANCH   6  18
ENDBRANCH   8   5
BRANCH  10   2
ATOM      2  O   UNL     1      -3.037   4.126  24.072  0.00  0.00    -0.388 OA
ATOM     31  H   UNL     1      -3.770   4.734  23.876  0.00  0.00    +0.210 HD
ENDBRANCH  10   2
BRANCH   9  14
ATOM     14  C   UNL     1      -0.090   2.796  23.834  0.00  0.00    +0.137 C 
BRANCH  14   7
ATOM      4  O   UNL     1       0.521   0.220  22.724  0.00  0.00    -0.270 OA
ATOM      7  N   UNL     1       1.191   2.155  23.813  0.00  0.00    -0.309 N 
ATOM     19  C   UNL     1       1.398   0.899  23.251  0.00  0.00    +0.244 C 
ATOM     32  H   UNL     1       1.946   2.633  24.295  0.00  0.00    +0.149 HD
BRANCH  19  22
ATOM     22  C   UNL     1       2.781   0.361  23.333  0.00  0.00    +0.037 A 
ATOM     26  C   UNL     1       2.989  -0.981  23.655  0.00  0.00    +0.013 A 
ATOM     27  C   UNL     1       3.870   1.197  23.090  0.00  0.00    +0.013 A 
ATOM     28  C   UNL     1       4.286  -1.487  23.733  0.00  0.00    +0.001 A 
ATOM     29  C   UNL     1       5.168   0.691  23.168  0.00  0.00    +0.001 A 
ATOM     30  C   UNL     1       5.376  -0.650  23.489  0.00  0.00    +0.000 A 
ENDBRANCH  19  22
ENDBRANCH  14   7
ENDBRANCH   9  14
BRANCH  11  17
ATOM     17  C   UNL     1      -1.876   6.703  24.098  0.00  0.00    +0.190 C 
BRANCH  17   3
ATOM      3  O   UNL     1      -3.183   6.414  23.630  0.00  0.00    -0.392 OA
ATOM     33  H   UNL     1      -3.398   5.511  23.920  0.00  0.00    +0.210 HD
ENDBRANCH  17   3
ENDBRANCH  11  17
TORSDOF 8
ENDMDL
