MODEL 1
REMARK VINA RESULT:      -4.3      0.000      0.000
REMARK  Name = 44716247
REMARK  8 active torsions:
REMARK  status: ('A' for Active; 'I' for Inactive)
REMARK    1  A    between atoms: N_4  and  C_15
REMARK    2  A    between atoms: N_5  and  C_17
REMARK    3  A    between atoms: C_9  and  C_16
REMARK    4  A    between atoms: C_10  and  C_15
REMARK    5  A    between atoms: C_17  and  C_19
REMARK    6  A    between atoms: C_17  and  C_20
REMARK    7  A    between atoms: C_21  and  C_22
REMARK    8  A    between atoms: C_22  and  C_23
REMARK                            x       y       z     vdW  Elec       q    Type
REMARK                         _______ _______ _______ _____ _____    ______ ____
ROOT
ATOM      3  N   UNL     1      -1.320  -1.118  24.967  0.00  0.00    -0.297 NA
ATOM      8  C   UNL     1      -0.822   1.177  23.845  0.00  0.00    +0.005 C 
ATOM      9  C   UNL     1       0.103   0.072  23.298  0.00  0.00    +0.092 C 
ATOM     10  C   UNL     1      -2.470  -0.701  24.118  0.00  0.00    +0.078 C 
ATOM     11  C   UNL     1      -2.272   0.732  23.574  0.00  0.00    +0.025 C 
ATOM     12  C   UNL     1      -0.672   1.260  25.375  0.00  0.00    +0.020 C 
ATOM     13  C   UNL     1      -0.116  -1.223  24.104  0.00  0.00    +0.097 C 
ATOM     14  C   UNL     1      -1.038  -0.095  26.000  0.00  0.00    +0.085 C 
ENDROOT
BRANCH   9  16
ATOM      1  O   UNL     1       1.883   1.611  23.704  0.00  0.00    -0.275 OA
ATOM      5  N   UNL     1       2.388  -0.500  22.863  0.00  0.00    -0.313 N 
ATOM     16  C   UNL     1       1.542   0.493  23.325  0.00  0.00    +0.218 C 
ATOM     24  H   UNL     1       1.999  -1.404  22.610  0.00  0.00    +0.149 HD
BRANCH   5  17
ATOM     17  C   UNL     1       3.821  -0.336  22.768  0.00  0.00    +0.067 C 
ATOM     19  C   UNL     1       4.187   1.140  22.677  0.00  0.00    +0.027 C 
ATOM     20  C   UNL     1       4.509  -1.003  23.953  0.00  0.00    +0.027 C 
ENDBRANCH   5  17
ENDBRANCH   9  16
BRANCH  10  15
ATOM     15  C   UNL     1      -3.808  -0.853  24.844  0.00  0.00    +0.164 C 
BRANCH  15   4
ATOM      4  N   UNL     1      -4.507   0.469  24.995  0.00  0.00    -0.250 N 
ATOM      6  N   UNL     1      -5.815   0.588  24.712  0.00  0.00    -0.065 NA
ATOM      7  N   UNL     1      -6.153   1.854  24.935  0.00  0.00    -0.127 NA
ATOM     18  C   UNL     1      -3.973   1.651  25.406  0.00  0.00    +0.141 A 
ATOM     21  C   UNL     1      -5.036   2.518  25.361  0.00  0.00    +0.147 A 
BRANCH  21  22
ATOM      2  O   UNL     1      -6.077   4.607  25.703  0.00  0.00    -0.291 OA
ATOM     22  C   UNL     1      -5.028   3.908  25.696  0.00  0.00    +0.181 C 
ATOM     23  C   UNL     1      -3.721   4.627  26.066  0.00  0.00    +0.093 C 
ENDBRANCH  21  22
ENDBRANCH  15   4
ENDBRANCH  10  15
TORSDOF 5
ENDMDL
MODEL 2
REMARK VINA RESULT:      -4.0      1.942      7.880
REMARK  Name = 44716247
REMARK  8 active torsions:
REMARK  status: ('A' for Active; 'I' for Inactive)
REMARK    1  A    between atoms: N_4  and  C_15
REMARK    2  A    between atoms: N_5  and  C_17
REMARK    3  A    between atoms: C_9  and  C_16
REMARK    4  A    between atoms: C_10  and  C_15
REMARK    5  A    between atoms: C_17  and  C_19
REMARK    6  A    between atoms: C_17  and  C_20
REMARK    7  A    between atoms: C_21  and  C_22
REMARK    8  A    between atoms: C_22  and  C_23
REMARK                            x       y       z     vdW  Elec       q    Type
REMARK                         _______ _______ _______ _____ _____    ______ ____
ROOT
ATOM      3  N   UNL     1      -0.120   1.154  24.839  0.00  0.00    -0.297 NA
ATOM      8  C   UNL     1      -2.499   1.470  23.833  0.00  0.00    +0.005 C 
ATOM      9  C   UNL     1      -1.998   2.763  24.508  0.00  0.00    +0.092 C 
ATOM     10  C   UNL     1      -0.062   1.087  23.354  0.00  0.00    +0.078 C 
ATOM     11  C   UNL     1      -1.480   1.105  22.737  0.00  0.00    +0.025 C 
ATOM     12  C   UNL     1      -2.474   0.317  24.853  0.00  0.00    +0.020 C 
ATOM     13  C   UNL     1      -0.665   2.480  25.226  0.00  0.00    +0.097 C 
ATOM     14  C   UNL     1      -1.040   0.123  25.371  0.00  0.00    +0.085 C 
ENDROOT
BRANCH   9  16
ATOM      1  O   UNL     1      -2.718   4.136  26.324  0.00  0.00    -0.275 OA
ATOM      5  N   UNL     1      -4.281   2.800  25.234  0.00  0.00    -0.313 N 
ATOM     16  C   UNL     1      -3.018   3.323  25.454  0.00  0.00    +0.218 C 
ATOM     24  H   UNL     1      -4.423   2.160  24.458  0.00  0.00    +0.149 HD
BRANCH   5  17
ATOM     17  C   UNL     1      -5.435   3.161  26.025  0.00  0.00    +0.067 C 
ATOM     19  C   UNL     1      -6.071   4.439  25.492  0.00  0.00    +0.027 C 
ATOM     20  C   UNL     1      -6.438   2.014  26.052  0.00  0.00    +0.027 C 
ENDBRANCH   5  17
ENDBRANCH   9  16
BRANCH  10  15
ATOM     15  C   UNL     1       0.756  -0.108  22.860  0.00  0.00    +0.164 C 
BRANCH  15   4
ATOM      4  N   UNL     1       2.231   0.129  23.019  0.00  0.00    -0.250 N 
ATOM      6  N   UNL     1       2.768   1.323  22.718  0.00  0.00    -0.065 NA
ATOM      7  N   UNL     1       4.073   1.239  22.953  0.00  0.00    -0.127 NA
ATOM     18  C   UNL     1       3.174  -0.750  23.454  0.00  0.00    +0.141 A 
ATOM     21  C   UNL     1       4.338  -0.024  23.405  0.00  0.00    +0.147 A 
BRANCH  21  22
ATOM      2  O   UNL     1       5.902  -1.004  24.873  0.00  0.00    -0.291 OA
ATOM     22  C   UNL     1       5.648  -0.474  23.759  0.00  0.00    +0.181 C 
ATOM     23  C   UNL     1       6.827  -0.328  22.783  0.00  0.00    +0.093 C 
ENDBRANCH  21  22
ENDBRANCH  15   4
ENDBRANCH  10  15
TORSDOF 5
ENDMDL
MODEL 3
REMARK VINA RESULT:      -3.2     15.731     18.010
REMARK  Name = 44716247
REMARK  8 active torsions:
REMARK  status: ('A' for Active; 'I' for Inactive)
REMARK    1  A    between atoms: N_4  and  C_15
REMARK    2  A    between atoms: N_5  and  C_17
REMARK    3  A    between atoms: C_9  and  C_16
REMARK    4  A    between atoms: C_10  and  C_15
REMARK    5  A    between atoms: C_17  and  C_19
REMARK    6  A    between atoms: C_17  and  C_20
REMARK    7  A    between atoms: C_21  and  C_22
REMARK    8  A    between atoms: C_22  and  C_23
REMARK                            x       y       z     vdW  Elec       q    Type
REMARK                         _______ _______ _______ _____ _____    ______ ____
ROOT
ATOM      3  N   UNL     1      -6.722  -9.722  10.367  0.00  0.00    -0.297 NA
ATOM      8  C   UNL     1      -6.187 -10.080  12.889  0.00  0.00    +0.005 C 
ATOM      9  C   UNL     1      -7.507 -10.770  12.491  0.00  0.00    +0.092 C 
ATOM     10  C   UNL     1      -5.516 -10.581  10.520  0.00  0.00    +0.078 C 
ATOM     11  C   UNL     1      -5.078 -10.673  12.000  0.00  0.00    +0.025 C 
ATOM     12  C   UNL     1      -6.269  -8.582  12.544  0.00  0.00    +0.020 C 
ATOM     13  C   UNL     1      -7.863 -10.395  11.040  0.00  0.00    +0.097 C 
ATOM     14  C   UNL     1      -6.520  -8.417  11.036  0.00  0.00    +0.085 C 
ENDROOT
BRANCH   9  16
ATOM      1  O   UNL     1      -9.792 -10.687  13.181  0.00  0.00    -0.275 OA
ATOM      5  N   UNL     1      -8.164  -9.756  14.560  0.00  0.00    -0.313 N 
ATOM     16  C   UNL     1      -8.620 -10.417  13.433  0.00  0.00    +0.218 C 
ATOM     24  H   UNL     1      -7.165  -9.619  14.683  0.00  0.00    +0.149 HD
BRANCH   5  17
ATOM     17  C   UNL     1      -9.040  -9.289  15.611  0.00  0.00    +0.067 C 
ATOM     19  C   UNL     1      -8.275  -9.146  16.921  0.00  0.00    +0.027 C 
ATOM     20  C   UNL     1      -9.695  -7.974  15.207  0.00  0.00    +0.027 C 
ENDBRANCH   5  17
ENDBRANCH   9  16
BRANCH  10  15
ATOM     15  C   UNL     1      -4.367 -10.129   9.615  0.00  0.00    +0.164 C 
BRANCH  15   4
ATOM      4  N   UNL     1      -3.095  -9.941  10.392  0.00  0.00    -0.250 N 
ATOM      6  N   UNL     1      -2.771 -10.781  11.390  0.00  0.00    -0.065 NA
ATOM      7  N   UNL     1      -1.608 -10.373  11.887  0.00  0.00    -0.127 NA
ATOM     18  C   UNL     1      -2.151  -8.976  10.223  0.00  0.00    +0.141 A 
ATOM     21  C   UNL     1      -1.215  -9.269  11.183  0.00  0.00    +0.147 A 
BRANCH  21  22
ATOM      2  O   UNL     1       1.048  -8.744  10.774  0.00  0.00    -0.291 OA
ATOM     22  C   UNL     1      -0.002  -8.560  11.447  0.00  0.00    +0.181 C 
ATOM     23  C   UNL     1       0.083  -7.528  12.583  0.00  0.00    +0.093 C 
ENDBRANCH  21  22
ENDBRANCH  15   4
ENDBRANCH  10  15
TORSDOF 5
ENDMDL
MODEL 4
REMARK VINA RESULT:      -3.1     16.804     18.823
REMARK  Name = 44716247
REMARK  8 active torsions:
REMARK  status: ('A' for Active; 'I' for Inactive)
REMARK    1  A    between atoms: N_4  and  C_15
REMARK    2  A    between atoms: N_5  and  C_17
REMARK    3  A    between atoms: C_9  and  C_16
REMARK    4  A    between atoms: C_10  and  C_15
REMARK    5  A    between atoms: C_17  and  C_19
REMARK    6  A    between atoms: C_17  and  C_20
REMARK    7  A    between atoms: C_21  and  C_22
REMARK    8  A    between atoms: C_22  and  C_23
REMARK                            x       y       z     vdW  Elec       q    Type
REMARK                         _______ _______ _______ _____ _____    ______ ____
ROOT
ATOM      3  N   UNL     1      -5.012  -8.123   9.181  0.00  0.00    -0.297 NA
ATOM      8  C   UNL     1      -6.306 -10.045  10.367  0.00  0.00    +0.005 C 
ATOM      9  C   UNL     1      -6.881  -9.763   8.964  0.00  0.00    +0.092 C 
ATOM     10  C   UNL     1      -4.133  -9.314   9.337  0.00  0.00    +0.078 C 
ATOM     11  C   UNL     1      -4.820 -10.410  10.185  0.00  0.00    +0.025 C 
ATOM     12  C   UNL     1      -6.339  -8.753  11.203  0.00  0.00    +0.020 C 
ATOM     13  C   UNL     1      -6.194  -8.518   8.372  0.00  0.00    +0.097 C 
ATOM     14  C   UNL     1      -5.510  -7.667  10.499  0.00  0.00    +0.085 C 
ENDROOT
BRANCH   9  16
ATOM      1  O   UNL     1      -9.127 -10.559   9.117  0.00  0.00    -0.275 OA
ATOM      5  N   UNL     1      -8.755  -8.274   8.868  0.00  0.00    -0.313 N 
ATOM     16  C   UNL     1      -8.371  -9.598   9.001  0.00  0.00    +0.218 C 
ATOM     24  H   UNL     1      -8.040  -7.554   8.817  0.00  0.00    +0.149 HD
BRANCH   5  17
ATOM     17  C   UNL     1     -10.137  -7.851   8.850  0.00  0.00    +0.067 C 
ATOM     19  C   UNL     1     -10.692  -7.776  10.267  0.00  0.00    +0.027 C 
ATOM     20  C   UNL     1     -10.270  -6.513   8.133  0.00  0.00    +0.027 C 
ENDBRANCH   5  17
ENDBRANCH   9  16
BRANCH  10  15
ATOM     15  C   UNL     1      -2.756  -8.947   9.894  0.00  0.00    +0.164 C 
BRANCH  15   4
ATOM      4  N   UNL     1      -2.521  -9.571  11.241  0.00  0.00    -0.250 N 
ATOM      6  N   UNL     1      -1.365 -10.199  11.512  0.00  0.00    -0.065 NA
ATOM      7  N   UNL     1      -1.442 -10.644  12.761  0.00  0.00    -0.127 NA
ATOM     18  C   UNL     1      -3.367  -9.595  12.307  0.00  0.00    +0.141 A 
ATOM     21  C   UNL     1      -2.661 -10.283  13.262  0.00  0.00    +0.147 A 
BRANCH  21  22
ATOM      2  O   UNL     1      -2.280 -10.781  15.536  0.00  0.00    -0.291 OA
ATOM     22  C   UNL     1      -3.091 -10.598  14.589  0.00  0.00    +0.181 C 
ATOM     23  C   UNL     1      -4.584 -10.733  14.927  0.00  0.00    +0.093 C 
ENDBRANCH  21  22
ENDBRANCH  15   4
ENDBRANCH  10  15
TORSDOF 5
ENDMDL
MODEL 5
REMARK VINA RESULT:      -2.3      1.103      1.374
REMARK  Name = 44716247
REMARK  8 active torsions:
REMARK  status: ('A' for Active; 'I' for Inactive)
REMARK    1  A    between atoms: N_4  and  C_15
REMARK    2  A    between atoms: N_5  and  C_17
REMARK    3  A    between atoms: C_9  and  C_16
REMARK    4  A    between atoms: C_10  and  C_15
REMARK    5  A    between atoms: C_17  and  C_19
REMARK    6  A    between atoms: C_17  and  C_20
REMARK    7  A    between atoms: C_21  and  C_22
REMARK    8  A    between atoms: C_22  and  C_23
REMARK                            x       y       z     vdW  Elec       q    Type
REMARK                         _______ _______ _______ _____ _____    ______ ____
ROOT
ATOM      3  N   UNL     1      -0.916  -0.848  25.406  0.00  0.00    -0.297 NA
ATOM      8  C   UNL     1      -0.876   0.581  23.231  0.00  0.00    +0.005 C 
ATOM      9  C   UNL     1       0.046  -0.649  23.112  0.00  0.00    +0.092 C 
ATOM     10  C   UNL     1      -2.238  -0.912  24.725  0.00  0.00    +0.078 C 
ATOM     11  C   UNL     1      -2.296   0.059  23.523  0.00  0.00    +0.025 C 
ATOM     12  C   UNL     1      -0.459   1.417  24.455  0.00  0.00    +0.020 C 
ATOM     13  C   UNL     1       0.116  -1.369  24.472  0.00  0.00    +0.097 C 
ATOM     14  C   UNL     1      -0.560   0.554  25.723  0.00  0.00    +0.085 C 
ENDROOT
BRANCH   9  16
ATOM      1  O   UNL     1       1.684  -0.215  21.430  0.00  0.00    -0.275 OA
ATOM      5  N   UNL     1       2.290  -0.022  23.669  0.00  0.00    -0.313 N 
ATOM     16  C   UNL     1       1.413  -0.268  22.627  0.00  0.00    +0.218 C 
ATOM     24  H   UNL     1       1.947  -0.058  24.624  0.00  0.00    +0.149 HD
BRANCH   5  17
ATOM     17  C   UNL     1       3.675   0.342  23.468  0.00  0.00    +0.067 C 
ATOM     19  C   UNL     1       4.578  -0.873  23.641  0.00  0.00    +0.027 C 
ATOM     20  C   UNL     1       3.860   0.978  22.096  0.00  0.00    +0.027 C 
ENDBRANCH   5  17
ENDBRANCH   9  16
BRANCH  10  15
ATOM     15  C   UNL     1      -3.399  -0.682  25.695  0.00  0.00    +0.164 C 
BRANCH  15   4
ATOM      4  N   UNL     1      -4.142   0.584  25.377  0.00  0.00    -0.250 N 
ATOM      6  N   UNL     1      -5.423   0.543  24.976  0.00  0.00    -0.065 NA
ATOM      7  N   UNL     1      -5.812   1.798  24.770  0.00  0.00    -0.127 NA
ATOM     18  C   UNL     1      -3.676   1.861  25.440  0.00  0.00    +0.141 A 
ATOM     21  C   UNL     1      -4.754   2.617  25.049  0.00  0.00    +0.147 A 
BRANCH  21  22
ATOM      2  O   UNL     1      -3.914   4.709  24.356  0.00  0.00    -0.291 OA
ATOM     22  C   UNL     1      -4.811   4.040  24.936  0.00  0.00    +0.181 C 
ATOM     23  C   UNL     1      -5.986   4.836  25.528  0.00  0.00    +0.093 C 
ENDBRANCH  21  22
ENDBRANCH  15   4
ENDBRANCH  10  15
TORSDOF 5
ENDMDL
MODEL 6
REMARK VINA RESULT:      -2.0      2.173      3.200
REMARK  Name = 44716247
REMARK  8 active torsions:
REMARK  status: ('A' for Active; 'I' for Inactive)
REMARK    1  A    between atoms: N_4  and  C_15
REMARK    2  A    between atoms: N_5  and  C_17
REMARK    3  A    between atoms: C_9  and  C_16
REMARK    4  A    between atoms: C_10  and  C_15
REMARK    5  A    between atoms: C_17  and  C_19
REMARK    6  A    between atoms: C_17  and  C_20
REMARK    7  A    between atoms: C_21  and  C_22
REMARK    8  A    between atoms: C_22  and  C_23
REMARK                            x       y       z     vdW  Elec       q    Type
REMARK                         _______ _______ _______ _____ _____    ______ ____
ROOT
ATOM      3  N   UNL     1      -0.830   3.697  23.801  0.00  0.00    -0.297 NA
ATOM      8  C   UNL     1      -0.651   1.432  25.071  0.00  0.00    +0.005 C 
ATOM      9  C   UNL     1       0.718   1.877  24.521  0.00  0.00    +0.092 C 
ATOM     10  C   UNL     1      -1.087   3.901  25.253  0.00  0.00    +0.078 C 
ATOM     11  C   UNL     1      -1.152   2.551  26.004  0.00  0.00    +0.025 C 
ATOM     12  C   UNL     1      -1.663   1.344  23.914  0.00  0.00    +0.020 C 
ATOM     13  C   UNL     1       0.534   3.131  23.643  0.00  0.00    +0.097 C 
ATOM     14  C   UNL     1      -1.786   2.718  23.235  0.00  0.00    +0.085 C 
ENDROOT
BRANCH   9  16
ATOM      1  O   UNL     1       0.800  -0.256  23.452  0.00  0.00    -0.275 OA
ATOM      5  N   UNL     1       2.720   1.060  23.489  0.00  0.00    -0.313 N 
ATOM     16  C   UNL     1       1.393   0.775  23.760  0.00  0.00    +0.218 C 
ATOM     24  H   UNL     1       3.097   1.964  23.758  0.00  0.00    +0.149 HD
BRANCH   5  17
ATOM     17  C   UNL     1       3.596   0.150  22.786  0.00  0.00    +0.067 C 
ATOM     19  C   UNL     1       3.548   0.412  21.286  0.00  0.00    +0.027 C 
ATOM     20  C   UNL     1       5.017   0.265  23.322  0.00  0.00    +0.027 C 
ENDBRANCH   5  17
ENDBRANCH   9  16
BRANCH  10  15
ATOM     15  C   UNL     1      -2.334   4.751  25.506  0.00  0.00    +0.164 C 
BRANCH  15   4
ATOM      4  N   UNL     1      -3.568   3.900  25.619  0.00  0.00    -0.250 N 
ATOM      6  N   UNL     1      -4.410   4.051  26.655  0.00  0.00    -0.065 NA
ATOM      7  N   UNL     1      -5.397   3.176  26.491  0.00  0.00    -0.127 NA
ATOM     18  C   UNL     1      -3.991   2.930  24.765  0.00  0.00    +0.141 A 
ATOM     21  C   UNL     1      -5.156   2.482  25.338  0.00  0.00    +0.147 A 
BRANCH  21  22
ATOM      2  O   UNL     1      -7.247   1.641  24.644  0.00  0.00    -0.291 OA
ATOM     22  C   UNL     1      -6.017   1.453  24.846  0.00  0.00    +0.181 C 
ATOM     23  C   UNL     1      -5.476   0.048  24.535  0.00  0.00    +0.093 C 
ENDBRANCH  21  22
ENDBRANCH  15   4
ENDBRANCH  10  15
TORSDOF 5
ENDMDL
MODEL 7
REMARK VINA RESULT:      -1.8      2.751      4.341
REMARK  Name = 44716247
REMARK  8 active torsions:
REMARK  status: ('A' for Active; 'I' for Inactive)
REMARK    1  A    between atoms: N_4  and  C_15
REMARK    2  A    between atoms: N_5  and  C_17
REMARK    3  A    between atoms: C_9  and  C_16
REMARK    4  A    between atoms: C_10  and  C_15
REMARK    5  A    between atoms: C_17  and  C_19
REMARK    6  A    between atoms: C_17  and  C_20
REMARK    7  A    between atoms: C_21  and  C_22
REMARK    8  A    between atoms: C_22  and  C_23
REMARK                            x       y       z     vdW  Elec       q    Type
REMARK                         _______ _______ _______ _____ _____    ______ ____
ROOT
ATOM      3  N   UNL     1      -0.756   1.503  23.430  0.00  0.00    -0.297 NA
ATOM      8  C   UNL     1      -1.184   0.483  25.786  0.00  0.00    +0.005 C 
ATOM      9  C   UNL     1      -0.182  -0.367  24.980  0.00  0.00    +0.092 C 
ATOM     10  C   UNL     1      -0.206   2.398  24.485  0.00  0.00    +0.078 C 
ATOM     11  C   UNL     1      -0.591   1.901  25.897  0.00  0.00    +0.025 C 
ATOM     12  C   UNL     1      -2.495   0.620  24.992  0.00  0.00    +0.020 C 
ATOM     13  C   UNL     1      -0.087   0.182  23.544  0.00  0.00    +0.097 C 
ATOM     14  C   UNL     1      -2.206   1.285  23.637  0.00  0.00    +0.085 C 
ENDROOT
BRANCH   9  16
ATOM      1  O   UNL     1       0.211  -2.687  25.386  0.00  0.00    -0.275 OA
ATOM      5  N   UNL     1      -1.830  -2.031  24.477  0.00  0.00    -0.313 N 
ATOM     16  C   UNL     1      -0.560  -1.818  24.985  0.00  0.00    +0.218 C 
ATOM     24  H   UNL     1      -2.397  -1.232  24.210  0.00  0.00    +0.149 HD
BRANCH   5  17
ATOM     17  C   UNL     1      -2.422  -3.344  24.354  0.00  0.00    +0.067 C 
ATOM     19  C   UNL     1      -3.942  -3.247  24.337  0.00  0.00    +0.027 C 
ATOM     20  C   UNL     1      -1.899  -4.045  23.106  0.00  0.00    +0.027 C 
ENDBRANCH   5  17
ENDBRANCH   9  16
BRANCH  10  15
ATOM     15  C   UNL     1      -0.605   3.859  24.269  0.00  0.00    +0.164 C 
BRANCH  15   4
ATOM      4  N   UNL     1      -1.948   4.159  24.873  0.00  0.00    -0.250 N 
ATOM      6  N   UNL     1      -2.079   5.112  25.810  0.00  0.00    -0.065 NA
ATOM      7  N   UNL     1      -3.362   5.153  26.154  0.00  0.00    -0.127 NA
ATOM     18  C   UNL     1      -3.140   3.565  24.590  0.00  0.00    +0.141 A 
ATOM     21  C   UNL     1      -4.025   4.212  25.416  0.00  0.00    +0.147 A 
BRANCH  21  22
ATOM      2  O   UNL     1      -6.260   4.905  25.715  0.00  0.00    -0.291 OA
ATOM     22  C   UNL     1      -5.431   3.975  25.525  0.00  0.00    +0.181 C 
ATOM     23  C   UNL     1      -6.006   2.554  25.415  0.00  0.00    +0.093 C 
ENDBRANCH  21  22
ENDBRANCH  15   4
ENDBRANCH  10  15
TORSDOF 5
ENDMDL
MODEL 8
REMARK VINA RESULT:      -1.2      2.149      7.954
REMARK  Name = 44716247
REMARK  8 active torsions:
REMARK  status: ('A' for Active; 'I' for Inactive)
REMARK    1  A    between atoms: N_4  and  C_15
REMARK    2  A    between atoms: N_5  and  C_17
REMARK    3  A    between atoms: C_9  and  C_16
REMARK    4  A    between atoms: C_10  and  C_15
REMARK    5  A    between atoms: C_17  and  C_19
REMARK    6  A    between atoms: C_17  and  C_20
REMARK    7  A    between atoms: C_21  and  C_22
REMARK    8  A    between atoms: C_22  and  C_23
REMARK                            x       y       z     vdW  Elec       q    Type
REMARK                         _______ _______ _______ _____ _____    ______ ____
ROOT
ATOM      3  N   UNL     1      -1.227   2.373  23.311  0.00  0.00    -0.297 NA
ATOM      8  C   UNL     1      -1.480   1.046  25.535  0.00  0.00    +0.005 C 
ATOM      9  C   UNL     1      -2.577   0.660  24.523  0.00  0.00    +0.092 C 
ATOM     10  C   UNL     1      -0.086   1.432  23.481  0.00  0.00    +0.078 C 
ATOM     11  C   UNL     1      -0.123   0.753  24.869  0.00  0.00    +0.025 C 
ATOM     12  C   UNL     1      -1.525   2.564  25.784  0.00  0.00    +0.020 C 
ATOM     13  C   UNL     1      -2.485   1.582  23.293  0.00  0.00    +0.097 C 
ATOM     14  C   UNL     1      -1.306   3.307  24.457  0.00  0.00    +0.085 C 
ENDROOT
BRANCH   9  16
ATOM      1  O   UNL     1      -4.491  -0.294  25.586  0.00  0.00    -0.275 OA
ATOM      5  N   UNL     1      -4.480   1.987  25.121  0.00  0.00    -0.313 N 
ATOM     16  C   UNL     1      -3.942   0.712  25.142  0.00  0.00    +0.218 C 
ATOM     24  H   UNL     1      -3.919   2.754  24.762  0.00  0.00    +0.149 HD
BRANCH   5  17
ATOM     17  C   UNL     1      -5.793   2.300  25.636  0.00  0.00    +0.067 C 
ATOM     19  C   UNL     1      -5.957   3.805  25.807  0.00  0.00    +0.027 C 
ATOM     20  C   UNL     1      -6.870   1.726  24.724  0.00  0.00    +0.027 C 
ENDBRANCH   5  17
ENDBRANCH   9  16
BRANCH  10  15
ATOM     15  C   UNL     1       1.262   2.105  23.214  0.00  0.00    +0.164 C 
BRANCH  15   4
ATOM      4  N   UNL     1       2.368   1.095  23.092  0.00  0.00    -0.250 N 
ATOM      6  N   UNL     1       2.127  -0.127  22.588  0.00  0.00    -0.065 NA
ATOM      7  N   UNL     1       3.277  -0.793  22.603  0.00  0.00    -0.127 NA
ATOM     18  C   UNL     1       3.675   1.245  23.440  0.00  0.00    +0.141 A 
ATOM     21  C   UNL     1       4.235   0.033  23.121  0.00  0.00    +0.147 A 
BRANCH  21  22
ATOM      2  O   UNL     1       6.431  -0.322  22.339  0.00  0.00    -0.291 OA
ATOM     22  C   UNL     1       5.601  -0.354  23.287  0.00  0.00    +0.181 C 
ATOM     23  C   UNL     1       6.129  -0.836  24.647  0.00  0.00    +0.093 C 
ENDBRANCH  21  22
ENDBRANCH  15   4
ENDBRANCH  10  15
TORSDOF 5
ENDMDL
MODEL 9
REMARK VINA RESULT:      -0.3      2.718      6.187
REMARK  Name = 44716247
REMARK  8 active torsions:
REMARK  status: ('A' for Active; 'I' for Inactive)
REMARK    1  A    between atoms: N_4  and  C_15
REMARK    2  A    between atoms: N_5  and  C_17
REMARK    3  A    between atoms: C_9  and  C_16
REMARK    4  A    between atoms: C_10  and  C_15
REMARK    5  A    between atoms: C_17  and  C_19
REMARK    6  A    between atoms: C_17  and  C_20
REMARK    7  A    between atoms: C_21  and  C_22
REMARK    8  A    between atoms: C_22  and  C_23
REMARK                            x       y       z     vdW  Elec       q    Type
REMARK                         _______ _______ _______ _____ _____    ______ ____
ROOT
ATOM      3  N   UNL     1       0.279   1.542  25.179  0.00  0.00    -0.297 NA
ATOM      8  C   UNL     1      -1.761   2.310  23.756  0.00  0.00    +0.005 C 
ATOM      9  C   UNL     1      -0.945   3.515  24.264  0.00  0.00    +0.092 C 
ATOM     10  C   UNL     1       0.462   1.138  23.758  0.00  0.00    +0.078 C 
ATOM     11  C   UNL     1      -0.806   1.432  22.924  0.00  0.00    +0.025 C 
ATOM     12  C   UNL     1      -2.208   1.452  24.954  0.00  0.00    +0.020 C 
ATOM     13  C   UNL     1       0.149   3.021  25.230  0.00  0.00    +0.097 C 
ATOM     14  C   UNL     1      -0.971   0.967  25.727  0.00  0.00    +0.085 C 
ENDROOT
BRANCH   9  16
ATOM      1  O   UNL     1      -1.424   5.677  25.157  0.00  0.00    -0.275 OA
ATOM      5  N   UNL     1      -3.080   4.043  25.213  0.00  0.00    -0.313 N 
ATOM     16  C   UNL     1      -1.824   4.541  24.916  0.00  0.00    +0.218 C 
ATOM     24  H   UNL     1      -3.316   3.095  24.932  0.00  0.00    +0.149 HD
BRANCH   5  17
ATOM     17  C   UNL     1      -4.107   4.825  25.864  0.00  0.00    +0.067 C 
ATOM     19  C   UNL     1      -5.489   4.275  25.533  0.00  0.00    +0.027 C 
ATOM     20  C   UNL     1      -3.872   4.860  27.368  0.00  0.00    +0.027 C 
ENDBRANCH   5  17
ENDBRANCH   9  16
BRANCH  10  15
ATOM     15  C   UNL     1       0.902  -0.322  23.625  0.00  0.00    +0.164 C 
BRANCH  15   4
ATOM      4  N   UNL     1      -0.153  -1.264  24.131  0.00  0.00    -0.250 N 
ATOM      6  N   UNL     1       0.124  -2.140  25.111  0.00  0.00    -0.065 NA
ATOM      7  N   UNL     1      -0.986  -2.833  25.347  0.00  0.00    -0.127 NA
ATOM     18  C   UNL     1      -1.444  -1.370  23.714  0.00  0.00    +0.141 A 
ATOM     21  C   UNL     1      -1.955  -2.373  24.500  0.00  0.00    +0.147 A 
BRANCH  21  22
ATOM      2  O   UNL     1      -3.601  -3.975  25.038  0.00  0.00    -0.291 OA
ATOM     22  C   UNL     1      -3.287  -2.893  24.474  0.00  0.00    +0.181 C 
ATOM     23  C   UNL     1      -4.415  -2.146  23.744  0.00  0.00    +0.093 C 
ENDBRANCH  21  22
ENDBRANCH  15   4
ENDBRANCH  10  15
TORSDOF 5
ENDMDL
