MODEL 1
REMARK VINA RESULT:       6.6      0.000      0.000
REMARK  Name = 45783983
REMARK  13 active torsions:
REMARK  status: ('A' for Active; 'I' for Inactive)
REMARK    1  A    between atoms: N_3  and  C_13
REMARK    2  A    between atoms: N_7  and  C_33
REMARK    3  A    between atoms: N_7  and  C_34
REMARK    4  A    between atoms: N_7  and  C_35
REMARK    5  A    between atoms: C_8  and  C_12
REMARK    6  A    between atoms: C_9  and  C_13
REMARK    7  A    between atoms: C_11  and  C_16
REMARK    8  A    between atoms: C_12  and  C_22
REMARK    9  A    between atoms: C_12  and  C_23
REMARK   10  A    between atoms: C_15  and  C_24
REMARK   11  A    between atoms: C_16  and  C_25
REMARK   12  A    between atoms: C_19  and  C_26
REMARK   13  A    between atoms: C_27  and  C_28
REMARK                            x       y       z     vdW  Elec       q    Type
REMARK                         _______ _______ _______ _____ _____    ______ ____
ROOT
ATOM      8  C   UNL     1      -3.186   2.959  23.607  0.00  0.00    +0.000 C 
ATOM      9  C   UNL     1      -3.773   3.958  24.631  0.00  0.00    +0.029 C 
ATOM     10  C   UNL     1      -3.208   1.532  24.174  0.00  0.00    +0.012 C 
ATOM     11  C   UNL     1      -4.617   1.065  24.599  0.00  0.00    +0.024 C 
ATOM     14  C   UNL     1      -5.029   3.444  25.287  0.00  0.00    -0.023 C 
ATOM     15  C   UNL     1      -5.429   2.160  25.273  0.00  0.00    -0.073 C 
ATOM     24  C   UNL     1      -6.746   1.770  25.887  0.00  0.00    +0.039 C 
ENDROOT
BRANCH   8  12
ATOM     12  C   UNL     1      -3.926   3.034  22.265  0.00  0.00    -0.013 C 
ATOM     22  C   UNL     1      -3.074   2.431  21.153  0.00  0.00    +0.007 C 
ATOM     23  C   UNL     1      -4.296   4.477  21.941  0.00  0.00    +0.007 C 
ENDBRANCH   8  12
BRANCH   9  13
ATOM     13  C   UNL     1      -2.752   4.325  25.714  0.00  0.00    +0.092 C 
BRANCH  13   3
ATOM      3  N   UNL     1      -1.619   3.399  25.691  0.00  0.00    -0.302 NA
ATOM     17  C   UNL     1      -0.353   4.141  25.642  0.00  0.00    +0.085 C 
ATOM     18  C   UNL     1      -1.661   2.508  26.858  0.00  0.00    +0.085 C 
ATOM     19  C   UNL     1       0.854   2.137  26.646  0.00  0.00    +0.077 C 
ATOM     20  C   UNL     1       0.840   3.188  25.537  0.00  0.00    +0.028 C 
ATOM     21  C   UNL     1      -0.518   1.489  26.820  0.00  0.00    +0.028 C 
BRANCH  19  26
ATOM      2  O   UNL     1       2.263   3.548  27.968  0.00  0.00    -0.276 OA
ATOM      5  N   UNL     1       0.657   2.299  29.043  0.00  0.00    -0.329 N 
ATOM     26  C   UNL     1       1.335   2.744  27.932  0.00  0.00    +0.214 C 
ATOM     36  H   UNL     1      -0.070   1.592  28.998  0.00  0.00    +0.145 HD
ATOM     37  H   UNL     1       0.895   2.642  29.967  0.00  0.00    +0.145 HD
ENDBRANCH  19  26
ENDBRANCH  13   3
ENDBRANCH   9  13
BRANCH  11  16
ATOM     16  C   UNL     1      -4.474  -0.193  25.466  0.00  0.00    +0.105 C 
BRANCH  16  25
ATOM      1  O   UNL     1      -2.140  -0.369  24.778  0.00  0.00    -0.420 OA
ATOM      4  N   UNL     1      -3.222  -2.325  24.858  0.00  0.00    -0.112 NA
ATOM      6  N   UNL     1      -1.922  -2.572  24.457  0.00  0.00    -0.107 NA
ATOM     25  C   UNL     1      -3.303  -1.027  25.033  0.00  0.00    +0.218 A 
ATOM     27  C   UNL     1      -1.327  -1.403  24.424  0.00  0.00    +0.248 A 
BRANCH  27  28
ATOM     28  C   UNL     1       0.020  -1.053  24.081  0.00  0.00    +0.039 A 
ATOM     29  C   UNL     1       0.273   0.108  23.348  0.00  0.00    +0.015 A 
ATOM     30  C   UNL     1       1.078  -1.869  24.480  0.00  0.00    +0.015 A 
ATOM     31  C   UNL     1       1.584   0.448  23.014  0.00  0.00    +0.024 A 
ATOM     32  C   UNL     1       2.388  -1.528  24.147  0.00  0.00    +0.024 A 
ATOM     33  C   UNL     1       2.641  -0.368  23.413  0.00  0.00    +0.029 A 
BRANCH  33   7
ATOM      7  N   UNL     1       3.966  -0.023  23.075  0.00  0.00    -0.336 N 
ATOM     34  C   UNL     1       4.227   0.938  22.021  0.00  0.00    +0.129 C 
ATOM     35  C   UNL     1       5.083  -0.619  23.780  0.00  0.00    +0.129 C 
ENDBRANCH  33   7
ENDBRANCH  27  28
ENDBRANCH  16  25
ENDBRANCH  11  16
TORSDOF 8
ENDMDL
MODEL 2
REMARK VINA RESULT:       7.0      1.436      1.798
REMARK  Name = 45783983
REMARK  13 active torsions:
REMARK  status: ('A' for Active; 'I' for Inactive)
REMARK    1  A    between atoms: N_3  and  C_13
REMARK    2  A    between atoms: N_7  and  C_33
REMARK    3  A    between atoms: N_7  and  C_34
REMARK    4  A    between atoms: N_7  and  C_35
REMARK    5  A    between atoms: C_8  and  C_12
REMARK    6  A    between atoms: C_9  and  C_13
REMARK    7  A    between atoms: C_11  and  C_16
REMARK    8  A    between atoms: C_12  and  C_22
REMARK    9  A    between atoms: C_12  and  C_23
REMARK   10  A    between atoms: C_15  and  C_24
REMARK   11  A    between atoms: C_16  and  C_25
REMARK   12  A    between atoms: C_19  and  C_26
REMARK   13  A    between atoms: C_27  and  C_28
REMARK                            x       y       z     vdW  Elec       q    Type
REMARK                         _______ _______ _______ _____ _____    ______ ____
ROOT
ATOM      8  C   UNL     1      -3.460   2.952  24.240  0.00  0.00    +0.000 C 
ATOM      9  C   UNL     1      -4.509   3.729  25.069  0.00  0.00    +0.029 C 
ATOM     10  C   UNL     1      -3.378   1.492  24.708  0.00  0.00    +0.012 C 
ATOM     11  C   UNL     1      -4.732   0.753  24.646  0.00  0.00    +0.024 C 
ATOM     14  C   UNL     1      -5.781   2.947  25.272  0.00  0.00    -0.023 C 
ATOM     15  C   UNL     1      -5.904   1.621  25.077  0.00  0.00    -0.073 C 
ATOM     24  C   UNL     1      -7.244   0.954  25.226  0.00  0.00    +0.039 C 
ENDROOT
BRANCH   8  12
ATOM     12  C   UNL     1      -3.760   3.037  22.737  0.00  0.00    -0.013 C 
ATOM     22  C   UNL     1      -2.666   2.340  21.936  0.00  0.00    +0.007 C 
ATOM     23  C   UNL     1      -3.904   4.492  22.305  0.00  0.00    +0.007 C 
ENDBRANCH   8  12
BRANCH   9  13
ATOM     13  C   UNL     1      -3.953   4.150  26.434  0.00  0.00    +0.092 C 
BRANCH  13   3
ATOM      3  N   UNL     1      -2.507   4.361  26.361  0.00  0.00    -0.302 NA
ATOM     17  C   UNL     1      -1.791   3.120  26.679  0.00  0.00    +0.085 C 
ATOM     18  C   UNL     1      -2.128   4.860  25.033  0.00  0.00    +0.085 C 
ATOM     19  C   UNL     1       0.233   3.960  25.384  0.00  0.00    +0.077 C 
ATOM     20  C   UNL     1      -0.276   3.342  26.685  0.00  0.00    +0.028 C 
ATOM     21  C   UNL     1      -0.626   5.148  24.955  0.00  0.00    +0.028 C 
BRANCH  19  26
ATOM      2  O   UNL     1      -0.179   3.106  23.188  0.00  0.00    -0.276 OA
ATOM      5  N   UNL     1       0.915   1.753  24.694  0.00  0.00    -0.329 N 
ATOM     26  C   UNL     1       0.298   2.919  24.304  0.00  0.00    +0.214 C 
ATOM     36  H   UNL     1       1.254   1.598  25.638  0.00  0.00    +0.145 HD
ATOM     37  H   UNL     1       1.018   0.980  24.046  0.00  0.00    +0.145 HD
ENDBRANCH  19  26
ENDBRANCH  13   3
ENDBRANCH   9  13
BRANCH  11  16
ATOM     16  C   UNL     1      -4.619  -0.544  25.457  0.00  0.00    +0.105 C 
BRANCH  16  25
ATOM      1  O   UNL     1      -2.293  -0.698  24.737  0.00  0.00    -0.420 OA
ATOM      4  N   UNL     1      -3.350  -2.666  24.847  0.00  0.00    -0.112 NA
ATOM      6  N   UNL     1      -2.053  -2.901  24.428  0.00  0.00    -0.107 NA
ATOM     25  C   UNL     1      -3.445  -1.368  25.014  0.00  0.00    +0.218 A 
ATOM     27  C   UNL     1      -1.473  -1.725  24.379  0.00  0.00    +0.248 A 
BRANCH  27  28
ATOM     28  C   UNL     1      -0.135  -1.361  24.014  0.00  0.00    +0.039 A 
ATOM     29  C   UNL     1       0.083  -0.487  22.948  0.00  0.00    +0.015 A 
ATOM     30  C   UNL     1       0.948  -1.879  24.723  0.00  0.00    +0.015 A 
ATOM     31  C   UNL     1       1.385  -0.133  22.593  0.00  0.00    +0.024 A 
ATOM     32  C   UNL     1       2.249  -1.524  24.369  0.00  0.00    +0.024 A 
ATOM     33  C   UNL     1       2.467  -0.651  23.302  0.00  0.00    +0.029 A 
BRANCH  33   7
ATOM      7  N   UNL     1       3.783  -0.293  22.942  0.00  0.00    -0.336 N 
ATOM     34  C   UNL     1       4.020   0.601  21.826  0.00  0.00    +0.129 C 
ATOM     35  C   UNL     1       4.915  -0.809  23.687  0.00  0.00    +0.129 C 
ENDBRANCH  33   7
ENDBRANCH  27  28
ENDBRANCH  16  25
ENDBRANCH  11  16
TORSDOF 8
ENDMDL
MODEL 3
REMARK VINA RESULT:       8.4      2.319      5.150
REMARK  Name = 45783983
REMARK  13 active torsions:
REMARK  status: ('A' for Active; 'I' for Inactive)
REMARK    1  A    between atoms: N_3  and  C_13
REMARK    2  A    between atoms: N_7  and  C_33
REMARK    3  A    between atoms: N_7  and  C_34
REMARK    4  A    between atoms: N_7  and  C_35
REMARK    5  A    between atoms: C_8  and  C_12
REMARK    6  A    between atoms: C_9  and  C_13
REMARK    7  A    between atoms: C_11  and  C_16
REMARK    8  A    between atoms: C_12  and  C_22
REMARK    9  A    between atoms: C_12  and  C_23
REMARK   10  A    between atoms: C_15  and  C_24
REMARK   11  A    between atoms: C_16  and  C_25
REMARK   12  A    between atoms: C_19  and  C_26
REMARK   13  A    between atoms: C_27  and  C_28
REMARK                            x       y       z     vdW  Elec       q    Type
REMARK                         _______ _______ _______ _____ _____    ______ ____
ROOT
ATOM      8  C   UNL     1      -1.141   3.888  24.334  0.00  0.00    +0.000 C 
ATOM      9  C   UNL     1      -0.741   2.892  25.447  0.00  0.00    +0.029 C 
ATOM     10  C   UNL     1      -2.664   4.080  24.305  0.00  0.00    +0.012 C 
ATOM     11  C   UNL     1      -3.246   4.554  25.654  0.00  0.00    +0.024 C 
ATOM     14  C   UNL     1      -1.479   3.139  26.738  0.00  0.00    -0.023 C 
ATOM     15  C   UNL     1      -2.591   3.887  26.853  0.00  0.00    -0.073 C 
ATOM     24  C   UNL     1      -3.198   4.139  28.206  0.00  0.00    +0.039 C 
ENDROOT
BRANCH   8  12
ATOM     12  C   UNL     1      -0.416   5.231  24.500  0.00  0.00    -0.013 C 
ATOM     22  C   UNL     1      -1.422   6.352  24.739  0.00  0.00    +0.007 C 
ATOM     23  C   UNL     1       0.442   5.527  23.274  0.00  0.00    +0.007 C 
ENDBRANCH   8  12
BRANCH   9  13
ATOM     13  C   UNL     1      -0.961   1.439  25.011  0.00  0.00    +0.092 C 
BRANCH  13   3
ATOM      3  N   UNL     1      -0.112   1.108  23.866  0.00  0.00    -0.302 NA
ATOM     17  C   UNL     1       1.164   1.829  23.950  0.00  0.00    +0.085 C 
ATOM     18  C   UNL     1       0.109  -0.342  23.793  0.00  0.00    +0.085 C 
ATOM     19  C   UNL     1       2.253   0.066  22.472  0.00  0.00    +0.077 C 
ATOM     20  C   UNL     1       2.033   1.557  22.720  0.00  0.00    +0.028 C 
ATOM     21  C   UNL     1       0.944  -0.716  22.565  0.00  0.00    +0.028 C 
BRANCH  19  26
ATOM      2  O   UNL     1       3.207  -1.614  23.884  0.00  0.00    -0.276 OA
ATOM      5  N   UNL     1       4.266   0.424  23.750  0.00  0.00    -0.329 N 
ATOM     26  C   UNL     1       3.277  -0.475  23.428  0.00  0.00    +0.214 C 
ATOM     36  H   UNL     1       4.275   1.379  23.406  0.00  0.00    +0.145 HD
ATOM     37  H   UNL     1       5.012   0.168  24.387  0.00  0.00    +0.145 HD
ENDBRANCH  19  26
ENDBRANCH  13   3
ENDBRANCH   9  13
BRANCH  11  16
ATOM     16  C   UNL     1      -4.768   4.364  25.623  0.00  0.00    +0.105 C 
BRANCH  16  25
ATOM      1  O   UNL     1      -4.322   2.011  25.161  0.00  0.00    -0.420 OA
ATOM      4  N   UNL     1      -6.167   2.372  26.372  0.00  0.00    -0.112 NA
ATOM      6  N   UNL     1      -6.038   1.008  26.187  0.00  0.00    -0.107 NA
ATOM     25  C   UNL     1      -5.144   2.917  25.756  0.00  0.00    +0.218 A 
ATOM     27  C   UNL     1      -4.948   0.844  25.476  0.00  0.00    +0.248 A 
BRANCH  27  28
ATOM     28  C   UNL     1      -4.326  -0.353  24.988  0.00  0.00    +0.039 A 
ATOM     29  C   UNL     1      -3.241  -0.903  25.672  0.00  0.00    +0.015 A 
ATOM     30  C   UNL     1      -4.805  -0.968  23.831  0.00  0.00    +0.015 A 
ATOM     31  C   UNL     1      -2.636  -2.067  25.197  0.00  0.00    +0.024 A 
ATOM     32  C   UNL     1      -4.201  -2.131  23.357  0.00  0.00    +0.024 A 
ATOM     33  C   UNL     1      -3.115  -2.681  24.040  0.00  0.00    +0.029 A 
BRANCH  33   7
ATOM      7  N   UNL     1      -2.503  -3.857  23.561  0.00  0.00    -0.336 N 
ATOM     34  C   UNL     1      -3.307  -4.933  23.016  0.00  0.00    +0.129 C 
ATOM     35  C   UNL     1      -1.061  -4.004  23.599  0.00  0.00    +0.129 C 
ENDBRANCH  33   7
ENDBRANCH  27  28
ENDBRANCH  16  25
ENDBRANCH  11  16
TORSDOF 8
ENDMDL
MODEL 4
REMARK VINA RESULT:       8.7      2.205      4.465
REMARK  Name = 45783983
REMARK  13 active torsions:
REMARK  status: ('A' for Active; 'I' for Inactive)
REMARK    1  A    between atoms: N_3  and  C_13
REMARK    2  A    between atoms: N_7  and  C_33
REMARK    3  A    between atoms: N_7  and  C_34
REMARK    4  A    between atoms: N_7  and  C_35
REMARK    5  A    between atoms: C_8  and  C_12
REMARK    6  A    between atoms: C_9  and  C_13
REMARK    7  A    between atoms: C_11  and  C_16
REMARK    8  A    between atoms: C_12  and  C_22
REMARK    9  A    between atoms: C_12  and  C_23
REMARK   10  A    between atoms: C_15  and  C_24
REMARK   11  A    between atoms: C_16  and  C_25
REMARK   12  A    between atoms: C_19  and  C_26
REMARK   13  A    between atoms: C_27  and  C_28
REMARK                            x       y       z     vdW  Elec       q    Type
REMARK                         _______ _______ _______ _____ _____    ______ ____
ROOT
ATOM      8  C   UNL     1      -4.703   1.914  25.695  0.00  0.00    +0.000 C 
ATOM      9  C   UNL     1      -5.238   1.974  24.245  0.00  0.00    +0.029 C 
ATOM     10  C   UNL     1      -3.229   2.338  25.742  0.00  0.00    +0.012 C 
ATOM     11  C   UNL     1      -2.979   3.746  25.160  0.00  0.00    +0.024 C 
ATOM     14  C   UNL     1      -4.806   3.222  23.520  0.00  0.00    -0.023 C 
ATOM     15  C   UNL     1      -3.809   4.033  23.918  0.00  0.00    -0.073 C 
ATOM     24  C   UNL     1      -3.517   5.302  23.165  0.00  0.00    +0.039 C 
ENDROOT
BRANCH   8  12
ATOM     12  C   UNL     1      -5.557   2.768  26.642  0.00  0.00    -0.013 C 
ATOM     22  C   UNL     1      -6.700   1.941  27.219  0.00  0.00    +0.007 C 
ATOM     23  C   UNL     1      -6.093   3.996  25.913  0.00  0.00    +0.007 C 
ENDBRANCH   8  12
BRANCH   9  13
ATOM     13  C   UNL     1      -4.812   0.746  23.433  0.00  0.00    +0.092 C 
BRANCH  13   3
ATOM      3  N   UNL     1      -4.476  -0.369  24.319  0.00  0.00    -0.302 NA
ATOM     17  C   UNL     1      -4.129  -1.560  23.534  0.00  0.00    +0.085 C 
ATOM     18  C   UNL     1      -3.378   0.004  25.220  0.00  0.00    +0.085 C 
ATOM     19  C   UNL     1      -2.791  -2.463  25.502  0.00  0.00    +0.077 C 
ATOM     20  C   UNL     1      -3.853  -2.760  24.444  0.00  0.00    +0.028 C 
ATOM     21  C   UNL     1      -3.053  -1.128  26.198  0.00  0.00    +0.028 C 
BRANCH  19  26
ATOM      2  O   UNL     1      -1.184  -3.117  23.856  0.00  0.00    -0.276 OA
ATOM      5  N   UNL     1      -0.478  -1.792  25.600  0.00  0.00    -0.329 N 
ATOM     26  C   UNL     1      -1.421  -2.496  24.889  0.00  0.00    +0.214 C 
ATOM     36  H   UNL     1      -0.683  -1.332  26.481  0.00  0.00    +0.145 HD
ATOM     37  H   UNL     1       0.483  -1.743  25.279  0.00  0.00    +0.145 HD
ENDBRANCH  19  26
ENDBRANCH  13   3
ENDBRANCH   9  13
BRANCH  11  16
ATOM     16  C   UNL     1      -1.472   3.917  24.924  0.00  0.00    +0.105 C 
BRANCH  16  25
ATOM      1  O   UNL     1       0.408   2.482  24.328  0.00  0.00    -0.420 OA
ATOM      4  N   UNL     1      -1.496   1.987  23.263  0.00  0.00    -0.112 NA
ATOM      6  N   UNL     1      -0.523   1.103  22.832  0.00  0.00    -0.107 NA
ATOM     25  C   UNL     1      -0.907   2.773  24.134  0.00  0.00    +0.218 A 
ATOM     27  C   UNL     1       0.570   1.428  23.480  0.00  0.00    +0.248 A 
BRANCH  27  28
ATOM     28  C   UNL     1       1.885   0.857  23.435  0.00  0.00    +0.039 A 
ATOM     29  C   UNL     1       2.981   1.656  23.105  0.00  0.00    +0.015 A 
ATOM     30  C   UNL     1       2.069  -0.495  23.721  0.00  0.00    +0.015 A 
ATOM     31  C   UNL     1       4.259   1.100  23.061  0.00  0.00    +0.024 A 
ATOM     32  C   UNL     1       3.348  -1.050  23.677  0.00  0.00    +0.024 A 
ATOM     33  C   UNL     1       4.443  -0.252  23.347  0.00  0.00    +0.029 A 
BRANCH  33   7
ATOM      7  N   UNL     1       5.736  -0.813  23.301  0.00  0.00    -0.336 N 
ATOM     34  C   UNL     1       5.920  -2.244  23.445  0.00  0.00    +0.129 C 
ATOM     35  C   UNL     1       6.898   0.032  23.104  0.00  0.00    +0.129 C 
ENDBRANCH  33   7
ENDBRANCH  27  28
ENDBRANCH  16  25
ENDBRANCH  11  16
TORSDOF 8
ENDMDL
MODEL 5
REMARK VINA RESULT:       8.7      2.165      5.560
REMARK  Name = 45783983
REMARK  13 active torsions:
REMARK  status: ('A' for Active; 'I' for Inactive)
REMARK    1  A    between atoms: N_3  and  C_13
REMARK    2  A    between atoms: N_7  and  C_33
REMARK    3  A    between atoms: N_7  and  C_34
REMARK    4  A    between atoms: N_7  and  C_35
REMARK    5  A    between atoms: C_8  and  C_12
REMARK    6  A    between atoms: C_9  and  C_13
REMARK    7  A    between atoms: C_11  and  C_16
REMARK    8  A    between atoms: C_12  and  C_22
REMARK    9  A    between atoms: C_12  and  C_23
REMARK   10  A    between atoms: C_15  and  C_24
REMARK   11  A    between atoms: C_16  and  C_25
REMARK   12  A    between atoms: C_19  and  C_26
REMARK   13  A    between atoms: C_27  and  C_28
REMARK                            x       y       z     vdW  Elec       q    Type
REMARK                         _______ _______ _______ _____ _____    ______ ____
ROOT
ATOM      8  C   UNL     1      -2.700  -0.325  24.393  0.00  0.00    +0.000 C 
ATOM      9  C   UNL     1      -1.477  -0.106  23.472  0.00  0.00    +0.029 C 
ATOM     10  C   UNL     1      -3.436   1.000  24.635  0.00  0.00    +0.012 C 
ATOM     11  C   UNL     1      -3.890   1.694  23.334  0.00  0.00    +0.024 C 
ATOM     14  C   UNL     1      -1.788   0.791  22.301  0.00  0.00    -0.023 C 
ATOM     15  C   UNL     1      -2.866   1.592  22.214  0.00  0.00    -0.073 C 
ATOM     24  C   UNL     1      -3.124   2.382  20.961  0.00  0.00    +0.039 C 
ENDROOT
BRANCH   8  12
ATOM     12  C   UNL     1      -3.647  -1.389  23.821  0.00  0.00    -0.013 C 
ATOM     22  C   UNL     1      -5.090  -1.075  24.199  0.00  0.00    +0.007 C 
ATOM     23  C   UNL     1      -3.248  -2.776  24.313  0.00  0.00    +0.007 C 
ENDBRANCH   8  12
BRANCH   9  13
ATOM     13  C   UNL     1      -0.283   0.468  24.243  0.00  0.00    +0.092 C 
BRANCH  13   3
ATOM      3  N   UNL     1       0.860   0.669  23.351  0.00  0.00    -0.302 NA
ATOM     17  C   UNL     1       1.896   1.468  24.018  0.00  0.00    +0.085 C 
ATOM     18  C   UNL     1       1.398  -0.624  22.908  0.00  0.00    +0.085 C 
ATOM     19  C   UNL     1       3.652   0.485  22.460  0.00  0.00    +0.077 C 
ATOM     20  C   UNL     1       3.065   1.755  23.073  0.00  0.00    +0.028 C 
ATOM     21  C   UNL     1       2.557  -0.436  21.924  0.00  0.00    +0.028 C 
BRANCH  19  26
ATOM      2  O   UNL     1       4.450  -1.439  23.636  0.00  0.00    -0.276 OA
ATOM      5  N   UNL     1       5.356   0.610  24.160  0.00  0.00    -0.329 N 
ATOM     26  C   UNL     1       4.517  -0.225  23.461  0.00  0.00    +0.214 C 
ATOM     36  H   UNL     1       5.356   1.617  24.040  0.00  0.00    +0.145 HD
ATOM     37  H   UNL     1       5.987   0.240  24.863  0.00  0.00    +0.145 HD
ENDBRANCH  19  26
ENDBRANCH  13   3
ENDBRANCH   9  13
BRANCH  11  16
ATOM     16  C   UNL     1      -4.275   3.143  23.661  0.00  0.00    +0.105 C 
BRANCH  16  25
ATOM      1  O   UNL     1      -2.528   3.049  25.361  0.00  0.00    -0.420 OA
ATOM      4  N   UNL     1      -4.247   4.382  25.885  0.00  0.00    -0.112 NA
ATOM      6  N   UNL     1      -3.340   4.423  26.928  0.00  0.00    -0.107 NA
ATOM     25  C   UNL     1      -3.732   3.567  24.994  0.00  0.00    +0.218 A 
ATOM     27  C   UNL     1      -2.354   3.631  26.579  0.00  0.00    +0.248 A 
BRANCH  27  28
ATOM     28  C   UNL     1      -1.143   3.291  27.269  0.00  0.00    +0.039 A 
ATOM     29  C   UNL     1      -1.114   3.284  28.665  0.00  0.00    +0.015 A 
ATOM     30  C   UNL     1       0.005   2.966  26.547  0.00  0.00    +0.015 A 
ATOM     31  C   UNL     1       0.063   2.953  29.335  0.00  0.00    +0.024 A 
ATOM     32  C   UNL     1       1.181   2.635  27.217  0.00  0.00    +0.024 A 
ATOM     33  C   UNL     1       1.210   2.628  28.612  0.00  0.00    +0.029 A 
BRANCH  33   7
ATOM      7  N   UNL     1       2.400   2.294  29.291  0.00  0.00    -0.336 N 
ATOM     34  C   UNL     1       3.690   2.580  28.694  0.00  0.00    +0.129 C 
ATOM     35  C   UNL     1       2.350   1.667  30.597  0.00  0.00    +0.129 C 
ENDBRANCH  33   7
ENDBRANCH  27  28
ENDBRANCH  16  25
ENDBRANCH  11  16
TORSDOF 8
ENDMDL
MODEL 6
REMARK VINA RESULT:       8.9      1.290      2.682
REMARK  Name = 45783983
REMARK  13 active torsions:
REMARK  status: ('A' for Active; 'I' for Inactive)
REMARK    1  A    between atoms: N_3  and  C_13
REMARK    2  A    between atoms: N_7  and  C_33
REMARK    3  A    between atoms: N_7  and  C_34
REMARK    4  A    between atoms: N_7  and  C_35
REMARK    5  A    between atoms: C_8  and  C_12
REMARK    6  A    between atoms: C_9  and  C_13
REMARK    7  A    between atoms: C_11  and  C_16
REMARK    8  A    between atoms: C_12  and  C_22
REMARK    9  A    between atoms: C_12  and  C_23
REMARK   10  A    between atoms: C_15  and  C_24
REMARK   11  A    between atoms: C_16  and  C_25
REMARK   12  A    between atoms: C_19  and  C_26
REMARK   13  A    between atoms: C_27  and  C_28
REMARK                            x       y       z     vdW  Elec       q    Type
REMARK                         _______ _______ _______ _____ _____    ______ ____
ROOT
ATOM      8  C   UNL     1      -5.755   2.343  24.479  0.00  0.00    +0.000 C 
ATOM      9  C   UNL     1      -4.296   2.779  24.749  0.00  0.00    +0.029 C 
ATOM     10  C   UNL     1      -5.793   0.920  23.903  0.00  0.00    +0.012 C 
ATOM     11  C   UNL     1      -5.103  -0.124  24.807  0.00  0.00    +0.024 C 
ATOM     14  C   UNL     1      -3.479   1.695  25.404  0.00  0.00    -0.023 C 
ATOM     15  C   UNL     1      -3.828   0.397  25.452  0.00  0.00    -0.073 C 
ATOM     24  C   UNL     1      -2.980  -0.589  26.209  0.00  0.00    +0.039 C 
ENDROOT
BRANCH   8  12
ATOM     12  C   UNL     1      -6.614   2.452  25.746  0.00  0.00    -0.013 C 
ATOM     22  C   UNL     1      -6.326   3.761  26.473  0.00  0.00    +0.007 C 
ATOM     23  C   UNL     1      -6.366   1.259  26.662  0.00  0.00    +0.007 C 
ENDBRANCH   8  12
BRANCH   9  13
ATOM     13  C   UNL     1      -3.593   3.231  23.464  0.00  0.00    +0.092 C 
BRANCH  13   3
ATOM      3  N   UNL     1      -2.185   3.532  23.722  0.00  0.00    -0.302 NA
ATOM     17  C   UNL     1      -2.029   4.164  25.038  0.00  0.00    +0.085 C 
ATOM     18  C   UNL     1      -1.374   2.312  23.627  0.00  0.00    +0.085 C 
ATOM     19  C   UNL     1       0.393   3.387  25.121  0.00  0.00    +0.077 C 
ATOM     20  C   UNL     1      -0.572   4.558  25.292  0.00  0.00    +0.028 C 
ATOM     21  C   UNL     1       0.113   2.615  23.833  0.00  0.00    +0.028 C 
BRANCH  19  26
ATOM      2  O   UNL     1       0.781   2.818  27.412  0.00  0.00    -0.276 OA
ATOM      5  N   UNL     1      -0.244   1.261  26.063  0.00  0.00    -0.329 N 
ATOM     26  C   UNL     1       0.333   2.483  26.319  0.00  0.00    +0.214 C 
ATOM     36  H   UNL     1      -0.558   0.983  25.139  0.00  0.00    +0.145 HD
ATOM     37  H   UNL     1      -0.340   0.569  26.799  0.00  0.00    +0.145 HD
ENDBRANCH  19  26
ENDBRANCH  13   3
ENDBRANCH   9  13
BRANCH  11  16
ATOM     16  C   UNL     1      -4.881  -1.405  23.992  0.00  0.00    +0.105 C 
BRANCH  16  25
ATOM      1  O   UNL     1      -2.460  -1.182  23.793  0.00  0.00    -0.420 OA
ATOM      4  N   UNL     1      -3.129  -3.097  24.734  0.00  0.00    -0.112 NA
ATOM      6  N   UNL     1      -1.747  -3.106  24.684  0.00  0.00    -0.107 NA
ATOM     25  C   UNL     1      -3.501  -1.956  24.203  0.00  0.00    +0.218 A 
ATOM     27  C   UNL     1      -1.401  -1.969  24.128  0.00  0.00    +0.248 A 
BRANCH  27  28
ATOM     28  C   UNL     1      -0.104  -1.438  23.825  0.00  0.00    +0.039 A 
ATOM     29  C   UNL     1       0.990  -1.768  24.627  0.00  0.00    +0.015 A 
ATOM     30  C   UNL     1       0.066  -0.592  22.729  0.00  0.00    +0.015 A 
ATOM     31  C   UNL     1       2.251  -1.251  24.331  0.00  0.00    +0.024 A 
ATOM     32  C   UNL     1       1.327  -0.077  22.434  0.00  0.00    +0.024 A 
ATOM     33  C   UNL     1       2.420  -0.406  23.236  0.00  0.00    +0.029 A 
BRANCH  33   7
ATOM      7  N   UNL     1       3.696   0.117  22.938  0.00  0.00    -0.336 N 
ATOM     34  C   UNL     1       4.887  -0.494  23.494  0.00  0.00    +0.129 C 
ATOM     35  C   UNL     1       3.834   1.268  22.067  0.00  0.00    +0.129 C 
ENDBRANCH  33   7
ENDBRANCH  27  28
ENDBRANCH  16  25
ENDBRANCH  11  16
TORSDOF 8
ENDMDL
MODEL 7
REMARK VINA RESULT:       9.1      2.218      4.777
REMARK  Name = 45783983
REMARK  13 active torsions:
REMARK  status: ('A' for Active; 'I' for Inactive)
REMARK    1  A    between atoms: N_3  and  C_13
REMARK    2  A    between atoms: N_7  and  C_33
REMARK    3  A    between atoms: N_7  and  C_34
REMARK    4  A    between atoms: N_7  and  C_35
REMARK    5  A    between atoms: C_8  and  C_12
REMARK    6  A    between atoms: C_9  and  C_13
REMARK    7  A    between atoms: C_11  and  C_16
REMARK    8  A    between atoms: C_12  and  C_22
REMARK    9  A    between atoms: C_12  and  C_23
REMARK   10  A    between atoms: C_15  and  C_24
REMARK   11  A    between atoms: C_16  and  C_25
REMARK   12  A    between atoms: C_19  and  C_26
REMARK   13  A    between atoms: C_27  and  C_28
REMARK                            x       y       z     vdW  Elec       q    Type
REMARK                         _______ _______ _______ _____ _____    ______ ____
ROOT
ATOM      8  C   UNL     1      -5.034   1.889  25.331  0.00  0.00    +0.000 C 
ATOM      9  C   UNL     1      -4.701   1.969  23.823  0.00  0.00    +0.029 C 
ATOM     10  C   UNL     1      -4.100   2.801  26.138  0.00  0.00    +0.012 C 
ATOM     11  C   UNL     1      -4.139   4.275  25.681  0.00  0.00    +0.024 C 
ATOM     14  C   UNL     1      -4.466   3.383  23.357  0.00  0.00    -0.023 C 
ATOM     15  C   UNL     1      -4.227   4.428  24.170  0.00  0.00    -0.073 C 
ATOM     24  C   UNL     1      -4.092   5.815  23.603  0.00  0.00    +0.039 C 
ENDROOT
BRANCH   8  12
ATOM     12  C   UNL     1      -6.507   2.228  25.597  0.00  0.00    -0.013 C 
ATOM     22  C   UNL     1      -6.957   1.636  26.928  0.00  0.00    +0.007 C 
ATOM     23  C   UNL     1      -7.384   1.724  24.455  0.00  0.00    +0.007 C 
ENDBRANCH   8  12
BRANCH   9  13
ATOM     13  C   UNL     1      -3.481   1.112  23.466  0.00  0.00    +0.092 C 
BRANCH  13   3
ATOM      3  N   UNL     1      -3.361  -0.023  24.381  0.00  0.00    -0.302 NA
ATOM     17  C   UNL     1      -3.321  -1.284  23.631  0.00  0.00    +0.085 C 
ATOM     18  C   UNL     1      -2.169   0.123  25.226  0.00  0.00    +0.085 C 
ATOM     19  C   UNL     1      -2.130  -2.403  25.583  0.00  0.00    +0.077 C 
ATOM     20  C   UNL     1      -3.276  -2.487  24.577  0.00  0.00    +0.028 C 
ATOM     21  C   UNL     1      -2.059  -1.023  26.235  0.00  0.00    +0.028 C 
BRANCH  19  26
ATOM      2  O   UNL     1      -0.784  -3.283  23.812  0.00  0.00    -0.276 OA
ATOM      5  N   UNL     1       0.278  -2.460  25.679  0.00  0.00    -0.329 N 
ATOM     26  C   UNL     1      -0.829  -2.758  24.921  0.00  0.00    +0.214 C 
ATOM     36  H   UNL     1       0.217  -2.077  26.617  0.00  0.00    +0.145 HD
ATOM     37  H   UNL     1       1.211  -2.654  25.333  0.00  0.00    +0.145 HD
ENDBRANCH  19  26
ENDBRANCH  13   3
ENDBRANCH   9  13
BRANCH  11  16
ATOM     16  C   UNL     1      -2.936   5.007  26.287  0.00  0.00    +0.105 C 
BRANCH  16  25
ATOM      1  O   UNL     1      -1.295   3.569  25.197  0.00  0.00    -0.420 OA
ATOM      4  N   UNL     1      -0.951   5.756  24.878  0.00  0.00    -0.112 NA
ATOM      6  N   UNL     1       0.044   5.065  24.211  0.00  0.00    -0.107 NA
ATOM     25  C   UNL     1      -1.708   4.842  25.439  0.00  0.00    +0.218 A 
ATOM     27  C   UNL     1      -0.196   3.793  24.424  0.00  0.00    +0.248 A 
BRANCH  27  28
ATOM     28  C   UNL     1       0.505   2.625  23.977  0.00  0.00    +0.039 A 
ATOM     29  C   UNL     1      -0.151   1.394  23.928  0.00  0.00    +0.015 A 
ATOM     30  C   UNL     1       1.842   2.718  23.590  0.00  0.00    +0.015 A 
ATOM     31  C   UNL     1       0.532   0.258  23.493  0.00  0.00    +0.024 A 
ATOM     32  C   UNL     1       2.523   1.583  23.155  0.00  0.00    +0.024 A 
ATOM     33  C   UNL     1       1.868   0.352  23.107  0.00  0.00    +0.029 A 
BRANCH  33   7
ATOM      7  N   UNL     1       2.558  -0.798  22.669  0.00  0.00    -0.336 N 
ATOM     34  C   UNL     1       2.142  -1.487  21.462  0.00  0.00    +0.129 C 
ATOM     35  C   UNL     1       3.695  -1.302  23.413  0.00  0.00    +0.129 C 
ENDBRANCH  33   7
ENDBRANCH  27  28
ENDBRANCH  16  25
ENDBRANCH  11  16
TORSDOF 8
ENDMDL
MODEL 8
REMARK VINA RESULT:       9.5      2.440      4.707
REMARK  Name = 45783983
REMARK  13 active torsions:
REMARK  status: ('A' for Active; 'I' for Inactive)
REMARK    1  A    between atoms: N_3  and  C_13
REMARK    2  A    between atoms: N_7  and  C_33
REMARK    3  A    between atoms: N_7  and  C_34
REMARK    4  A    between atoms: N_7  and  C_35
REMARK    5  A    between atoms: C_8  and  C_12
REMARK    6  A    between atoms: C_9  and  C_13
REMARK    7  A    between atoms: C_11  and  C_16
REMARK    8  A    between atoms: C_12  and  C_22
REMARK    9  A    between atoms: C_12  and  C_23
REMARK   10  A    between atoms: C_15  and  C_24
REMARK   11  A    between atoms: C_16  and  C_25
REMARK   12  A    between atoms: C_19  and  C_26
REMARK   13  A    between atoms: C_27  and  C_28
REMARK                            x       y       z     vdW  Elec       q    Type
REMARK                         _______ _______ _______ _____ _____    ______ ____
ROOT
ATOM      8  C   UNL     1      -2.891   2.764  25.990  0.00  0.00    +0.000 C 
ATOM      9  C   UNL     1      -4.384   2.569  25.638  0.00  0.00    +0.029 C 
ATOM     10  C   UNL     1      -1.998   2.237  24.858  0.00  0.00    +0.012 C 
ATOM     11  C   UNL     1      -2.294   2.891  23.491  0.00  0.00    +0.024 C 
ATOM     14  C   UNL     1      -4.697   2.949  24.214  0.00  0.00    -0.023 C 
ATOM     15  C   UNL     1      -3.778   3.109  23.244  0.00  0.00    -0.073 C 
ATOM     24  C   UNL     1      -4.194   3.574  21.876  0.00  0.00    +0.039 C 
ENDROOT
BRANCH   8  12
ATOM     12  C   UNL     1      -2.578   4.234  26.305  0.00  0.00    -0.013 C 
ATOM     22  C   UNL     1      -3.844   5.078  26.215  0.00  0.00    +0.007 C 
ATOM     23  C   UNL     1      -1.505   4.764  25.359  0.00  0.00    +0.007 C 
ENDBRANCH   8  12
BRANCH   9  13
ATOM     13  C   UNL     1      -4.841   1.127  25.888  0.00  0.00    +0.092 C 
BRANCH  13   3
ATOM      3  N   UNL     1      -3.913   0.177  25.274  0.00  0.00    -0.302 NA
ATOM     17  C   UNL     1      -3.627  -0.928  26.197  0.00  0.00    +0.085 C 
ATOM     18  C   UNL     1      -4.457  -0.325  24.006  0.00  0.00    +0.085 C 
ATOM     19  C   UNL     1      -3.000  -2.408  24.223  0.00  0.00    +0.077 C 
ATOM     20  C   UNL     1      -2.596  -1.891  25.602  0.00  0.00    +0.028 C 
ATOM     21  C   UNL     1      -3.473  -1.274  23.315  0.00  0.00    +0.028 C 
BRANCH  19  26
ATOM      2  O   UNL     1      -3.989  -4.350  25.210  0.00  0.00    -0.276 OA
ATOM      5  N   UNL     1      -5.060  -3.373  23.423  0.00  0.00    -0.329 N 
ATOM     26  C   UNL     1      -4.052  -3.472  24.354  0.00  0.00    +0.214 C 
ATOM     36  H   UNL     1      -5.065  -2.672  22.689  0.00  0.00    +0.145 HD
ATOM     37  H   UNL     1      -5.826  -4.037  23.417  0.00  0.00    +0.145 HD
ENDBRANCH  19  26
ENDBRANCH  13   3
ENDBRANCH   9  13
BRANCH  11  16
ATOM     16  C   UNL     1      -1.622   2.056  22.394  0.00  0.00    +0.105 C 
BRANCH  16  25
ATOM      1  O   UNL     1       0.642   1.211  22.731  0.00  0.00    -0.420 OA
ATOM      4  N   UNL     1      -0.951  -0.024  23.703  0.00  0.00    -0.112 NA
ATOM      6  N   UNL     1       0.271  -0.613  23.972  0.00  0.00    -0.107 NA
ATOM     25  C   UNL     1      -0.685   1.037  22.976  0.00  0.00    +0.218 A 
ATOM     27  C   UNL     1       1.171   0.141  23.387  0.00  0.00    +0.248 A 
BRANCH  27  28
ATOM     28  C   UNL     1       2.598   0.014  23.332  0.00  0.00    +0.039 A 
ATOM     29  C   UNL     1       3.371   1.059  22.822  0.00  0.00    +0.015 A 
ATOM     30  C   UNL     1       3.215  -1.151  23.788  0.00  0.00    +0.015 A 
ATOM     31  C   UNL     1       4.759   0.936  22.768  0.00  0.00    +0.024 A 
ATOM     32  C   UNL     1       4.602  -1.272  23.735  0.00  0.00    +0.024 A 
ATOM     33  C   UNL     1       5.375  -0.229  23.224  0.00  0.00    +0.029 A 
BRANCH  33   7
ATOM      7  N   UNL     1       6.779  -0.353  23.169  0.00  0.00    -0.336 N 
ATOM     34  C   UNL     1       7.394  -1.358  22.324  0.00  0.00    +0.129 C 
ATOM     35  C   UNL     1       7.626   0.527  23.951  0.00  0.00    +0.129 C 
ENDBRANCH  33   7
ENDBRANCH  27  28
ENDBRANCH  16  25
ENDBRANCH  11  16
TORSDOF 8
ENDMDL
