MODEL 1
REMARK VINA RESULT:      -3.1      0.000      0.000
REMARK  Name = 45784010
REMARK  3 active torsions:
REMARK  status: ('A' for Active; 'I' for Inactive)
REMARK    1  A    between atoms: C_5  and  C_12
REMARK    2  A    between atoms: C_6  and  C_16
REMARK    3  A    between atoms: C_21  and  C_23
REMARK                            x       y       z     vdW  Elec       q    Type
REMARK                         _______ _______ _______ _____ _____    ______ ____
ROOT
ATOM      1  O   UNL     1      15.355  -5.133  30.049  0.00  0.00    -0.275 OA
ATOM      2  N   UNL     1      15.321  -7.300  30.851  0.00  0.00    -0.301 N 
ATOM      6  C   UNL     1      14.349  -8.310  32.771  0.00  0.00    +0.074 C 
ATOM      7  C   UNL     1      14.777  -6.968  32.162  0.00  0.00    +0.119 C 
ATOM      8  C   UNL     1      15.347  -9.285  32.128  0.00  0.00    +0.032 C 
ATOM      9  C   UNL     1      15.545  -8.735  30.720  0.00  0.00    +0.108 C 
ATOM     12  C   UNL     1      15.563  -6.337  29.888  0.00  0.00    +0.219 C 
ENDROOT
BRANCH   6  16
ATOM      3  N   UNL     1      11.870  -7.875  32.727  0.00  0.00    -0.342 N 
ATOM      4  N   UNL     1      12.502  -9.919  32.123  0.00  0.00    -0.232 NA
ATOM     16  C   UNL     1      12.912  -8.738  32.529  0.00  0.00    +0.113 A 
ATOM     17  C   UNL     1      10.710  -8.544  32.429  0.00  0.00    +0.066 A 
ATOM     18  C   UNL     1      11.131  -9.817  32.054  0.00  0.00    +0.089 A 
ATOM     19  C   UNL     1       9.371  -8.156  32.454  0.00  0.00    +0.031 A 
ATOM     20  C   UNL     1      10.172 -10.773  31.680  0.00  0.00    +0.030 A 
ATOM     21  C   UNL     1       8.429  -9.120  32.078  0.00  0.00    -0.048 A 
ATOM     22  C   UNL     1       8.820 -10.406  31.698  0.00  0.00    +0.005 A 
ATOM     23  C   UNL     1       6.978  -8.766  32.083  0.00  0.00    +0.044 C 
ATOM     24  H   UNL     1      11.939  -6.916  33.039  0.00  0.00    +0.167 HD
ENDBRANCH   6  16
BRANCH  12   5
ATOM      5  C   UNL     1      16.116  -6.844  28.592  0.00  0.00    +0.075 C 
ATOM     10  C   UNL     1      14.982  -7.373  27.714  0.00  0.00    +0.013 C 
ATOM     11  C   UNL     1      16.886  -5.720  27.897  0.00  0.00    +0.013 C 
ATOM     13  C   UNL     1      15.492  -7.805  26.341  0.00  0.00    +0.001 C 
ATOM     14  C   UNL     1      17.391  -6.150  26.523  0.00  0.00    +0.001 C 
ATOM     15  C   UNL     1      16.259  -6.682  25.648  0.00  0.00    +0.000 C 
ENDBRANCH  12   5
TORSDOF 2
ENDMDL
MODEL 2
REMARK VINA RESULT:      -0.3     15.384     18.799
REMARK  Name = 45784010
REMARK  3 active torsions:
REMARK  status: ('A' for Active; 'I' for Inactive)
REMARK    1  A    between atoms: C_5  and  C_12
REMARK    2  A    between atoms: C_6  and  C_16
REMARK    3  A    between atoms: C_21  and  C_23
REMARK                            x       y       z     vdW  Elec       q    Type
REMARK                         _______ _______ _______ _____ _____    ______ ____
ROOT
ATOM      1  O   UNL     1      -3.718   0.906  22.878  0.00  0.00    -0.275 OA
ATOM      2  N   UNL     1      -2.295  -0.077  24.411  0.00  0.00    -0.301 N 
ATOM      6  C   UNL     1      -0.593  -1.726  24.228  0.00  0.00    +0.074 C 
ATOM      7  C   UNL     1      -1.819  -1.130  23.523  0.00  0.00    +0.119 C 
ATOM      8  C   UNL     1      -0.940  -1.509  25.709  0.00  0.00    +0.032 C 
ATOM      9  C   UNL     1      -1.668  -0.170  25.724  0.00  0.00    +0.108 C 
ATOM     12  C   UNL     1      -3.217   0.871  24.003  0.00  0.00    +0.219 C 
ENDROOT
BRANCH   6  16
ATOM      3  N   UNL     1       1.923  -1.746  24.214  0.00  0.00    -0.342 N 
ATOM      4  N   UNL     1       0.968   0.005  23.235  0.00  0.00    -0.232 NA
ATOM     16  C   UNL     1       0.755  -1.123  23.874  0.00  0.00    +0.113 A 
ATOM     17  C   UNL     1       2.959  -0.968  23.765  0.00  0.00    +0.066 A 
ATOM     18  C   UNL     1       2.337   0.118  23.157  0.00  0.00    +0.089 A 
ATOM     19  C   UNL     1       4.344  -1.118  23.835  0.00  0.00    +0.031 A 
ATOM     20  C   UNL     1       3.128   1.127  22.581  0.00  0.00    +0.030 A 
ATOM     21  C   UNL     1       5.117  -0.105  23.256  0.00  0.00    -0.048 A 
ATOM     22  C   UNL     1       4.522   0.998  22.640  0.00  0.00    +0.005 A 
ATOM     23  C   UNL     1       6.606  -0.207  23.298  0.00  0.00    +0.044 C 
ATOM     24  H   UNL     1       2.011  -2.623  24.710  0.00  0.00    +0.167 HD
ENDBRANCH   6  16
BRANCH  12   5
ATOM      5  C   UNL     1      -3.597   1.888  25.034  0.00  0.00    +0.075 C 
ATOM     10  C   UNL     1      -2.665   3.097  24.941  0.00  0.00    +0.013 C 
ATOM     11  C   UNL     1      -5.059   2.291  24.832  0.00  0.00    +0.013 C 
ATOM     13  C   UNL     1      -3.083   4.202  25.907  0.00  0.00    +0.001 C 
ATOM     14  C   UNL     1      -5.475   3.399  25.795  0.00  0.00    +0.001 C 
ATOM     15  C   UNL     1      -4.542   4.604  25.704  0.00  0.00    +0.000 C 
ENDBRANCH  12   5
TORSDOF 2
ENDMDL
