MODEL 1
REMARK VINA RESULT:      -4.6      0.000      0.000
REMARK  Name = 75537130
REMARK  3 active torsions:
REMARK  status: ('A' for Active; 'I' for Inactive)
REMARK    1  A    between atoms: N_2  and  C_8
REMARK    2  A    between atoms: N_4  and  C_19
REMARK    3  A    between atoms: C_19  and  C_20
REMARK                            x       y       z     vdW  Elec       q    Type
REMARK                         _______ _______ _______ _____ _____    ______ ____
ROOT
ATOM      1  O   UNL     1      -5.107 -10.256  16.505  0.00  0.00    -0.252 OA
ATOM      2  N   UNL     1      -7.209  -9.815  15.531  0.00  0.00    -0.281 N 
ATOM      3  N   UNL     1      -5.502 -10.400  14.194  0.00  0.00    -0.278 N 
ATOM      4  N   UNL     1      -5.075 -10.074  11.433  0.00  0.00    -0.292 NA
ATOM      7  C   UNL     1      -6.646 -10.327  13.310  0.00  0.00    +0.109 C 
ATOM      9  C   UNL     1      -7.738  -9.711  14.181  0.00  0.00    +0.133 C 
ATOM     10  C   UNL     1      -6.299  -9.529  12.055  0.00  0.00    +0.109 C 
ATOM     13  C   UNL     1      -5.846 -10.172  15.534  0.00  0.00    +0.305 C 
ATOM     14  C   UNL     1      -4.212 -10.781  13.655  0.00  0.00    +0.125 C 
ATOM     15  C   UNL     1      -3.933 -10.001  12.368  0.00  0.00    +0.104 C 
ENDROOT
BRANCH   2   8
ATOM      8  C   UNL     1      -7.985  -9.439  16.688  0.00  0.00    +0.078 C 
ATOM     11  C   UNL     1      -8.480 -10.684  17.430  0.00  0.00    +0.022 C 
ATOM     12  C   UNL     1      -9.150  -8.530  16.287  0.00  0.00    +0.022 C 
ATOM     16  C   UNL     1      -9.349 -10.316  18.629  0.00  0.00    +0.002 C 
ATOM     17  C   UNL     1     -10.016  -8.164  17.490  0.00  0.00    +0.002 C 
ATOM     18  C   UNL     1     -10.506  -9.406  18.229  0.00  0.00    +0.000 C 
ENDBRANCH   2   8
BRANCH   4  19
ATOM     19  C   UNL     1      -4.767  -9.355  10.197  0.00  0.00    +0.158 C 
BRANCH  19  20
ATOM      5  N   UNL     1      -6.443  -7.935   8.991  0.00  0.00    -0.347 N 
ATOM      6  N   UNL     1      -6.737 -10.130   8.823  0.00  0.00    -0.239 NA
ATOM     20  C   UNL     1      -5.988  -9.177   9.334  0.00  0.00    +0.121 A 
ATOM     21  C   UNL     1      -7.553  -8.105   8.213  0.00  0.00    +0.104 A 
ATOM     22  C   UNL     1      -7.714  -9.468   8.124  0.00  0.00    +0.130 A 
ATOM     23  H   UNL     1      -6.033  -7.051   9.262  0.00  0.00    +0.167 HD
ENDBRANCH  19  20
ENDBRANCH   4  19
TORSDOF 3
ENDMDL
MODEL 2
REMARK VINA RESULT:      -2.6     16.031     17.190
REMARK  Name = 75537130
REMARK  3 active torsions:
REMARK  status: ('A' for Active; 'I' for Inactive)
REMARK    1  A    between atoms: N_2  and  C_8
REMARK    2  A    between atoms: N_4  and  C_19
REMARK    3  A    between atoms: C_19  and  C_20
REMARK                            x       y       z     vdW  Elec       q    Type
REMARK                         _______ _______ _______ _____ _____    ______ ____
ROOT
ATOM      1  O   UNL     1      -1.891   4.068  24.781  0.00  0.00    -0.252 OA
ATOM      2  N   UNL     1      -2.845   1.921  24.565  0.00  0.00    -0.281 N 
ATOM      3  N   UNL     1      -0.607   2.115  24.540  0.00  0.00    -0.278 N 
ATOM      4  N   UNL     1       1.421   0.406  23.603  0.00  0.00    -0.292 NA
ATOM      7  C   UNL     1      -0.848   0.688  24.514  0.00  0.00    +0.109 C 
ATOM      9  C   UNL     1      -2.356   0.578  24.301  0.00  0.00    +0.133 C 
ATOM     10  C   UNL     1       0.004   0.024  23.434  0.00  0.00    +0.109 C 
ATOM     13  C   UNL     1      -1.792   2.856  24.650  0.00  0.00    +0.305 C 
ATOM     14  C   UNL     1       0.757   2.604  24.555  0.00  0.00    +0.125 C 
ATOM     15  C   UNL     1       1.586   1.870  23.499  0.00  0.00    +0.104 C 
ENDROOT
BRANCH   2   8
ATOM      8  C   UNL     1      -4.253   2.235  24.579  0.00  0.00    +0.078 C 
ATOM     11  C   UNL     1      -4.552   3.319  25.618  0.00  0.00    +0.022 C 
ATOM     12  C   UNL     1      -5.086   0.975  24.833  0.00  0.00    +0.022 C 
ATOM     16  C   UNL     1      -6.043   3.633  25.691  0.00  0.00    +0.002 C 
ATOM     17  C   UNL     1      -6.577   1.293  24.906  0.00  0.00    +0.002 C 
ATOM     18  C   UNL     1      -6.872   2.375  25.940  0.00  0.00    +0.000 C 
ENDBRANCH   2   8
BRANCH   4  19
ATOM     19  C   UNL     1       2.253  -0.272  22.610  0.00  0.00    +0.158 C 
BRANCH  19  20
ATOM      5  N   UNL     1       4.167  -1.350  23.818  0.00  0.00    -0.347 N 
ATOM      6  N   UNL     1       4.643   0.530  22.735  0.00  0.00    -0.239 NA
ATOM     20  C   UNL     1       3.696  -0.332  23.035  0.00  0.00    +0.121 A 
ATOM     21  C   UNL     1       5.497  -1.122  24.029  0.00  0.00    +0.104 A 
ATOM     22  C   UNL     1       5.767   0.043  23.351  0.00  0.00    +0.130 A 
ATOM     23  H   UNL     1       3.630  -2.129  24.174  0.00  0.00    +0.167 HD
ENDBRANCH  19  20
ENDBRANCH   4  19
TORSDOF 3
ENDMDL
MODEL 3
REMARK VINA RESULT:      -2.4      3.099      4.436
REMARK  Name = 75537130
REMARK  3 active torsions:
REMARK  status: ('A' for Active; 'I' for Inactive)
REMARK    1  A    between atoms: N_2  and  C_8
REMARK    2  A    between atoms: N_4  and  C_19
REMARK    3  A    between atoms: C_19  and  C_20
REMARK                            x       y       z     vdW  Elec       q    Type
REMARK                         _______ _______ _______ _____ _____    ______ ____
ROOT
ATOM      1  O   UNL     1      -2.322  -9.499  12.088  0.00  0.00    -0.252 OA
ATOM      2  N   UNL     1      -4.356 -10.466  12.788  0.00  0.00    -0.281 N 
ATOM      3  N   UNL     1      -4.199  -9.685  10.688  0.00  0.00    -0.278 N 
ATOM      4  N   UNL     1      -6.152  -8.945   8.804  0.00  0.00    -0.292 NA
ATOM      7  C   UNL     1      -5.504 -10.310  10.747  0.00  0.00    +0.109 C 
ATOM      9  C   UNL     1      -5.688 -10.629  12.229  0.00  0.00    +0.133 C 
ATOM     10  C   UNL     1      -6.565  -9.384  10.153  0.00  0.00    +0.109 C 
ATOM     13  C   UNL     1      -3.477  -9.843  11.879  0.00  0.00    +0.305 C 
ATOM     14  C   UNL     1      -3.755  -9.086   9.447  0.00  0.00    +0.125 C 
ATOM     15  C   UNL     1      -4.868  -8.217   8.858  0.00  0.00    +0.104 C 
ENDROOT
BRANCH   2   8
ATOM      8  C   UNL     1      -4.061 -10.781  14.165  0.00  0.00    +0.078 C 
ATOM     11  C   UNL     1      -5.090 -10.133  15.096  0.00  0.00    +0.022 C 
ATOM     12  C   UNL     1      -2.636 -10.352  14.526  0.00  0.00    +0.022 C 
ATOM     16  C   UNL     1      -4.771 -10.406  16.564  0.00  0.00    +0.002 C 
ATOM     17  C   UNL     1      -2.321 -10.627  15.993  0.00  0.00    +0.002 C 
ATOM     18  C   UNL     1      -3.348  -9.982  16.920  0.00  0.00    +0.000 C 
ENDBRANCH   2   8
BRANCH   4  19
ATOM     19  C   UNL     1      -7.188  -8.107   8.202  0.00  0.00    +0.158 C 
BRANCH  19  20
ATOM      5  N   UNL     1      -9.387  -7.687   9.329  0.00  0.00    -0.347 N 
ATOM      6  N   UNL     1      -9.142  -9.691   8.403  0.00  0.00    -0.239 NA
ATOM     20  C   UNL     1      -8.569  -8.529   8.629  0.00  0.00    +0.121 A 
ATOM     21  C   UNL     1     -10.556  -8.354   9.565  0.00  0.00    +0.104 A 
ATOM     22  C   UNL     1     -10.381  -9.587   8.984  0.00  0.00    +0.130 A 
ATOM     23  H   UNL     1      -9.169  -6.743   9.618  0.00  0.00    +0.167 HD
ENDBRANCH  19  20
ENDBRANCH   4  19
TORSDOF 3
ENDMDL
MODEL 4
REMARK VINA RESULT:      -2.4      2.825      6.970
REMARK  Name = 75537130
REMARK  3 active torsions:
REMARK  status: ('A' for Active; 'I' for Inactive)
REMARK    1  A    between atoms: N_2  and  C_8
REMARK    2  A    between atoms: N_4  and  C_19
REMARK    3  A    between atoms: C_19  and  C_20
REMARK                            x       y       z     vdW  Elec       q    Type
REMARK                         _______ _______ _______ _____ _____    ______ ____
ROOT
ATOM      1  O   UNL     1      -5.169  -8.541   8.926  0.00  0.00    -0.252 OA
ATOM      2  N   UNL     1      -4.980 -10.120  10.668  0.00  0.00    -0.281 N 
ATOM      3  N   UNL     1      -7.030  -9.473  10.016  0.00  0.00    -0.278 N 
ATOM      4  N   UNL     1      -9.537  -9.599  11.285  0.00  0.00    -0.292 NA
ATOM      7  C   UNL     1      -7.272 -10.515  10.991  0.00  0.00    +0.109 C 
ATOM      9  C   UNL     1      -5.891 -10.781  11.588  0.00  0.00    +0.133 C 
ATOM     10  C   UNL     1      -8.330 -10.067  11.998  0.00  0.00    +0.109 C 
ATOM     13  C   UNL     1      -5.664  -9.286   9.760  0.00  0.00    +0.305 C 
ATOM     14  C   UNL     1      -8.156  -8.838   9.363  0.00  0.00    +0.125 C 
ATOM     15  C   UNL     1      -9.216  -8.460  10.400  0.00  0.00    +0.104 C 
ENDROOT
BRANCH   2   8
ATOM      8  C   UNL     1      -3.547 -10.219  10.807  0.00  0.00    +0.078 C 
ATOM     11  C   UNL     1      -3.176 -10.704  12.212  0.00  0.00    +0.022 C 
ATOM     12  C   UNL     1      -2.878  -8.880  10.485  0.00  0.00    +0.022 C 
ATOM     16  C   UNL     1      -1.664 -10.767  12.404  0.00  0.00    +0.002 C 
ATOM     17  C   UNL     1      -1.366  -8.947  10.679  0.00  0.00    +0.002 C 
ATOM     18  C   UNL     1      -0.998  -9.432  12.078  0.00  0.00    +0.000 C 
ENDBRANCH   2   8
BRANCH   4  19
ATOM     19  C   UNL     1     -10.579  -9.225  12.239  0.00  0.00    +0.158 C 
BRANCH  19  20
ATOM      5  N   UNL     1      -9.638  -8.708  14.504  0.00  0.00    -0.347 N 
ATOM      6  N   UNL     1     -10.381 -10.781  14.216  0.00  0.00    -0.239 NA
ATOM     20  C   UNL     1     -10.212  -9.607  13.649  0.00  0.00    +0.121 A 
ATOM     21  C   UNL     1      -9.427  -9.349  15.691  0.00  0.00    +0.104 A 
ATOM     22  C   UNL     1      -9.894 -10.626  15.489  0.00  0.00    +0.130 A 
ATOM     23  H   UNL     1      -9.412  -7.744  14.296  0.00  0.00    +0.167 HD
ENDBRANCH  19  20
ENDBRANCH   4  19
TORSDOF 3
ENDMDL
MODEL 5
REMARK VINA RESULT:      -2.2     24.204     26.243
REMARK  Name = 75537130
REMARK  3 active torsions:
REMARK  status: ('A' for Active; 'I' for Inactive)
REMARK    1  A    between atoms: N_2  and  C_8
REMARK    2  A    between atoms: N_4  and  C_19
REMARK    3  A    between atoms: C_19  and  C_20
REMARK                            x       y       z     vdW  Elec       q    Type
REMARK                         _______ _______ _______ _____ _____    ______ ____
ROOT
ATOM      1  O   UNL     1      11.140  -6.496  32.093  0.00  0.00    -0.252 OA
ATOM      2  N   UNL     1      10.384  -8.727  31.957  0.00  0.00    -0.281 N 
ATOM      3  N   UNL     1      12.585  -8.346  32.195  0.00  0.00    -0.278 N 
ATOM      4  N   UNL     1      14.839  -9.947  31.678  0.00  0.00    -0.292 NA
ATOM      7  C   UNL     1      12.456  -9.785  32.269  0.00  0.00    +0.109 C 
ATOM      9  C   UNL     1      11.001 -10.040  31.880  0.00  0.00    +0.133 C 
ATOM     10  C   UNL     1      13.489 -10.461  31.369  0.00  0.00    +0.109 C 
ATOM     13  C   UNL     1      11.344  -7.702  32.086  0.00  0.00    +0.305 C 
ATOM     14  C   UNL     1      13.894  -7.743  32.335  0.00  0.00    +0.125 C 
ATOM     15  C   UNL     1      14.908  -8.487  31.462  0.00  0.00    +0.104 C 
ENDROOT
BRANCH   2   8
ATOM      8  C   UNL     1       8.967  -8.534  31.765  0.00  0.00    +0.078 C 
ATOM     11  C   UNL     1       8.391  -7.647  32.873  0.00  0.00    +0.022 C 
ATOM     12  C   UNL     1       8.242  -9.881  31.697  0.00  0.00    +0.022 C 
ATOM     16  C   UNL     1       6.882  -7.471  32.725  0.00  0.00    +0.002 C 
ATOM     17  C   UNL     1       6.734  -9.700  31.549  0.00  0.00    +0.002 C 
ATOM     18  C   UNL     1       6.162  -8.814  32.653  0.00  0.00    +0.000 C 
ENDBRANCH   2   8
BRANCH   4  19
ATOM     19  C   UNL     1      15.843 -10.630  30.864  0.00  0.00    +0.158 C 
BRANCH  19  20
ATOM      5  N   UNL     1      16.841  -9.200  29.063  0.00  0.00    -0.347 N 
ATOM      6  N   UNL     1      15.060 -10.391  28.477  0.00  0.00    -0.239 NA
ATOM     20  C   UNL     1      15.884 -10.094  29.458  0.00  0.00    +0.121 A 
ATOM     21  C   UNL     1      16.612  -8.908  27.749  0.00  0.00    +0.104 A 
ATOM     22  C   UNL     1      15.509  -9.655  27.409  0.00  0.00    +0.130 A 
ATOM     23  H   UNL     1      17.583  -8.824  29.639  0.00  0.00    +0.167 HD
ENDBRANCH  19  20
ENDBRANCH   4  19
TORSDOF 3
ENDMDL
MODEL 6
REMARK VINA RESULT:      -1.9     24.828     26.559
REMARK  Name = 75537130
REMARK  3 active torsions:
REMARK  status: ('A' for Active; 'I' for Inactive)
REMARK    1  A    between atoms: N_2  and  C_8
REMARK    2  A    between atoms: N_4  and  C_19
REMARK    3  A    between atoms: C_19  and  C_20
REMARK                            x       y       z     vdW  Elec       q    Type
REMARK                         _______ _______ _______ _____ _____    ______ ____
ROOT
ATOM      1  O   UNL     1      12.474  -6.021  31.418  0.00  0.00    -0.252 OA
ATOM      2  N   UNL     1      12.887  -8.327  31.692  0.00  0.00    -0.281 N 
ATOM      3  N   UNL     1      14.458  -7.059  30.706  0.00  0.00    -0.278 N 
ATOM      4  N   UNL     1      16.628  -7.709  29.039  0.00  0.00    -0.292 NA
ATOM      7  C   UNL     1      15.068  -8.366  30.825  0.00  0.00    +0.109 C 
ATOM      9  C   UNL     1      13.919  -9.264  31.281  0.00  0.00    +0.133 C 
ATOM     10  C   UNL     1      15.716  -8.775  29.503  0.00  0.00    +0.109 C 
ATOM     13  C   UNL     1      13.185  -7.008  31.291  0.00  0.00    +0.305 C 
ATOM     14  C   UNL     1      15.217  -5.973  30.122  0.00  0.00    +0.125 C 
ATOM     15  C   UNL     1      15.895  -6.443  28.833  0.00  0.00    +0.104 C 
ENDROOT
BRANCH   2   8
ATOM      8  C   UNL     1      11.653  -8.765  32.298  0.00  0.00    +0.078 C 
ATOM     11  C   UNL     1      11.398 -10.243  31.988  0.00  0.00    +0.022 C 
ATOM     12  C   UNL     1      10.483  -7.890  31.839  0.00  0.00    +0.022 C 
ATOM     16  C   UNL     1      10.072 -10.720  32.573  0.00  0.00    +0.002 C 
ATOM     17  C   UNL     1       9.159  -8.371  32.426  0.00  0.00    +0.002 C 
ATOM     18  C   UNL     1       8.907  -9.844  32.118  0.00  0.00    +0.000 C 
ENDBRANCH   2   8
BRANCH   4  19
ATOM     19  C   UNL     1      17.299  -8.116  27.805  0.00  0.00    +0.158 C 
BRANCH  19  20
ATOM      5  N   UNL     1      16.542 -10.311  26.863  0.00  0.00    -0.347 N 
ATOM      6  N   UNL     1      15.432  -8.522  26.156  0.00  0.00    -0.239 NA
ATOM     20  C   UNL     1      16.405  -8.952  26.929  0.00  0.00    +0.121 A 
ATOM     21  C   UNL     1      15.597 -10.776  25.993  0.00  0.00    +0.104 A 
ATOM     22  C   UNL     1      14.925  -9.654  25.570  0.00  0.00    +0.130 A 
ATOM     23  H   UNL     1      17.217 -10.870  27.366  0.00  0.00    +0.167 HD
ENDBRANCH  19  20
ENDBRANCH   4  19
TORSDOF 3
ENDMDL
MODEL 7
REMARK VINA RESULT:      -1.7     15.633     16.830
REMARK  Name = 75537130
REMARK  3 active torsions:
REMARK  status: ('A' for Active; 'I' for Inactive)
REMARK    1  A    between atoms: N_2  and  C_8
REMARK    2  A    between atoms: N_4  and  C_19
REMARK    3  A    between atoms: C_19  and  C_20
REMARK                            x       y       z     vdW  Elec       q    Type
REMARK                         _______ _______ _______ _____ _____    ______ ____
ROOT
ATOM      1  O   UNL     1      -1.876  -0.620  26.415  0.00  0.00    -0.252 OA
ATOM      2  N   UNL     1      -2.410   1.041  24.827  0.00  0.00    -0.281 N 
ATOM      3  N   UNL     1      -0.738  -0.388  24.372  0.00  0.00    -0.278 N 
ATOM      4  N   UNL     1       1.416  -0.253  22.569  0.00  0.00    -0.292 NA
ATOM      7  C   UNL     1      -0.881   0.399  23.166  0.00  0.00    +0.109 C 
ATOM      9  C   UNL     1      -1.853   1.506  23.568  0.00  0.00    +0.133 C 
ATOM     10  C   UNL     1       0.485   0.888  22.684  0.00  0.00    +0.109 C 
ATOM     13  C   UNL     1      -1.699  -0.063  25.340  0.00  0.00    +0.305 C 
ATOM     14  C   UNL     1       0.256  -1.441  24.419  0.00  0.00    +0.125 C 
ATOM     15  C   UNL     1       1.589  -0.925  23.873  0.00  0.00    +0.104 C 
ENDROOT
BRANCH   2   8
ATOM      8  C   UNL     1      -3.466   1.752  25.506  0.00  0.00    +0.078 C 
ATOM     11  C   UNL     1      -4.836   1.231  25.060  0.00  0.00    +0.022 C 
ATOM     12  C   UNL     1      -3.342   3.260  25.272  0.00  0.00    +0.022 C 
ATOM     16  C   UNL     1      -5.974   2.002  25.723  0.00  0.00    +0.002 C 
ATOM     17  C   UNL     1      -4.482   4.027  25.936  0.00  0.00    +0.002 C 
ATOM     18  C   UNL     1      -5.846   3.505  25.493  0.00  0.00    +0.000 C 
ENDBRANCH   2   8
BRANCH   4  19
ATOM     19  C   UNL     1       2.708   0.194  22.050  0.00  0.00    +0.158 C 
BRANCH  19  20
ATOM      5  N   UNL     1       4.649   0.849  23.495  0.00  0.00    -0.347 N 
ATOM      6  N   UNL     1       4.169  -1.319  23.444  0.00  0.00    -0.239 NA
ATOM     20  C   UNL     1       3.834  -0.129  22.996  0.00  0.00    +0.121 A 
ATOM     21  C   UNL     1       5.561   0.245  24.312  0.00  0.00    +0.104 A 
ATOM     22  C   UNL     1       5.245  -1.092  24.265  0.00  0.00    +0.130 A 
ATOM     23  H   UNL     1       4.588   1.838  23.296  0.00  0.00    +0.167 HD
ENDBRANCH  19  20
ENDBRANCH   4  19
TORSDOF 3
ENDMDL
MODEL 8
REMARK VINA RESULT:      -1.4      3.923      6.724
REMARK  Name = 75537130
REMARK  3 active torsions:
REMARK  status: ('A' for Active; 'I' for Inactive)
REMARK    1  A    between atoms: N_2  and  C_8
REMARK    2  A    between atoms: N_4  and  C_19
REMARK    3  A    between atoms: C_19  and  C_20
REMARK                            x       y       z     vdW  Elec       q    Type
REMARK                         _______ _______ _______ _____ _____    ______ ____
ROOT
ATOM      1  O   UNL     1      -4.220  -7.414   9.901  0.00  0.00    -0.252 OA
ATOM      2  N   UNL     1      -4.429  -9.762   9.981  0.00  0.00    -0.281 N 
ATOM      3  N   UNL     1      -6.095  -8.561   9.071  0.00  0.00    -0.278 N 
ATOM      4  N   UNL     1      -8.798  -9.162   8.581  0.00  0.00    -0.292 NA
ATOM      7  C   UNL     1      -6.479  -9.939   8.851  0.00  0.00    +0.109 C 
ATOM      9  C   UNL     1      -5.463 -10.734   9.669  0.00  0.00    +0.133 C 
ATOM     10  C   UNL     1      -7.937 -10.156   9.253  0.00  0.00    +0.109 C 
ATOM     13  C   UNL     1      -4.835  -8.447   9.675  0.00  0.00    +0.305 C 
ATOM     14  C   UNL     1      -6.950  -7.499   8.582  0.00  0.00    +0.125 C 
ATOM     15  C   UNL     1      -8.407  -7.788   8.955  0.00  0.00    +0.104 C 
ENDROOT
BRANCH   2   8
ATOM      8  C   UNL     1      -3.211 -10.131  10.661  0.00  0.00    +0.078 C 
ATOM     11  C   UNL     1      -3.478 -10.366  12.151  0.00  0.00    +0.022 C 
ATOM     12  C   UNL     1      -2.129  -9.069  10.450  0.00  0.00    +0.022 C 
ATOM     16  C   UNL     1      -2.197 -10.707  12.905  0.00  0.00    +0.002 C 
ATOM     17  C   UNL     1      -0.849  -9.413  11.207  0.00  0.00    +0.002 C 
ATOM     18  C   UNL     1      -1.118  -9.649  12.690  0.00  0.00    +0.000 C 
ENDBRANCH   2   8
BRANCH   4  19
ATOM     19  C   UNL     1     -10.203  -9.399   8.910  0.00  0.00    +0.158 C 
BRANCH  19  20
ATOM      5  N   UNL     1     -10.564  -8.576  11.250  0.00  0.00    -0.347 N 
ATOM      6  N   UNL     1     -10.445 -10.781  11.008  0.00  0.00    -0.239 NA
ATOM     20  C   UNL     1     -10.402  -9.623  10.386  0.00  0.00    +0.121 A 
ATOM     21  C   UNL     1     -10.719  -9.099  12.502  0.00  0.00    +0.104 A 
ATOM     22  C   UNL     1     -10.643 -10.461  12.327  0.00  0.00    +0.130 A 
ATOM     23  H   UNL     1     -10.569  -7.595  11.008  0.00  0.00    +0.167 HD
ENDBRANCH  19  20
ENDBRANCH   4  19
TORSDOF 3
ENDMDL
MODEL 9
REMARK VINA RESULT:      -0.7      2.390      7.472
REMARK  Name = 75537130
REMARK  3 active torsions:
REMARK  status: ('A' for Active; 'I' for Inactive)
REMARK    1  A    between atoms: N_2  and  C_8
REMARK    2  A    between atoms: N_4  and  C_19
REMARK    3  A    between atoms: C_19  and  C_20
REMARK                            x       y       z     vdW  Elec       q    Type
REMARK                         _______ _______ _______ _____ _____    ______ ____
ROOT
ATOM      1  O   UNL     1      -5.862  -9.061  11.523  0.00  0.00    -0.252 OA
ATOM      2  N   UNL     1      -8.184  -9.406  11.752  0.00  0.00    -0.281 N 
ATOM      3  N   UNL     1      -6.939  -9.170  13.608  0.00  0.00    -0.278 N 
ATOM      4  N   UNL     1      -7.402  -9.885  16.288  0.00  0.00    -0.292 NA
ATOM      7  C   UNL     1      -8.302  -9.238  14.091  0.00  0.00    +0.109 C 
ATOM      9  C   UNL     1      -9.108  -9.625  12.853  0.00  0.00    +0.133 C 
ATOM     10  C   UNL     1      -8.406 -10.220  15.257  0.00  0.00    +0.109 C 
ATOM     13  C   UNL     1      -6.867  -9.191  12.207  0.00  0.00    +0.305 C 
ATOM     14  C   UNL     1      -5.858  -8.994  14.555  0.00  0.00    +0.125 C 
ATOM     15  C   UNL     1      -6.035  -9.954  15.734  0.00  0.00    +0.104 C 
ENDROOT
BRANCH   2   8
ATOM      8  C   UNL     1      -8.586  -9.552  10.375  0.00  0.00    +0.078 C 
ATOM     11  C   UNL     1      -8.568  -8.195   9.663  0.00  0.00    +0.022 C 
ATOM     12  C   UNL     1      -9.965 -10.212  10.279  0.00  0.00    +0.022 C 
ATOM     16  C   UNL     1      -9.041  -8.312   8.217  0.00  0.00    +0.002 C 
ATOM     17  C   UNL     1     -10.434 -10.326   8.832  0.00  0.00    +0.002 C 
ATOM     18  C   UNL     1     -10.413  -8.975   8.124  0.00  0.00    +0.000 C 
ENDBRANCH   2   8
BRANCH   4  19
ATOM     19  C   UNL     1      -7.533 -10.781  17.436  0.00  0.00    +0.158 C 
BRANCH  19  20
ATOM      5  N   UNL     1      -8.715 -10.741  19.646  0.00  0.00    -0.347 N 
ATOM      6  N   UNL     1      -9.749  -9.702  17.978  0.00  0.00    -0.239 NA
ATOM     20  C   UNL     1      -8.683 -10.390  18.325  0.00  0.00    +0.121 A 
ATOM     21  C   UNL     1      -9.873 -10.247  20.174  0.00  0.00    +0.104 A 
ATOM     22  C   UNL     1     -10.494  -9.609  19.126  0.00  0.00    +0.130 A 
ATOM     23  H   UNL     1      -8.010 -11.270  20.142  0.00  0.00    +0.167 HD
ENDBRANCH  19  20
ENDBRANCH   4  19
TORSDOF 3
ENDMDL
