MODEL 1
REMARK VINA RESULT:      -3.6      0.000      0.000
REMARK  Name = 25390144
REMARK  10 active torsions:
REMARK  status: ('A' for Active; 'I' for Inactive)
REMARK    1  A    between atoms: O_5  and  C_17
REMARK    2  A    between atoms: O_6  and  C_18
REMARK    3  A    between atoms: O_9  and  C_30
REMARK    4  A    between atoms: O_9  and  C_31
REMARK    5  A    between atoms: N_10  and  C_20
REMARK    6  A    between atoms: C_13  and  C_21
REMARK    7  A    between atoms: C_14  and  C_20
REMARK    8  A    between atoms: C_19  and  C_22
REMARK    9  A    between atoms: C_22  and  C_23
REMARK   10  A    between atoms: C_24  and  C_25
REMARK                            x       y       z     vdW  Elec       q    Type
REMARK                         _______ _______ _______ _____ _____    ______ ____
ROOT
ATOM      4  O   UNL     1      -3.871   1.705  26.021  0.00  0.00    -0.366 OA
ATOM     14  C   UNL     1      -5.057   0.968  25.642  0.00  0.00    +0.167 C 
ATOM     17  C   UNL     1      -6.196   1.981  25.603  0.00  0.00    +0.176 C 
ATOM     18  C   UNL     1      -5.469   3.262  25.257  0.00  0.00    +0.175 C 
ATOM     19  C   UNL     1      -4.185   3.109  26.056  0.00  0.00    +0.159 C 
ENDROOT
BRANCH  17   5
ATOM      5  O   UNL     1      -6.758   2.067  26.913  0.00  0.00    -0.387 OA
ATOM     33  H   UNL     1      -6.782   1.166  27.278  0.00  0.00    +0.210 HD
ENDBRANCH  17   5
BRANCH  18   6
ATOM      6  O   UNL     1      -6.181   4.426  25.619  0.00  0.00    -0.387 OA
ATOM     34  H   UNL     1      -6.666   4.228  26.439  0.00  0.00    +0.210 HD
ENDBRANCH  18   6
BRANCH  14  20
ATOM     20  C   UNL     1      -4.790   0.317  24.293  0.00  0.00    +0.138 C 
BRANCH  20  10
ATOM      7  O   UNL     1      -4.142  -2.513  24.146  0.00  0.00    -0.276 OA
ATOM     10  N   UNL     1      -3.488  -0.280  24.253  0.00  0.00    -0.313 N 
ATOM     21  C   UNL     1      -3.274  -1.650  24.183  0.00  0.00    +0.216 C 
ATOM     32  H   UNL     1      -2.685   0.341  24.279  0.00  0.00    +0.149 HD
BRANCH  21  13
ATOM     13  C   UNL     1      -1.836  -2.049  24.151  0.00  0.00    +0.075 C 
ATOM     15  C   UNL     1      -0.887  -1.442  25.142  0.00  0.00    +0.013 C 
ATOM     16  C   UNL     1      -1.285  -2.883  25.270  0.00  0.00    +0.013 C 
ENDBRANCH  21  13
ENDBRANCH  20  10
ENDBRANCH  14  20
BRANCH  19  22
ATOM     22  C   UNL     1      -3.024   3.907  25.490  0.00  0.00    +0.133 C 
BRANCH  22  23
ATOM      8  O   UNL     1      -2.734   2.564  23.477  0.00  0.00    -0.338 OA
ATOM     11  N   UNL     1      -0.888   2.746  24.732  0.00  0.00    -0.191 NA
ATOM     12  N   UNL     1      -1.739   1.831  22.816  0.00  0.00    -0.056 NA
ATOM     23  C   UNL     1      -2.149   3.069  24.594  0.00  0.00    +0.230 A 
ATOM     24  C   UNL     1      -0.680   1.987  23.617  0.00  0.00    +0.202 A 
BRANCH  24  25
ATOM     25  C   UNL     1       0.596   1.398  23.333  0.00  0.00    +0.023 A 
ATOM     26  C   UNL     1       0.674   0.071  22.910  0.00  0.00    +0.015 A 
ATOM     27  C   UNL     1       1.760   2.153  23.481  0.00  0.00    +0.015 A 
ATOM     28  C   UNL     1       1.916  -0.502  22.635  0.00  0.00    +0.046 A 
ATOM     29  C   UNL     1       3.001   1.580  23.205  0.00  0.00    +0.046 A 
ATOM     30  C   UNL     1       3.080   0.253  22.783  0.00  0.00    +0.130 A 
BRANCH  30   9
ATOM      9  O   UNL     1       4.291  -0.304  22.515  0.00  0.00    -0.406 OA
BRANCH   9  31
ATOM      1  F   UNL     1       6.508  -0.308  22.944  0.00  0.00    -0.133 F 
ATOM      2  F   UNL     1       5.210   0.871  24.249  0.00  0.00    -0.133 F 
ATOM      3  F   UNL     1       5.187  -1.337  24.349  0.00  0.00    -0.133 F 
ATOM     31  C   UNL     1       5.289  -0.268  23.530  0.00  0.00    +0.575 C 
ENDBRANCH   9  31
ENDBRANCH  30   9
ENDBRANCH  24  25
ENDBRANCH  22  23
ENDBRANCH  19  22
TORSDOF 10
ENDMDL
MODEL 2
REMARK VINA RESULT:      -2.2      1.690      3.456
REMARK  Name = 25390144
REMARK  10 active torsions:
REMARK  status: ('A' for Active; 'I' for Inactive)
REMARK    1  A    between atoms: O_5  and  C_17
REMARK    2  A    between atoms: O_6  and  C_18
REMARK    3  A    between atoms: O_9  and  C_30
REMARK    4  A    between atoms: O_9  and  C_31
REMARK    5  A    between atoms: N_10  and  C_20
REMARK    6  A    between atoms: C_13  and  C_21
REMARK    7  A    between atoms: C_14  and  C_20
REMARK    8  A    between atoms: C_19  and  C_22
REMARK    9  A    between atoms: C_22  and  C_23
REMARK   10  A    between atoms: C_24  and  C_25
REMARK                            x       y       z     vdW  Elec       q    Type
REMARK                         _______ _______ _______ _____ _____    ______ ____
ROOT
ATOM      4  O   UNL     1      -5.031   2.477  23.589  0.00  0.00    -0.366 OA
ATOM     14  C   UNL     1      -4.506   3.746  24.044  0.00  0.00    +0.167 C 
ATOM     17  C   UNL     1      -4.917   3.881  25.506  0.00  0.00    +0.176 C 
ATOM     18  C   UNL     1      -4.997   2.435  25.946  0.00  0.00    +0.175 C 
ATOM     19  C   UNL     1      -5.589   1.773  24.713  0.00  0.00    +0.159 C 
ENDROOT
BRANCH  17   5
ATOM      5  O   UNL     1      -6.210   4.485  25.549  0.00  0.00    -0.387 OA
ATOM     33  H   UNL     1      -6.722   4.025  26.236  0.00  0.00    +0.210 HD
ENDBRANCH  17   5
BRANCH  18   6
ATOM      6  O   UNL     1      -5.803   2.242  27.089  0.00  0.00    -0.387 OA
ATOM     34  H   UNL     1      -5.630   1.343  27.419  0.00  0.00    +0.210 HD
ENDBRANCH  18   6
BRANCH  14  20
ATOM     20  C   UNL     1      -2.997   3.723  23.848  0.00  0.00    +0.138 C 
BRANCH  20  10
ATOM      7  O   UNL     1      -0.599   4.940  24.955  0.00  0.00    -0.276 OA
ATOM     10  N   UNL     1      -2.322   3.375  25.063  0.00  0.00    -0.313 N 
ATOM     21  C   UNL     1      -1.176   4.016  25.515  0.00  0.00    +0.216 C 
ATOM     32  H   UNL     1      -2.710   2.617  25.617  0.00  0.00    +0.149 HD
BRANCH  21  13
ATOM     13  C   UNL     1      -0.643   3.490  26.806  0.00  0.00    +0.075 C 
ATOM     15  C   UNL     1      -0.596   2.007  27.028  0.00  0.00    +0.013 C 
ATOM     16  C   UNL     1       0.676   2.773  26.815  0.00  0.00    +0.013 C 
ENDBRANCH  21  13
ENDBRANCH  20  10
ENDBRANCH  14  20
BRANCH  19  22
ATOM     22  C   UNL     1      -5.258   0.296  24.605  0.00  0.00    +0.133 C 
BRANCH  22  23
ATOM      8  O   UNL     1      -3.342  -0.707  25.731  0.00  0.00    -0.338 OA
ATOM     11  N   UNL     1      -2.820   0.446  23.883  0.00  0.00    -0.191 NA
ATOM     12  N   UNL     1      -1.951  -0.802  25.592  0.00  0.00    -0.056 NA
ATOM     23  C   UNL     1      -3.775   0.043  24.684  0.00  0.00    +0.230 A 
ATOM     24  C   UNL     1      -1.720  -0.097  24.480  0.00  0.00    +0.202 A 
BRANCH  24  25
ATOM     25  C   UNL     1      -0.403   0.082  23.940  0.00  0.00    +0.023 A 
ATOM     26  C   UNL     1       0.255  -0.989  23.337  0.00  0.00    +0.015 A 
ATOM     27  C   UNL     1       0.218   1.328  24.020  0.00  0.00    +0.015 A 
ATOM     28  C   UNL     1       1.537  -0.815  22.813  0.00  0.00    +0.046 A 
ATOM     29  C   UNL     1       1.499   1.503  23.496  0.00  0.00    +0.046 A 
ATOM     30  C   UNL     1       2.158   0.431  22.893  0.00  0.00    +0.130 A 
BRANCH  30   9
ATOM      9  O   UNL     1       3.408   0.603  22.383  0.00  0.00    -0.406 OA
BRANCH   9  31
ATOM      1  F   UNL     1       5.606   0.091  22.333  0.00  0.00    -0.133 F 
ATOM      2  F   UNL     1       4.785   0.915  24.183  0.00  0.00    -0.133 F 
ATOM      3  F   UNL     1       4.290  -1.148  23.562  0.00  0.00    -0.133 F 
ATOM     31  C   UNL     1       4.515   0.112  23.132  0.00  0.00    +0.575 C 
ENDBRANCH   9  31
ENDBRANCH  30   9
ENDBRANCH  24  25
ENDBRANCH  22  23
ENDBRANCH  19  22
TORSDOF 10
ENDMDL
MODEL 3
REMARK VINA RESULT:       0.4      2.177      3.565
REMARK  Name = 25390144
REMARK  10 active torsions:
REMARK  status: ('A' for Active; 'I' for Inactive)
REMARK    1  A    between atoms: O_5  and  C_17
REMARK    2  A    between atoms: O_6  and  C_18
REMARK    3  A    between atoms: O_9  and  C_30
REMARK    4  A    between atoms: O_9  and  C_31
REMARK    5  A    between atoms: N_10  and  C_20
REMARK    6  A    between atoms: C_13  and  C_21
REMARK    7  A    between atoms: C_14  and  C_20
REMARK    8  A    between atoms: C_19  and  C_22
REMARK    9  A    between atoms: C_22  and  C_23
REMARK   10  A    between atoms: C_24  and  C_25
REMARK                            x       y       z     vdW  Elec       q    Type
REMARK                         _______ _______ _______ _____ _____    ______ ____
ROOT
ATOM      4  O   UNL     1      -3.459   3.563  23.880  0.00  0.00    -0.366 OA
ATOM     14  C   UNL     1      -2.945   4.290  25.020  0.00  0.00    +0.167 C 
ATOM     17  C   UNL     1      -3.822   3.904  26.206  0.00  0.00    +0.176 C 
ATOM     18  C   UNL     1      -4.269   2.508  25.827  0.00  0.00    +0.175 C 
ATOM     19  C   UNL     1      -4.478   2.651  24.329  0.00  0.00    +0.159 C 
ENDROOT
BRANCH  17   5
ATOM      5  O   UNL     1      -4.940   4.791  26.238  0.00  0.00    -0.387 OA
ATOM     33  H   UNL     1      -5.734   4.263  26.048  0.00  0.00    +0.210 HD
ENDBRANCH  17   5
BRANCH  18   6
ATOM      6  O   UNL     1      -5.446   2.099  26.489  0.00  0.00    -0.387 OA
ATOM     34  H   UNL     1      -5.589   2.708  27.234  0.00  0.00    +0.210 HD
ENDBRANCH  18   6
BRANCH  14  20
ATOM     20  C   UNL     1      -1.486   3.898  25.203  0.00  0.00    +0.138 C 
BRANCH  20  10
ATOM      7  O   UNL     1       0.996   2.804  26.252  0.00  0.00    -0.276 OA
ATOM     10  N   UNL     1      -1.264   3.317  26.495  0.00  0.00    -0.313 N 
ATOM     21  C   UNL     1      -0.037   2.818  26.911  0.00  0.00    +0.216 C 
ATOM     32  H   UNL     1      -2.053   3.273  27.132  0.00  0.00    +0.149 HD
BRANCH  21  13
ATOM     13  C   UNL     1      -0.035   2.261  28.296  0.00  0.00    +0.075 C 
ATOM     15  C   UNL     1       1.277   1.996  28.974  0.00  0.00    +0.013 C 
ATOM     16  C   UNL     1       0.412   3.133  29.432  0.00  0.00    +0.013 C 
ENDBRANCH  21  13
ENDBRANCH  20  10
ENDBRANCH  14  20
BRANCH  19  22
ATOM     22  C   UNL     1      -4.356   1.338  23.576  0.00  0.00    +0.133 C 
BRANCH  22  23
ATOM      8  O   UNL     1      -2.844  -0.392  24.389  0.00  0.00    -0.338 OA
ATOM     11  N   UNL     1      -1.845   1.202  23.173  0.00  0.00    -0.191 NA
ATOM     12  N   UNL     1      -1.485  -0.731  24.342  0.00  0.00    -0.056 NA
ATOM     23  C   UNL     1      -2.969   0.758  23.676  0.00  0.00    +0.230 A 
ATOM     24  C   UNL     1      -0.963   0.255  23.607  0.00  0.00    +0.202 A 
BRANCH  24  25
ATOM     25  C   UNL     1       0.434   0.324  23.290  0.00  0.00    +0.023 A 
ATOM     26  C   UNL     1       1.012  -0.646  22.472  0.00  0.00    +0.015 A 
ATOM     27  C   UNL     1       1.214   1.362  23.801  0.00  0.00    +0.015 A 
ATOM     28  C   UNL     1       2.372  -0.580  22.164  0.00  0.00    +0.046 A 
ATOM     29  C   UNL     1       2.573   1.428  23.493  0.00  0.00    +0.046 A 
ATOM     30  C   UNL     1       3.152   0.458  22.675  0.00  0.00    +0.130 A 
BRANCH  30   9
ATOM      9  O   UNL     1       4.477   0.524  22.376  0.00  0.00    -0.406 OA
BRANCH   9  31
ATOM      1  F   UNL     1       4.913  -1.106  23.875  0.00  0.00    -0.133 F 
ATOM      2  F   UNL     1       6.590  -0.271  22.750  0.00  0.00    -0.133 F 
ATOM      3  F   UNL     1       5.600   0.918  24.329  0.00  0.00    -0.133 F 
ATOM     31  C   UNL     1       5.409   0.028  23.331  0.00  0.00    +0.575 C 
ENDBRANCH   9  31
ENDBRANCH  30   9
ENDBRANCH  24  25
ENDBRANCH  22  23
ENDBRANCH  19  22
TORSDOF 10
ENDMDL
