MODEL 1
REMARK VINA RESULT:      -2.7      0.000      0.000
REMARK  Name = 45783436
REMARK  11 active torsions:
REMARK  status: ('A' for Active; 'I' for Inactive)
REMARK    1  A    between atoms: O_2  and  C_26
REMARK    2  A    between atoms: O_2  and  C_29
REMARK    3  A    between atoms: O_3  and  C_25
REMARK    4  A    between atoms: O_5  and  C_30
REMARK    5  A    between atoms: O_5  and  C_31
REMARK    6  A    between atoms: N_6  and  C_14
REMARK    7  A    between atoms: C_10  and  C_15
REMARK    8  A    between atoms: C_14  and  C_16
REMARK    9  A    between atoms: C_19  and  C_23
REMARK   10  A    between atoms: C_22  and  C_25
REMARK   11  A    between atoms: C_29  and  C_30
REMARK                            x       y       z     vdW  Elec       q    Type
REMARK                         _______ _______ _______ _____ _____    ______ ____
ROOT
ATOM      6  N   UNL     1      16.590  -4.222  30.363  0.00  0.00    -0.287 NA
ATOM     10  C   UNL     1      15.995  -3.956  31.688  0.00  0.00    +0.146 C 
ATOM     11  C   UNL     1      15.843  -2.425  31.748  0.00  0.00    +0.030 C 
ATOM     12  C   UNL     1      16.435  -1.915  30.442  0.00  0.00    +0.017 C 
ATOM     13  C   UNL     1      17.365  -3.031  30.011  0.00  0.00    +0.085 C 
ENDROOT
BRANCH  10  15
ATOM      1  O   UNL     1      13.584  -3.904  32.092  0.00  0.00    -0.336 OA
ATOM      7  N   UNL     1      14.437  -5.968  31.909  0.00  0.00    -0.189 NA
ATOM      8  N   UNL     1      12.509  -4.785  32.255  0.00  0.00    -0.054 NA
ATOM     15  C   UNL     1      14.681  -4.681  31.892  0.00  0.00    +0.245 A 
ATOM     19  C   UNL     1      13.091  -5.982  32.134  0.00  0.00    +0.221 A 
BRANCH  19  23
ATOM      9  N   UNL     1      11.012  -7.096  32.162  0.00  0.00    -0.252 NA
ATOM     23  C   UNL     1      12.357  -7.211  32.232  0.00  0.00    +0.115 A 
ATOM     24  C   UNL     1      13.026  -8.414  32.386  0.00  0.00    +0.077 A 
ATOM     26  C   UNL     1      12.265  -9.575  32.476  0.00  0.00    +0.124 A 
ATOM     27  C   UNL     1      10.306  -8.246  32.253  0.00  0.00    +0.115 A 
ATOM     28  C   UNL     1      10.879  -9.498  32.409  0.00  0.00    +0.065 A 
BRANCH  26   2
ATOM      2  O   UNL     1      12.875 -10.781  32.629  0.00  0.00    -0.490 OA
BRANCH   2  29
ATOM     29  C   UNL     1      14.280 -10.772  32.873  0.00  0.00    +0.257 C 
BRANCH  29  30
ATOM     30  C   UNL     1      15.014 -10.775  31.546  0.00  0.00    +0.200 C 
BRANCH  30   5
ATOM      5  O   UNL     1      16.084  -9.839  31.606  0.00  0.00    -0.380 OA
ATOM     31  C   UNL     1      17.279 -10.445  32.076  0.00  0.00    +0.194 C 
ENDBRANCH  30   5
ENDBRANCH  29  30
ENDBRANCH   2  29
ENDBRANCH  26   2
ENDBRANCH  19  23
ENDBRANCH  10  15
BRANCH   6  14
ATOM     14  C   UNL     1      17.400  -5.433  30.331  0.00  0.00    +0.120 C 
BRANCH  14  16
ATOM     16  C   UNL     1      16.904  -6.412  29.301  0.00  0.00    -0.033 A 
ATOM     17  C   UNL     1      16.055  -5.981  28.281  0.00  0.00    +0.006 A 
ATOM     18  C   UNL     1      17.295  -7.750  29.363  0.00  0.00    +0.006 A 
ATOM     20  C   UNL     1      15.596  -6.887  27.326  0.00  0.00    +0.015 A 
ATOM     21  C   UNL     1      16.835  -8.657  28.408  0.00  0.00    +0.015 A 
ATOM     22  C   UNL     1      15.986  -8.226  27.389  0.00  0.00    +0.059 A 
BRANCH  22  25
ATOM      4  O   UNL     1      15.691  -9.082  25.175  0.00  0.00    -0.245 OA
ATOM     25  C   UNL     1      15.507  -9.171  26.393  0.00  0.00    +0.337 C 
BRANCH  25   3
ATOM      3  O   UNL     1      14.814 -10.203  26.946  0.00  0.00    -0.477 OA
ATOM     32  H   UNL     1      14.461 -10.813  26.264  0.00  0.00    +0.295 HD
ENDBRANCH  25   3
ENDBRANCH  22  25
ENDBRANCH  14  16
ENDBRANCH   6  14
TORSDOF 10
ENDMDL
MODEL 2
REMARK VINA RESULT:      -0.2     16.645     19.513
REMARK  Name = 45783436
REMARK  11 active torsions:
REMARK  status: ('A' for Active; 'I' for Inactive)
REMARK    1  A    between atoms: O_2  and  C_26
REMARK    2  A    between atoms: O_2  and  C_29
REMARK    3  A    between atoms: O_3  and  C_25
REMARK    4  A    between atoms: O_5  and  C_30
REMARK    5  A    between atoms: O_5  and  C_31
REMARK    6  A    between atoms: N_6  and  C_14
REMARK    7  A    between atoms: C_10  and  C_15
REMARK    8  A    between atoms: C_14  and  C_16
REMARK    9  A    between atoms: C_19  and  C_23
REMARK   10  A    between atoms: C_22  and  C_25
REMARK   11  A    between atoms: C_29  and  C_30
REMARK                            x       y       z     vdW  Elec       q    Type
REMARK                         _______ _______ _______ _____ _____    ______ ____
ROOT
ATOM      6  N   UNL     1      -4.284  -0.836  24.131  0.00  0.00    -0.287 NA
ATOM     10  C   UNL     1      -3.237  -1.295  25.066  0.00  0.00    +0.146 C 
ATOM     11  C   UNL     1      -3.221  -2.827  24.912  0.00  0.00    +0.030 C 
ATOM     12  C   UNL     1      -4.331  -3.139  23.919  0.00  0.00    +0.017 C 
ATOM     13  C   UNL     1      -5.244  -1.934  24.014  0.00  0.00    +0.085 C 
ENDROOT
BRANCH  10  15
ATOM      1  O   UNL     1      -1.439   0.236  25.698  0.00  0.00    -0.336 OA
ATOM      7  N   UNL     1      -1.075  -0.858  23.778  0.00  0.00    -0.189 NA
ATOM      8  N   UNL     1      -0.195   0.675  25.230  0.00  0.00    -0.054 NA
ATOM     15  C   UNL     1      -1.889  -0.665  24.786  0.00  0.00    +0.245 A 
ATOM     19  C   UNL     1      -0.051  -0.015  24.095  0.00  0.00    +0.221 A 
BRANCH  19  23
ATOM      9  N   UNL     1       1.015  -0.472  22.040  0.00  0.00    -0.252 NA
ATOM     23  C   UNL     1       1.106   0.113  23.255  0.00  0.00    +0.115 A 
ATOM     24  C   UNL     1       2.221   0.802  23.702  0.00  0.00    +0.077 A 
ATOM     26  C   UNL     1       3.314   0.896  22.848  0.00  0.00    +0.124 A 
ATOM     27  C   UNL     1       2.097  -0.360  21.237  0.00  0.00    +0.115 A 
ATOM     28  C   UNL     1       3.259   0.307  21.590  0.00  0.00    +0.065 A 
BRANCH  26   2
ATOM      2  O   UNL     1       4.433   1.562  23.242  0.00  0.00    -0.490 OA
BRANCH   2  29
ATOM     29  C   UNL     1       5.627   0.795  23.392  0.00  0.00    +0.257 C 
BRANCH  29  30
ATOM     30  C   UNL     1       5.481  -0.119  24.593  0.00  0.00    +0.200 C 
BRANCH  30   5
ATOM      5  O   UNL     1       5.611  -1.470  24.166  0.00  0.00    -0.380 OA
ATOM     31  C   UNL     1       4.342  -2.068  23.938  0.00  0.00    +0.194 C 
ENDBRANCH  30   5
ENDBRANCH  29  30
ENDBRANCH   2  29
ENDBRANCH  26   2
ENDBRANCH  19  23
ENDBRANCH  10  15
BRANCH   6  14
ATOM     14  C   UNL     1      -4.920   0.407  24.548  0.00  0.00    +0.120 C 
BRANCH  14  16
ATOM     16  C   UNL     1      -3.951   1.559  24.557  0.00  0.00    -0.033 A 
ATOM     17  C   UNL     1      -3.826   2.356  25.695  0.00  0.00    +0.006 A 
ATOM     18  C   UNL     1      -3.175   1.828  23.430  0.00  0.00    +0.006 A 
ATOM     20  C   UNL     1      -2.927   3.422  25.705  0.00  0.00    +0.015 A 
ATOM     21  C   UNL     1      -2.276   2.895  23.439  0.00  0.00    +0.015 A 
ATOM     22  C   UNL     1      -2.152   3.692  24.576  0.00  0.00    +0.059 A 
BRANCH  22  25
ATOM      4  O   UNL     1      -1.415   5.905  25.109  0.00  0.00    -0.245 OA
ATOM     25  C   UNL     1      -1.215   4.804  24.587  0.00  0.00    +0.337 C 
BRANCH  25   3
ATOM      3  O   UNL     1      -0.052   4.508  23.944  0.00  0.00    -0.477 OA
ATOM     32  H   UNL     1      -0.077   4.777  23.001  0.00  0.00    +0.295 HD
ENDBRANCH  25   3
ENDBRANCH  22  25
ENDBRANCH  14  16
ENDBRANCH   6  14
TORSDOF 10
ENDMDL
MODEL 3
REMARK VINA RESULT:      -0.1      2.558      3.905
REMARK  Name = 45783436
REMARK  11 active torsions:
REMARK  status: ('A' for Active; 'I' for Inactive)
REMARK    1  A    between atoms: O_2  and  C_26
REMARK    2  A    between atoms: O_2  and  C_29
REMARK    3  A    between atoms: O_3  and  C_25
REMARK    4  A    between atoms: O_5  and  C_30
REMARK    5  A    between atoms: O_5  and  C_31
REMARK    6  A    between atoms: N_6  and  C_14
REMARK    7  A    between atoms: C_10  and  C_15
REMARK    8  A    between atoms: C_14  and  C_16
REMARK    9  A    between atoms: C_19  and  C_23
REMARK   10  A    between atoms: C_22  and  C_25
REMARK   11  A    between atoms: C_29  and  C_30
REMARK                            x       y       z     vdW  Elec       q    Type
REMARK                         _______ _______ _______ _____ _____    ______ ____
ROOT
ATOM      6  N   UNL     1      14.891  -5.661  30.218  0.00  0.00    -0.287 NA
ATOM     10  C   UNL     1      14.670  -5.513  31.671  0.00  0.00    +0.146 C 
ATOM     11  C   UNL     1      15.329  -4.169  32.032  0.00  0.00    +0.030 C 
ATOM     12  C   UNL     1      15.945  -3.666  30.734  0.00  0.00    +0.017 C 
ATOM     13  C   UNL     1      16.118  -4.926  29.910  0.00  0.00    +0.085 C 
ENDROOT
BRANCH  10  15
ATOM      1  O   UNL     1      12.649  -4.402  32.481  0.00  0.00    -0.336 OA
ATOM      7  N   UNL     1      12.374  -6.577  32.016  0.00  0.00    -0.189 NA
ATOM      8  N   UNL     1      11.309  -4.695  32.764  0.00  0.00    -0.054 NA
ATOM     15  C   UNL     1      13.204  -5.564  32.046  0.00  0.00    +0.245 A 
ATOM     19  C   UNL     1      11.225  -5.995  32.465  0.00  0.00    +0.221 A 
BRANCH  19  23
ATOM      9  N   UNL     1       8.881  -6.004  32.734  0.00  0.00    -0.252 NA
ATOM     23  C   UNL     1      10.007  -6.741  32.602  0.00  0.00    +0.115 A 
ATOM     24  C   UNL     1      10.030  -8.126  32.594  0.00  0.00    +0.077 A 
ATOM     26  C   UNL     1       8.821  -8.798  32.731  0.00  0.00    +0.124 A 
ATOM     27  C   UNL     1       7.725  -6.693  32.864  0.00  0.00    +0.115 A 
ATOM     28  C   UNL     1       7.642  -8.076  32.868  0.00  0.00    +0.065 A 
BRANCH  26   2
ATOM      2  O   UNL     1       8.792 -10.159  32.729  0.00  0.00    -0.490 OA
BRANCH   2  29
ATOM     29  C   UNL     1       7.514 -10.781  32.846  0.00  0.00    +0.257 C 
BRANCH  29  30
ATOM     30  C   UNL     1       6.700 -10.482  31.601  0.00  0.00    +0.200 C 
BRANCH  30   5
ATOM      5  O   UNL     1       7.580 -10.373  30.488  0.00  0.00    -0.380 OA
ATOM     31  C   UNL     1       6.945 -10.775  29.282  0.00  0.00    +0.194 C 
ENDBRANCH  30   5
ENDBRANCH  29  30
ENDBRANCH   2  29
ENDBRANCH  26   2
ENDBRANCH  19  23
ENDBRANCH  10  15
BRANCH   6  14
ATOM     14  C   UNL     1      14.960  -7.051  29.787  0.00  0.00    +0.120 C 
BRANCH  14  16
ATOM     16  C   UNL     1      15.515  -7.179  28.394  0.00  0.00    -0.033 A 
ATOM     17  C   UNL     1      14.839  -6.599  27.319  0.00  0.00    +0.006 A 
ATOM     18  C   UNL     1      16.704  -7.875  28.175  0.00  0.00    +0.006 A 
ATOM     20  C   UNL     1      15.353  -6.716  26.028  0.00  0.00    +0.015 A 
ATOM     21  C   UNL     1      17.217  -7.993  26.883  0.00  0.00    +0.015 A 
ATOM     22  C   UNL     1      16.542  -7.413  25.810  0.00  0.00    +0.059 A 
BRANCH  22  25
ATOM      4  O   UNL     1      17.280  -6.597  23.685  0.00  0.00    -0.245 OA
ATOM     25  C   UNL     1      17.077  -7.535  24.463  0.00  0.00    +0.337 C 
BRANCH  25   3
ATOM      3  O   UNL     1      17.345  -8.826  24.125  0.00  0.00    -0.477 OA
ATOM     32  H   UNL     1      16.957  -9.459  24.766  0.00  0.00    +0.295 HD
ENDBRANCH  25   3
ENDBRANCH  22  25
ENDBRANCH  14  16
ENDBRANCH   6  14
TORSDOF 10
ENDMDL
