MODEL 1
REMARK VINA RESULT:       6.2      0.000      0.000
REMARK  Name = 40777226
REMARK  8 active torsions:
REMARK  status: ('A' for Active; 'I' for Inactive)
REMARK    1  A    between atoms: O_2  and  C_25
REMARK    2  A    between atoms: O_2  and  C_35
REMARK    3  A    between atoms: N_6  and  C_16
REMARK    4  A    between atoms: N_7  and  C_17
REMARK    5  A    between atoms: N_8  and  C_23
REMARK    6  A    between atoms: C_10  and  C_16
REMARK    7  A    between atoms: C_11  and  C_17
REMARK    8  A    between atoms: C_22  and  C_24
REMARK                            x       y       z     vdW  Elec       q    Type
REMARK                         _______ _______ _______ _____ _____    ______ ____
ROOT
ATOM      5  N   UNL     1      -2.423   3.637  26.249  0.00  0.00    -0.298 NA
ATOM      9  C   UNL     1      -2.207   5.401  24.349  0.00  0.00    -0.003 C 
ATOM     10  C   UNL     1      -3.590   4.711  24.307  0.00  0.00    +0.020 C 
ATOM     11  C   UNL     1      -1.179   3.396  25.469  0.00  0.00    +0.074 C 
ATOM     12  C   UNL     1      -1.103   4.334  24.244  0.00  0.00    +0.024 C 
ATOM     13  C   UNL     1      -3.609   3.580  25.360  0.00  0.00    +0.089 C 
ATOM     14  C   UNL     1      -2.077   6.058  25.737  0.00  0.00    +0.019 C 
ATOM     15  C   UNL     1      -2.343   5.002  26.825  0.00  0.00    +0.085 C 
ENDROOT
BRANCH  10  16
ATOM     16  C   UNL     1      -3.965   4.195  22.920  0.00  0.00    +0.089 C 
BRANCH  16   6
ATOM      6  N   UNL     1      -4.200   2.752  22.946  0.00  0.00    -0.299 NA
ATOM      8  N   UNL     1      -3.852   0.069  23.865  0.00  0.00    -0.325 N 
ATOM     18  C   UNL     1      -4.728   2.339  24.252  0.00  0.00    +0.103 C 
ATOM     19  C   UNL     1      -2.959   2.022  22.656  0.00  0.00    +0.103 C 
ATOM     20  C   UNL     1      -5.032   0.839  24.274  0.00  0.00    +0.120 C 
ATOM     21  C   UNL     1      -3.205   0.513  22.624  0.00  0.00    +0.120 C 
BRANCH   8  23
ATOM     23  C   UNL     1      -3.750  -1.281  24.213  0.00  0.00    +0.072 A 
ATOM     25  C   UNL     1      -3.016  -1.672  25.333  0.00  0.00    +0.141 A 
ATOM     26  C   UNL     1      -4.392  -2.242  23.431  0.00  0.00    +0.027 A 
ATOM     29  C   UNL     1      -2.923  -3.022  25.670  0.00  0.00    +0.047 A 
ATOM     30  C   UNL     1      -4.298  -3.592  23.768  0.00  0.00    +0.002 A 
ATOM     31  C   UNL     1      -3.563  -3.983  24.887  0.00  0.00    +0.004 A 
BRANCH  25   2
ATOM      2  O   UNL     1      -2.382  -0.750  26.111  0.00  0.00    -0.493 OA
ATOM     35  C   UNL     1      -1.019  -1.010  26.443  0.00  0.00    +0.277 C 
ENDBRANCH  25   2
ENDBRANCH   8  23
ENDBRANCH  16   6
ENDBRANCH  10  16
BRANCH  11  17
ATOM     17  C   UNL     1      -1.016   1.926  25.072  0.00  0.00    +0.123 C 
BRANCH  17   7
ATOM      1  O   UNL     1      -0.127   0.078  23.063  0.00  0.00    -0.270 OA
ATOM      7  N   UNL     1       0.360   1.642  24.701  0.00  0.00    -0.310 N 
ATOM     22  C   UNL     1       0.683   0.730  23.716  0.00  0.00    +0.244 C 
ATOM     37  H   UNL     1       1.081   2.080  25.265  0.00  0.00    +0.149 HD
BRANCH  22  24
ATOM      3  O   UNL     1       4.869  -1.866  23.958  0.00  0.00    -0.453 OA
ATOM      4  O   UNL     1       6.139  -0.134  22.865  0.00  0.00    -0.453 OA
ATOM     24  C   UNL     1       2.135   0.534  23.475  0.00  0.00    +0.040 A 
ATOM     27  C   UNL     1       2.752  -0.652  23.882  0.00  0.00    +0.062 A 
ATOM     28  C   UNL     1       2.876   1.544  22.837  0.00  0.00    +0.017 A 
ATOM     32  C   UNL     1       4.103  -0.789  23.635  0.00  0.00    +0.167 A 
ATOM     33  C   UNL     1       4.243   1.381  22.598  0.00  0.00    +0.050 A 
ATOM     34  C   UNL     1       4.829   0.201  23.010  0.00  0.00    +0.166 A 
ATOM     36  C   UNL     1       6.157  -1.444  23.467  0.00  0.00    +0.466 C 
ENDBRANCH  22  24
ENDBRANCH  17   7
ENDBRANCH  11  17
TORSDOF 7
ENDMDL
MODEL 2
REMARK VINA RESULT:       6.5      1.313      5.223
REMARK  Name = 40777226
REMARK  8 active torsions:
REMARK  status: ('A' for Active; 'I' for Inactive)
REMARK    1  A    between atoms: O_2  and  C_25
REMARK    2  A    between atoms: O_2  and  C_35
REMARK    3  A    between atoms: N_6  and  C_16
REMARK    4  A    between atoms: N_7  and  C_17
REMARK    5  A    between atoms: N_8  and  C_23
REMARK    6  A    between atoms: C_10  and  C_16
REMARK    7  A    between atoms: C_11  and  C_17
REMARK    8  A    between atoms: C_22  and  C_24
REMARK                            x       y       z     vdW  Elec       q    Type
REMARK                         _______ _______ _______ _____ _____    ______ ____
ROOT
ATOM      5  N   UNL     1      -2.100  -1.944  23.595  0.00  0.00    -0.298 NA
ATOM      9  C   UNL     1      -4.079  -2.873  25.004  0.00  0.00    -0.003 C 
ATOM     10  C   UNL     1      -4.572  -1.815  23.992  0.00  0.00    +0.020 C 
ATOM     11  C   UNL     1      -1.783  -1.845  25.045  0.00  0.00    +0.074 C 
ATOM     12  C   UNL     1      -2.999  -2.250  25.907  0.00  0.00    +0.024 C 
ATOM     13  C   UNL     1      -3.344  -1.196  23.287  0.00  0.00    +0.089 C 
ATOM     14  C   UNL     1      -3.402  -3.992  24.188  0.00  0.00    +0.019 C 
ATOM     15  C   UNL     1      -2.329  -3.374  23.273  0.00  0.00    +0.085 C 
ENDROOT
BRANCH  10  16
ATOM     16  C   UNL     1      -5.458  -0.743  24.623  0.00  0.00    +0.089 C 
BRANCH  16   6
ATOM      6  N   UNL     1      -4.938   0.595  24.344  0.00  0.00    -0.299 NA
ATOM      8  N   UNL     1      -3.135   2.796  24.597  0.00  0.00    -0.325 N 
ATOM     18  C   UNL     1      -3.582   0.514  23.785  0.00  0.00    +0.103 C 
ATOM     19  C   UNL     1      -4.925   1.408  25.566  0.00  0.00    +0.103 C 
ATOM     20  C   UNL     1      -3.048   1.905  23.435  0.00  0.00    +0.120 C 
ATOM     21  C   UNL     1      -4.436   2.828  25.276  0.00  0.00    +0.120 C 
BRANCH   8  23
ATOM     23  C   UNL     1      -2.336   3.943  24.653  0.00  0.00    +0.072 A 
ATOM     25  C   UNL     1      -0.984   3.851  24.984  0.00  0.00    +0.141 A 
ATOM     26  C   UNL     1      -2.901   5.187  24.373  0.00  0.00    +0.027 A 
ATOM     29  C   UNL     1      -0.198   5.002  25.035  0.00  0.00    +0.047 A 
ATOM     30  C   UNL     1      -2.115   6.338  24.425  0.00  0.00    +0.002 A 
ATOM     31  C   UNL     1      -0.764   6.246  24.757  0.00  0.00    +0.004 A 
BRANCH  25   2
ATOM      2  O   UNL     1      -0.412   2.645  25.261  0.00  0.00    -0.493 OA
ATOM     35  C   UNL     1       0.204   2.499  26.539  0.00  0.00    +0.277 C 
ENDBRANCH  25   2
ENDBRANCH   8  23
ENDBRANCH  16   6
ENDBRANCH  10  16
BRANCH  11  17
ATOM     17  C   UNL     1      -1.246  -0.464  25.432  0.00  0.00    +0.123 C 
BRANCH  17   7
ATOM      1  O   UNL     1      -0.244   0.223  22.831  0.00  0.00    -0.270 OA
ATOM      7  N   UNL     1       0.149  -0.327  25.047  0.00  0.00    -0.310 N 
ATOM     22  C   UNL     1       0.527   0.008  23.762  0.00  0.00    +0.244 C 
ATOM     37  H   UNL     1       0.839  -0.580  25.746  0.00  0.00    +0.149 HD
BRANCH  22  24
ATOM      3  O   UNL     1       5.113  -1.793  23.980  0.00  0.00    -0.453 OA
ATOM      4  O   UNL     1       6.051   0.157  22.920  0.00  0.00    -0.453 OA
ATOM     24  C   UNL     1       1.992   0.082  23.524  0.00  0.00    +0.040 A 
ATOM     27  C   UNL     1       2.812  -0.980  23.915  0.00  0.00    +0.062 A 
ATOM     28  C   UNL     1       2.539   1.219  22.906  0.00  0.00    +0.017 A 
ATOM     32  C   UNL     1       4.165  -0.867  23.671  0.00  0.00    +0.167 A 
ATOM     33  C   UNL     1       3.913   1.309  22.670  0.00  0.00    +0.050 A 
ATOM     34  C   UNL     1       4.702   0.248  23.065  0.00  0.00    +0.166 A 
ATOM     36  C   UNL     1       6.305  -1.137  23.501  0.00  0.00    +0.466 C 
ENDBRANCH  22  24
ENDBRANCH  17   7
ENDBRANCH  11  17
TORSDOF 7
ENDMDL
MODEL 3
REMARK VINA RESULT:       7.3      1.827      6.489
REMARK  Name = 40777226
REMARK  8 active torsions:
REMARK  status: ('A' for Active; 'I' for Inactive)
REMARK    1  A    between atoms: O_2  and  C_25
REMARK    2  A    between atoms: O_2  and  C_35
REMARK    3  A    between atoms: N_6  and  C_16
REMARK    4  A    between atoms: N_7  and  C_17
REMARK    5  A    between atoms: N_8  and  C_23
REMARK    6  A    between atoms: C_10  and  C_16
REMARK    7  A    between atoms: C_11  and  C_17
REMARK    8  A    between atoms: C_22  and  C_24
REMARK                            x       y       z     vdW  Elec       q    Type
REMARK                         _______ _______ _______ _____ _____    ______ ____
ROOT
ATOM      5  N   UNL     1      -4.186   4.638  23.911  0.00  0.00    -0.298 NA
ATOM      9  C   UNL     1      -2.381   4.341  25.760  0.00  0.00    -0.003 C 
ATOM     10  C   UNL     1      -2.038   3.494  24.513  0.00  0.00    +0.020 C 
ATOM     11  C   UNL     1      -4.833   4.273  25.200  0.00  0.00    +0.074 C 
ATOM     12  C   UNL     1      -3.775   3.944  26.277  0.00  0.00    +0.024 C 
ATOM     13  C   UNL     1      -3.210   3.595  23.511  0.00  0.00    +0.089 C 
ATOM     14  C   UNL     1      -2.466   5.807  25.295  0.00  0.00    +0.019 C 
ATOM     15  C   UNL     1      -3.448   5.908  24.114  0.00  0.00    +0.085 C 
ENDROOT
BRANCH  10  16
ATOM     16  C   UNL     1      -1.704   2.041  24.844  0.00  0.00    +0.089 C 
BRANCH  16   6
ATOM      6  N   UNL     1      -0.535   1.590  24.091  0.00  0.00    -0.299 NA
ATOM      8  N   UNL     1       2.190   0.811  23.726  0.00  0.00    -0.325 N 
ATOM     18  C   UNL     1      -0.052   0.304  24.611  0.00  0.00    +0.103 C 
ATOM     19  C   UNL     1       0.539   2.589  24.159  0.00  0.00    +0.103 C 
ATOM     20  C   UNL     1       1.137  -0.208  23.796  0.00  0.00    +0.120 C 
ATOM     21  C   UNL     1       1.747   2.154  23.328  0.00  0.00    +0.120 C 
BRANCH   8  23
ATOM     23  C   UNL     1       3.502   0.434  23.421  0.00  0.00    +0.072 A 
ATOM     25  C   UNL     1       3.870   0.141  22.108  0.00  0.00    +0.141 A 
ATOM     26  C   UNL     1       4.447   0.352  24.444  0.00  0.00    +0.027 A 
ATOM     29  C   UNL     1       5.181  -0.233  21.818  0.00  0.00    +0.047 A 
ATOM     30  C   UNL     1       5.758  -0.023  24.154  0.00  0.00    +0.002 A 
ATOM     31  C   UNL     1       6.126  -0.316  22.841  0.00  0.00    +0.004 A 
BRANCH  25   2
ATOM      2  O   UNL     1       2.962   0.215  21.094  0.00  0.00    -0.493 OA
ATOM     35  C   UNL     1       1.785  -0.583  21.219  0.00  0.00    +0.277 C 
ENDBRANCH  25   2
ENDBRANCH   8  23
ENDBRANCH  16   6
ENDBRANCH  10  16
BRANCH  11  17
ATOM     17  C   UNL     1      -5.854   3.143  25.042  0.00  0.00    +0.123 C 
BRANCH  17   7
ATOM      1  O   UNL     1      -5.611   0.804  26.689  0.00  0.00    -0.270 OA
ATOM      7  N   UNL     1      -5.192   1.897  24.689  0.00  0.00    -0.310 N 
ATOM     22  C   UNL     1      -5.130   0.826  25.559  0.00  0.00    +0.244 C 
ATOM     37  H   UNL     1      -4.696   1.881  23.805  0.00  0.00    +0.149 HD
BRANCH  22  24
ATOM      3  O   UNL     1      -1.274  -2.246  25.476  0.00  0.00    -0.453 OA
ATOM      4  O   UNL     1      -2.266  -3.626  23.767  0.00  0.00    -0.453 OA
ATOM     24  C   UNL     1      -4.396  -0.364  25.059  0.00  0.00    +0.040 A 
ATOM     27  C   UNL     1      -3.139  -0.674  25.583  0.00  0.00    +0.062 A 
ATOM     28  C   UNL     1      -4.975  -1.169  24.062  0.00  0.00    +0.017 A 
ATOM     32  C   UNL     1      -2.497  -1.791  25.088  0.00  0.00    +0.167 A 
ATOM     33  C   UNL     1      -4.303  -2.295  23.578  0.00  0.00    +0.050 A 
ATOM     34  C   UNL     1      -3.063  -2.580  24.112  0.00  0.00    +0.166 A 
ATOM     36  C   UNL     1      -1.135  -3.409  24.634  0.00  0.00    +0.466 C 
ENDBRANCH  22  24
ENDBRANCH  17   7
ENDBRANCH  11  17
TORSDOF 7
ENDMDL
MODEL 4
REMARK VINA RESULT:       7.4      1.731      6.397
REMARK  Name = 40777226
REMARK  8 active torsions:
REMARK  status: ('A' for Active; 'I' for Inactive)
REMARK    1  A    between atoms: O_2  and  C_25
REMARK    2  A    between atoms: O_2  and  C_35
REMARK    3  A    between atoms: N_6  and  C_16
REMARK    4  A    between atoms: N_7  and  C_17
REMARK    5  A    between atoms: N_8  and  C_23
REMARK    6  A    between atoms: C_10  and  C_16
REMARK    7  A    between atoms: C_11  and  C_17
REMARK    8  A    between atoms: C_22  and  C_24
REMARK                            x       y       z     vdW  Elec       q    Type
REMARK                         _______ _______ _______ _____ _____    ______ ____
ROOT
ATOM      5  N   UNL     1      -3.699   4.822  24.814  0.00  0.00    -0.298 NA
ATOM      9  C   UNL     1      -1.245   3.984  25.010  0.00  0.00    -0.003 C 
ATOM     10  C   UNL     1      -1.893   3.489  23.697  0.00  0.00    +0.020 C 
ATOM     11  C   UNL     1      -3.495   4.148  26.124  0.00  0.00    +0.074 C 
ATOM     12  C   UNL     1      -2.090   3.509  26.205  0.00  0.00    +0.024 C 
ATOM     13  C   UNL     1      -3.385   3.893  23.701  0.00  0.00    +0.089 C 
ATOM     14  C   UNL     1      -1.308   5.523  24.988  0.00  0.00    +0.019 C 
ATOM     15  C   UNL     1      -2.760   5.968  24.738  0.00  0.00    +0.085 C 
ENDROOT
BRANCH  10  16
ATOM     16  C   UNL     1      -1.717   1.991  23.463  0.00  0.00    +0.089 C 
BRANCH  16   6
ATOM      6  N   UNL     1      -0.323   1.671  23.157  0.00  0.00    -0.299 NA
ATOM      8  N   UNL     1       2.163   0.297  23.459  0.00  0.00    -0.325 N 
ATOM     18  C   UNL     1      -0.195   0.266  22.749  0.00  0.00    +0.103 C 
ATOM     19  C   UNL     1       0.533   1.932  24.322  0.00  0.00    +0.103 C 
ATOM     20  C   UNL     1       1.250  -0.067  22.371  0.00  0.00    +0.120 C 
ATOM     21  C   UNL     1       2.002   1.654  23.996  0.00  0.00    +0.120 C 
BRANCH   8  23
ATOM     23  C   UNL     1       3.431  -0.290  23.527  0.00  0.00    +0.072 A 
ATOM     25  C   UNL     1       4.580   0.479  23.347  0.00  0.00    +0.141 A 
ATOM     26  C   UNL     1       3.540  -1.659  23.777  0.00  0.00    +0.027 A 
ATOM     29  C   UNL     1       5.839  -0.119  23.418  0.00  0.00    +0.047 A 
ATOM     30  C   UNL     1       4.799  -2.256  23.847  0.00  0.00    +0.002 A 
ATOM     31  C   UNL     1       5.948  -1.487  23.667  0.00  0.00    +0.004 A 
BRANCH  25   2
ATOM      2  O   UNL     1       4.496   1.817  23.102  0.00  0.00    -0.493 OA
ATOM     35  C   UNL     1       4.008   2.211  21.820  0.00  0.00    +0.277 C 
ENDBRANCH  25   2
ENDBRANCH   8  23
ENDBRANCH  16   6
ENDBRANCH  10  16
BRANCH  11  17
ATOM     17  C   UNL     1      -4.599   3.136  26.438  0.00  0.00    +0.123 C 
BRANCH  17   7
ATOM      1  O   UNL     1      -5.746   1.627  24.281  0.00  0.00    -0.270 OA
ATOM      7  N   UNL     1      -4.212   1.801  26.009  0.00  0.00    -0.310 N 
ATOM     22  C   UNL     1      -4.831   1.160  24.955  0.00  0.00    +0.244 C 
ATOM     37  H   UNL     1      -3.525   1.323  26.581  0.00  0.00    +0.149 HD
BRANCH  22  24
ATOM      3  O   UNL     1      -1.371  -2.352  24.913  0.00  0.00    -0.453 OA
ATOM      4  O   UNL     1      -2.852  -3.959  23.897  0.00  0.00    -0.453 OA
ATOM     24  C   UNL     1      -4.338  -0.209  24.659  0.00  0.00    +0.040 A 
ATOM     27  C   UNL     1      -3.021  -0.554  24.973  0.00  0.00    +0.062 A 
ATOM     28  C   UNL     1      -5.203  -1.146  24.067  0.00  0.00    +0.017 A 
ATOM     32  C   UNL     1      -2.609  -1.839  24.681  0.00  0.00    +0.167 A 
ATOM     33  C   UNL     1      -4.761  -2.441  23.781  0.00  0.00    +0.050 A 
ATOM     34  C   UNL     1      -3.456  -2.757  24.101  0.00  0.00    +0.166 A 
ATOM     36  C   UNL     1      -1.532  -3.696  24.414  0.00  0.00    +0.466 C 
ENDBRANCH  22  24
ENDBRANCH  17   7
ENDBRANCH  11  17
TORSDOF 7
ENDMDL
MODEL 5
REMARK VINA RESULT:       8.1      2.060      7.231
REMARK  Name = 40777226
REMARK  8 active torsions:
REMARK  status: ('A' for Active; 'I' for Inactive)
REMARK    1  A    between atoms: O_2  and  C_25
REMARK    2  A    between atoms: O_2  and  C_35
REMARK    3  A    between atoms: N_6  and  C_16
REMARK    4  A    between atoms: N_7  and  C_17
REMARK    5  A    between atoms: N_8  and  C_23
REMARK    6  A    between atoms: C_10  and  C_16
REMARK    7  A    between atoms: C_11  and  C_17
REMARK    8  A    between atoms: C_22  and  C_24
REMARK                            x       y       z     vdW  Elec       q    Type
REMARK                         _______ _______ _______ _____ _____    ______ ____
ROOT
ATOM      5  N   UNL     1      -3.705  -1.300  25.993  0.00  0.00    -0.298 NA
ATOM      9  C   UNL     1      -3.341  -1.870  23.481  0.00  0.00    -0.003 C 
ATOM     10  C   UNL     1      -2.196  -0.980  24.017  0.00  0.00    +0.020 C 
ATOM     11  C   UNL     1      -4.926  -0.966  25.213  0.00  0.00    +0.074 C 
ATOM     12  C   UNL     1      -4.686  -1.153  23.699  0.00  0.00    +0.024 C 
ATOM     13  C   UNL     1      -2.535  -0.557  25.464  0.00  0.00    +0.089 C 
ATOM     14  C   UNL     1      -3.358  -3.146  24.345  0.00  0.00    +0.019 C 
ATOM     15  C   UNL     1      -3.441  -2.751  25.831  0.00  0.00    +0.085 C 
ENDROOT
BRANCH  10  16
ATOM     16  C   UNL     1      -1.905   0.228  23.130  0.00  0.00    +0.089 C 
BRANCH  16   6
ATOM      6  N   UNL     1      -0.465   0.429  22.977  0.00  0.00    -0.299 NA
ATOM      8  N   UNL     1       2.305  -0.164  23.349  0.00  0.00    -0.325 N 
ATOM     18  C   UNL     1       0.147  -0.721  22.300  0.00  0.00    +0.103 C 
ATOM     19  C   UNL     1       0.169   0.632  24.286  0.00  0.00    +0.103 C 
ATOM     20  C   UNL     1       1.646  -0.499  22.083  0.00  0.00    +0.120 C 
ATOM     21  C   UNL     1       1.668   0.900  24.135  0.00  0.00    +0.120 C 
BRANCH   8  23
ATOM     23  C   UNL     1       3.686  -0.341  23.480  0.00  0.00    +0.072 A 
ATOM     25  C   UNL     1       4.557   0.739  23.335  0.00  0.00    +0.141 A 
ATOM     26  C   UNL     1       4.192  -1.611  23.758  0.00  0.00    +0.027 A 
ATOM     29  C   UNL     1       5.932   0.550  23.468  0.00  0.00    +0.047 A 
ATOM     30  C   UNL     1       5.567  -1.800  23.892  0.00  0.00    +0.002 A 
ATOM     31  C   UNL     1       6.438  -0.720  23.746  0.00  0.00    +0.004 A 
BRANCH  25   2
ATOM      2  O   UNL     1       4.084   1.988  23.062  0.00  0.00    -0.493 OA
ATOM     35  C   UNL     1       3.992   2.360  21.688  0.00  0.00    +0.277 C 
ENDBRANCH  25   2
ENDBRANCH   8  23
ENDBRANCH  16   6
ENDBRANCH  10  16
BRANCH  11  17
ATOM     17  C   UNL     1      -5.460   0.432  25.536  0.00  0.00    +0.123 C 
BRANCH  17   7
ATOM      1  O   UNL     1      -5.661   3.235  26.127  0.00  0.00    -0.270 OA
ATOM      7  N   UNL     1      -4.421   1.434  25.359  0.00  0.00    -0.310 N 
ATOM     22  C   UNL     1      -4.621   2.763  25.675  0.00  0.00    +0.244 C 
ATOM     37  H   UNL     1      -3.568   1.126  24.905  0.00  0.00    +0.149 HD
BRANCH  22  24
ATOM      3  O   UNL     1      -0.216   3.812  23.722  0.00  0.00    -0.453 OA
ATOM      4  O   UNL     1      -0.230   6.053  24.608  0.00  0.00    -0.453 OA
ATOM     24  C   UNL     1      -3.470   3.664  25.412  0.00  0.00    +0.040 A 
ATOM     27  C   UNL     1      -2.390   3.205  24.652  0.00  0.00    +0.062 A 
ATOM     28  C   UNL     1      -3.478   4.971  25.928  0.00  0.00    +0.017 A 
ATOM     32  C   UNL     1      -1.345   4.079  24.433  0.00  0.00    +0.167 A 
ATOM     33  C   UNL     1      -2.407   5.837  25.691  0.00  0.00    +0.050 A 
ATOM     34  C   UNL     1      -1.353   5.360  24.939  0.00  0.00    +0.166 A 
ATOM     36  C   UNL     1       0.485   5.067  23.837  0.00  0.00    +0.466 C 
ENDBRANCH  22  24
ENDBRANCH  17   7
ENDBRANCH  11  17
TORSDOF 7
ENDMDL
MODEL 6
REMARK VINA RESULT:       8.7      1.489      5.087
REMARK  Name = 40777226
REMARK  8 active torsions:
REMARK  status: ('A' for Active; 'I' for Inactive)
REMARK    1  A    between atoms: O_2  and  C_25
REMARK    2  A    between atoms: O_2  and  C_35
REMARK    3  A    between atoms: N_6  and  C_16
REMARK    4  A    between atoms: N_7  and  C_17
REMARK    5  A    between atoms: N_8  and  C_23
REMARK    6  A    between atoms: C_10  and  C_16
REMARK    7  A    between atoms: C_11  and  C_17
REMARK    8  A    between atoms: C_22  and  C_24
REMARK                            x       y       z     vdW  Elec       q    Type
REMARK                         _______ _______ _______ _____ _____    ______ ____
ROOT
ATOM      5  N   UNL     1      -1.239  -2.269  24.744  0.00  0.00    -0.298 NA
ATOM      9  C   UNL     1      -3.639  -2.224  25.748  0.00  0.00    -0.003 C 
ATOM     10  C   UNL     1      -3.666  -2.689  24.274  0.00  0.00    +0.020 C 
ATOM     11  C   UNL     1      -1.509  -0.943  25.362  0.00  0.00    +0.074 C 
ATOM     12  C   UNL     1      -2.976  -0.837  25.832  0.00  0.00    +0.024 C 
ATOM     13  C   UNL     1      -2.241  -2.559  23.689  0.00  0.00    +0.089 C 
ATOM     14  C   UNL     1      -2.734  -3.210  26.511  0.00  0.00    +0.019 C 
ATOM     15  C   UNL     1      -1.371  -3.301  25.802  0.00  0.00    +0.085 C 
ENDROOT
BRANCH  10  16
ATOM     16  C   UNL     1      -4.693  -1.944  23.424  0.00  0.00    +0.089 C 
BRANCH  16   6
ATOM      6  N   UNL     1      -4.510  -0.498  23.534  0.00  0.00    -0.299 NA
ATOM      8  N   UNL     1      -3.198   1.912  24.328  0.00  0.00    -0.325 N 
ATOM     18  C   UNL     1      -3.257  -0.086  22.889  0.00  0.00    +0.103 C 
ATOM     19  C   UNL     1      -4.506  -0.084  24.943  0.00  0.00    +0.103 C 
ATOM     20  C   UNL     1      -3.082   1.433  22.947  0.00  0.00    +0.120 C 
ATOM     21  C   UNL     1      -4.373   1.435  25.068  0.00  0.00    +0.120 C 
BRANCH   8  23
ATOM     23  C   UNL     1      -2.660   3.155  24.679  0.00  0.00    +0.072 A 
ATOM     25  C   UNL     1      -3.392   4.051  25.458  0.00  0.00    +0.141 A 
ATOM     26  C   UNL     1      -1.379   3.495  24.243  0.00  0.00    +0.027 A 
ATOM     29  C   UNL     1      -2.844   5.287  25.801  0.00  0.00    +0.047 A 
ATOM     30  C   UNL     1      -0.831   4.731  24.586  0.00  0.00    +0.002 A 
ATOM     31  C   UNL     1      -1.563   5.627  25.364  0.00  0.00    +0.004 A 
BRANCH  25   2
ATOM      2  O   UNL     1      -4.645   3.738  25.893  0.00  0.00    -0.493 OA
ATOM     35  C   UNL     1      -5.711   4.582  25.458  0.00  0.00    +0.277 C 
ENDBRANCH  25   2
ENDBRANCH   8  23
ENDBRANCH  16   6
ENDBRANCH  10  16
BRANCH  11  17
ATOM     17  C   UNL     1      -1.121   0.219  24.442  0.00  0.00    +0.123 C 
BRANCH  17   7
ATOM      1  O   UNL     1       0.398  -0.454  22.101  0.00  0.00    -0.270 OA
ATOM      7  N   UNL     1       0.323   0.297  24.291  0.00  0.00    -0.310 N 
ATOM     22  C   UNL     1       0.959  -0.053  23.117  0.00  0.00    +0.244 C 
ATOM     37  H   UNL     1       0.853   0.534  25.123  0.00  0.00    +0.149 HD
BRANCH  22  24
ATOM      3  O   UNL     1       5.484  -1.758  24.080  0.00  0.00    -0.453 OA
ATOM      4  O   UNL     1       6.540   0.235  23.231  0.00  0.00    -0.453 OA
ATOM     24  C   UNL     1       2.440   0.058  23.133  0.00  0.00    +0.040 A 
ATOM     27  C   UNL     1       3.208  -0.994  23.638  0.00  0.00    +0.062 A 
ATOM     28  C   UNL     1       3.055   1.221  22.637  0.00  0.00    +0.017 A 
ATOM     32  C   UNL     1       4.580  -0.846  23.631  0.00  0.00    +0.167 A 
ATOM     33  C   UNL     1       4.447   1.346  22.641  0.00  0.00    +0.050 A 
ATOM     34  C   UNL     1       5.184   0.293  23.145  0.00  0.00    +0.166 A 
ATOM     36  C   UNL     1       6.724  -1.066  23.823  0.00  0.00    +0.466 C 
ENDBRANCH  22  24
ENDBRANCH  17   7
ENDBRANCH  11  17
TORSDOF 7
ENDMDL
MODEL 7
REMARK VINA RESULT:       9.0      1.305      2.017
REMARK  Name = 40777226
REMARK  8 active torsions:
REMARK  status: ('A' for Active; 'I' for Inactive)
REMARK    1  A    between atoms: O_2  and  C_25
REMARK    2  A    between atoms: O_2  and  C_35
REMARK    3  A    between atoms: N_6  and  C_16
REMARK    4  A    between atoms: N_7  and  C_17
REMARK    5  A    between atoms: N_8  and  C_23
REMARK    6  A    between atoms: C_10  and  C_16
REMARK    7  A    between atoms: C_11  and  C_17
REMARK    8  A    between atoms: C_22  and  C_24
REMARK                            x       y       z     vdW  Elec       q    Type
REMARK                         _______ _______ _______ _____ _____    ______ ____
ROOT
ATOM      5  N   UNL     1      -1.854   3.776  25.504  0.00  0.00    -0.298 NA
ATOM      9  C   UNL     1      -3.635   4.751  23.877  0.00  0.00    -0.003 C 
ATOM     10  C   UNL     1      -4.310   4.005  25.051  0.00  0.00    +0.020 C 
ATOM     11  C   UNL     1      -1.557   3.351  24.110  0.00  0.00    +0.074 C 
ATOM     12  C   UNL     1      -2.681   3.791  23.145  0.00  0.00    +0.024 C 
ATOM     13  C   UNL     1      -3.211   3.327  25.901  0.00  0.00    +0.089 C 
ATOM     14  C   UNL     1      -2.772   5.869  24.495  0.00  0.00    +0.019 C 
ATOM     15  C   UNL     1      -1.827   5.258  25.546  0.00  0.00    +0.085 C 
ENDROOT
BRANCH  10  16
ATOM     16  C   UNL     1      -5.370   3.003  24.599  0.00  0.00    +0.089 C 
BRANCH  16   6
ATOM      6  N   UNL     1      -4.847   1.639  24.632  0.00  0.00    -0.299 NA
ATOM      8  N   UNL     1      -2.836  -0.379  24.859  0.00  0.00    -0.325 N 
ATOM     18  C   UNL     1      -4.214   1.361  25.928  0.00  0.00    +0.103 C 
ATOM     19  C   UNL     1      -3.876   1.432  23.549  0.00  0.00    +0.103 C 
ATOM     20  C   UNL     1      -3.713  -0.083  25.997  0.00  0.00    +0.120 C 
ATOM     21  C   UNL     1      -3.364  -0.010  23.539  0.00  0.00    +0.120 C 
BRANCH   8  23
ATOM     23  C   UNL     1      -1.941  -1.450  24.933  0.00  0.00    +0.072 A 
ATOM     25  C   UNL     1      -2.192  -2.635  24.241  0.00  0.00    +0.141 A 
ATOM     26  C   UNL     1      -0.786  -1.327  25.707  0.00  0.00    +0.027 A 
ATOM     29  C   UNL     1      -1.291  -3.696  24.323  0.00  0.00    +0.047 A 
ATOM     30  C   UNL     1       0.115  -2.388  25.789  0.00  0.00    +0.002 A 
ATOM     31  C   UNL     1      -0.137  -3.573  25.097  0.00  0.00    +0.004 A 
BRANCH  25   2
ATOM      2  O   UNL     1      -3.314  -2.776  23.480  0.00  0.00    -0.493 OA
ATOM     35  C   UNL     1      -4.480  -3.277  24.132  0.00  0.00    +0.277 C 
ENDBRANCH  25   2
ENDBRANCH   8  23
ENDBRANCH  16   6
ENDBRANCH  10  16
BRANCH  11  17
ATOM     17  C   UNL     1      -1.272   1.851  24.005  0.00  0.00    +0.123 C 
BRANCH  17   7
ATOM      1  O   UNL     1       0.000  -0.232  22.493  0.00  0.00    -0.270 OA
ATOM      7  N   UNL     1       0.157   1.603  23.899  0.00  0.00    -0.310 N 
ATOM     22  C   UNL     1       0.669   0.569  23.141  0.00  0.00    +0.244 C 
ATOM     37  H   UNL     1       0.760   2.173  24.482  0.00  0.00    +0.149 HD
BRANCH  22  24
ATOM      3  O   UNL     1       4.849  -1.901  24.005  0.00  0.00    -0.453 OA
ATOM      4  O   UNL     1       6.221  -0.069  23.250  0.00  0.00    -0.453 OA
ATOM     24  C   UNL     1       2.148   0.434  23.158  0.00  0.00    +0.040 A 
ATOM     27  C   UNL     1       2.731  -0.753  23.609  0.00  0.00    +0.062 A 
ATOM     28  C   UNL     1       2.948   1.502  22.717  0.00  0.00    +0.017 A 
ATOM     32  C   UNL     1       4.109  -0.832  23.604  0.00  0.00    +0.167 A 
ATOM     33  C   UNL     1       4.341   1.397  22.722  0.00  0.00    +0.050 A 
ATOM     34  C   UNL     1       4.893   0.215  23.172  0.00  0.00    +0.166 A 
ATOM     36  C   UNL     1       6.186  -1.410  23.778  0.00  0.00    +0.466 C 
ENDBRANCH  22  24
ENDBRANCH  17   7
ENDBRANCH  11  17
TORSDOF 7
ENDMDL
MODEL 8
REMARK VINA RESULT:       9.7      2.794      5.638
REMARK  Name = 40777226
REMARK  8 active torsions:
REMARK  status: ('A' for Active; 'I' for Inactive)
REMARK    1  A    between atoms: O_2  and  C_25
REMARK    2  A    between atoms: O_2  and  C_35
REMARK    3  A    between atoms: N_6  and  C_16
REMARK    4  A    between atoms: N_7  and  C_17
REMARK    5  A    between atoms: N_8  and  C_23
REMARK    6  A    between atoms: C_10  and  C_16
REMARK    7  A    between atoms: C_11  and  C_17
REMARK    8  A    between atoms: C_22  and  C_24
REMARK                            x       y       z     vdW  Elec       q    Type
REMARK                         _______ _______ _______ _____ _____    ______ ____
ROOT
ATOM      5  N   UNL     1      -4.584   3.209  25.846  0.00  0.00    -0.298 NA
ATOM      9  C   UNL     1      -5.716   1.450  24.300  0.00  0.00    -0.003 C 
ATOM     10  C   UNL     1      -4.887   0.759  25.407  0.00  0.00    +0.020 C 
ATOM     11  C   UNL     1      -4.270   3.505  24.422  0.00  0.00    +0.074 C 
ATOM     12  C   UNL     1      -4.804   2.392  23.494  0.00  0.00    +0.024 C 
ATOM     13  C   UNL     1      -4.126   1.844  26.202  0.00  0.00    +0.089 C 
ATOM     14  C   UNL     1      -6.766   2.327  25.009  0.00  0.00    +0.019 C 
ATOM     15  C   UNL     1      -6.058   3.258  26.009  0.00  0.00    +0.085 C 
ENDROOT
BRANCH  10  16
ATOM     16  C   UNL     1      -3.942  -0.314  24.872  0.00  0.00    +0.089 C 
BRANCH  16   6
ATOM      6  N   UNL     1      -2.609   0.236  24.633  0.00  0.00    -0.299 NA
ATOM      8  N   UNL     1       0.037   0.285  23.557  0.00  0.00    -0.325 N 
ATOM     18  C   UNL     1      -2.394   0.458  23.197  0.00  0.00    +0.103 C 
ATOM     19  C   UNL     1      -1.577  -0.666  25.158  0.00  0.00    +0.103 C 
ATOM     20  C   UNL     1      -1.023   1.087  22.937  0.00  0.00    +0.120 C 
ATOM     21  C   UNL     1      -0.180  -0.074  24.964  0.00  0.00    +0.120 C 
BRANCH   8  23
ATOM     23  C   UNL     1       1.355   0.410  23.105  0.00  0.00    +0.072 A 
ATOM     25  C   UNL     1       1.794  -0.305  21.991  0.00  0.00    +0.141 A 
ATOM     26  C   UNL     1       2.233   1.259  23.779  0.00  0.00    +0.027 A 
ATOM     29  C   UNL     1       3.111  -0.172  21.551  0.00  0.00    +0.047 A 
ATOM     30  C   UNL     1       3.550   1.393  23.339  0.00  0.00    +0.002 A 
ATOM     31  C   UNL     1       3.989   0.677  22.225  0.00  0.00    +0.004 A 
BRANCH  25   2
ATOM      2  O   UNL     1       0.952  -1.140  21.319  0.00  0.00    -0.493 OA
ATOM     35  C   UNL     1       0.257  -0.595  20.199  0.00  0.00    +0.277 C 
ENDBRANCH  25   2
ENDBRANCH   8  23
ENDBRANCH  16   6
ENDBRANCH  10  16
BRANCH  11  17
ATOM     17  C   UNL     1      -2.779   3.768  24.196  0.00  0.00    +0.123 C 
BRANCH  17   7
ATOM      1  O   UNL     1       0.081   3.735  24.441  0.00  0.00    -0.270 OA
ATOM      7  N   UNL     1      -2.013   3.451  25.391  0.00  0.00    -0.310 N 
ATOM     22  C   UNL     1      -0.632   3.463  25.403  0.00  0.00    +0.244 C 
ATOM     37  H   UNL     1      -2.540   3.130  26.195  0.00  0.00    +0.149 HD
BRANCH  22  24
ATOM      3  O   UNL     1       3.260   2.714  28.337  0.00  0.00    -0.453 OA
ATOM      4  O   UNL     1       1.874   2.088  30.206  0.00  0.00    -0.453 OA
ATOM     24  C   UNL     1       0.000   3.091  26.694  0.00  0.00    +0.040 A 
ATOM     27  C   UNL     1       1.392   3.108  26.814  0.00  0.00    +0.062 A 
ATOM     28  C   UNL     1      -0.808   2.726  27.784  0.00  0.00    +0.017 A 
ATOM     32  C   UNL     1       1.934   2.756  28.034  0.00  0.00    +0.167 A 
ATOM     33  C   UNL     1      -0.235   2.373  29.008  0.00  0.00    +0.050 A 
ATOM     34  C   UNL     1       1.142   2.398  29.102  0.00  0.00    +0.166 A 
ATOM     36  C   UNL     1       3.213   2.290  29.714  0.00  0.00    +0.466 C 
ENDBRANCH  22  24
ENDBRANCH  17   7
ENDBRANCH  11  17
TORSDOF 7
ENDMDL
