MODEL 1
REMARK VINA RESULT:       0.7      0.000      0.000
REMARK  Name = 7049388
REMARK  9 active torsions:
REMARK  status: ('A' for Active; 'I' for Inactive)
REMARK    1  A    between atoms: S_1  and  C_24
REMARK    2  A    between atoms: S_1  and  C_28
REMARK    3  A    between atoms: N_7  and  C_11
REMARK    4  A    between atoms: N_8  and  C_15
REMARK    5  A    between atoms: N_9  and  C_25
REMARK    6  A    between atoms: N_9  and  C_26
REMARK    7  A    between atoms: C_12  and  C_21
REMARK    8  A    between atoms: C_22  and  C_24
REMARK    9  A    between atoms: C_25  and  C_27
REMARK                            x       y       z     vdW  Elec       q    Type
REMARK                         _______ _______ _______ _____ _____    ______ ____
ROOT
ATOM      3  O   UNL     1      -4.013  -9.404  13.818  0.00  0.00    -0.275 OA
ATOM      6  N   UNL     1      -6.193  -9.781  13.138  0.00  0.00    -0.287 N 
ATOM     11  C   UNL     1      -8.272 -10.128  12.040  0.00  0.00    +0.094 C 
ATOM     12  C   UNL     1      -5.871 -10.170  11.773  0.00  0.00    +0.164 C 
ATOM     13  C   UNL     1      -7.156 -10.780  11.218  0.00  0.00    +0.056 C 
ATOM     14  C   UNL     1      -7.626  -9.910  13.405  0.00  0.00    +0.131 C 
ATOM     22  C   UNL     1      -5.214  -9.504  14.079  0.00  0.00    +0.226 C 
ENDROOT
BRANCH  11   7
ATOM      4  O   UNL     1      -8.262  -9.448   9.246  0.00  0.00    -0.253 OA
ATOM      7  N   UNL     1      -8.714  -8.888  11.453  0.00  0.00    -0.295 N 
ATOM      8  N   UNL     1      -9.159  -7.374   9.777  0.00  0.00    -0.297 N 
ATOM     23  C   UNL     1      -8.674  -8.643  10.080  0.00  0.00    +0.300 C 
ATOM     29  H   UNL     1      -9.017  -8.137  12.066  0.00  0.00    +0.151 HD
ATOM     30  H   UNL     1      -9.405  -6.762  10.549  0.00  0.00    +0.151 HD
BRANCH   8  15
ATOM     15  C   UNL     1      -9.232  -6.855   8.428  0.00  0.00    +0.074 C 
ATOM     16  C   UNL     1      -8.044  -5.935   8.127  0.00  0.00    +0.022 C 
ATOM     17  C   UNL     1     -10.565  -6.140   8.185  0.00  0.00    +0.022 C 
ATOM     18  C   UNL     1      -8.138  -4.599   8.864  0.00  0.00    +0.002 C 
ATOM     19  C   UNL     1     -10.654  -4.803   8.921  0.00  0.00    +0.002 C 
ATOM     20  C   UNL     1      -9.467  -3.901   8.597  0.00  0.00    +0.000 C 
ENDBRANCH   8  15
ENDBRANCH  11   7
BRANCH  12  21
ATOM      2  O   UNL     1      -6.183  -7.943  11.053  0.00  0.00    -0.274 OA
ATOM      9  N   UNL     1      -4.280  -9.030  10.276  0.00  0.00    -0.294 N 
ATOM     21  C   UNL     1      -5.467  -8.947  11.006  0.00  0.00    +0.236 C 
ATOM     26  C   UNL     1      -3.772  -7.915   9.487  0.00  0.00    +0.132 C 
BRANCH   9  25
ATOM     25  C   UNL     1      -3.462 -10.240  10.248  0.00  0.00    +0.202 C 
BRANCH  25  27
ATOM      5  O   UNL     1      -1.269  -9.254  10.533  0.00  0.00    -0.274 OA
ATOM     10  N   UNL     1      -2.046 -10.714  12.129  0.00  0.00    -0.328 N 
ATOM     27  C   UNL     1      -2.155  -9.987  10.963  0.00  0.00    +0.228 C 
ATOM     31  H   UNL     1      -1.214 -10.654  12.705  0.00  0.00    +0.145 HD
ATOM     32  H   UNL     1      -2.787 -11.326  12.458  0.00  0.00    +0.145 HD
ENDBRANCH  25  27
ENDBRANCH   9  25
ENDBRANCH  12  21
BRANCH  22  24
ATOM     24  C   UNL     1      -5.704  -9.311  15.492  0.00  0.00    +0.164 C 
BRANCH  24   1
ATOM      1  S   UNL     1      -5.102 -10.692  16.473  0.00  0.00    -0.155 S 
ATOM     28  C   UNL     1      -6.330 -10.646  17.803  0.00  0.00    +0.085 C 
ENDBRANCH  24   1
ENDBRANCH  22  24
TORSDOF 7
ENDMDL
MODEL 2
REMARK VINA RESULT:       0.9     15.685     18.073
REMARK  Name = 7049388
REMARK  9 active torsions:
REMARK  status: ('A' for Active; 'I' for Inactive)
REMARK    1  A    between atoms: S_1  and  C_24
REMARK    2  A    between atoms: S_1  and  C_28
REMARK    3  A    between atoms: N_7  and  C_11
REMARK    4  A    between atoms: N_8  and  C_15
REMARK    5  A    between atoms: N_9  and  C_25
REMARK    6  A    between atoms: N_9  and  C_26
REMARK    7  A    between atoms: C_12  and  C_21
REMARK    8  A    between atoms: C_22  and  C_24
REMARK    9  A    between atoms: C_25  and  C_27
REMARK                            x       y       z     vdW  Elec       q    Type
REMARK                         _______ _______ _______ _____ _____    ______ ____
ROOT
ATOM      3  O   UNL     1      -4.721  -0.334  24.819  0.00  0.00    -0.275 OA
ATOM      6  N   UNL     1      -2.623   0.317  25.546  0.00  0.00    -0.287 N 
ATOM     11  C   UNL     1      -0.556   1.356  26.090  0.00  0.00    +0.094 C 
ATOM     12  C   UNL     1      -2.837   1.749  25.397  0.00  0.00    +0.164 C 
ATOM     13  C   UNL     1      -1.671   2.405  26.132  0.00  0.00    +0.056 C 
ATOM     14  C   UNL     1      -1.313   0.032  26.134  0.00  0.00    +0.131 C 
ATOM     22  C   UNL     1      -3.628  -0.610  25.316  0.00  0.00    +0.226 C 
ENDROOT
BRANCH  11   7
ATOM      4  O   UNL     1       0.756  -0.778  24.679  0.00  0.00    -0.253 OA
ATOM      7  N   UNL     1       0.247   1.475  24.899  0.00  0.00    -0.295 N 
ATOM      8  N   UNL     1       1.564   0.769  23.149  0.00  0.00    -0.297 N 
ATOM     23  C   UNL     1       0.848   0.381  24.278  0.00  0.00    +0.300 C 
ATOM     29  H   UNL     1       0.431   2.402  24.525  0.00  0.00    +0.151 HD
ATOM     30  H   UNL     1       1.636   1.761  22.949  0.00  0.00    +0.151 HD
BRANCH   8  15
ATOM     15  C   UNL     1       2.289  -0.163  22.312  0.00  0.00    +0.074 C 
ATOM     16  C   UNL     1       2.929  -1.273  23.151  0.00  0.00    +0.022 C 
ATOM     17  C   UNL     1       3.334   0.562  21.459  0.00  0.00    +0.022 C 
ATOM     18  C   UNL     1       4.117  -0.773  23.975  0.00  0.00    +0.002 C 
ATOM     19  C   UNL     1       4.521   1.059  22.284  0.00  0.00    +0.002 C 
ATOM     20  C   UNL     1       5.149  -0.066  23.102  0.00  0.00    +0.000 C 
ENDBRANCH   8  15
ENDBRANCH  11   7
BRANCH  12  21
ATOM      2  O   UNL     1      -2.071   1.471  23.181  0.00  0.00    -0.274 OA
ATOM      9  N   UNL     1      -3.695   3.099  23.522  0.00  0.00    -0.294 N 
ATOM     21  C   UNL     1      -2.827   2.087  23.936  0.00  0.00    +0.236 C 
ATOM     26  C   UNL     1      -3.786   3.527  22.132  0.00  0.00    +0.132 C 
BRANCH   9  25
ATOM     25  C   UNL     1      -4.574   3.803  24.452  0.00  0.00    +0.202 C 
BRANCH  25  27
ATOM      5  O   UNL     1      -6.175   1.987  24.370  0.00  0.00    -0.274 OA
ATOM     10  N   UNL     1      -5.803   3.051  26.374  0.00  0.00    -0.328 N 
ATOM     27  C   UNL     1      -5.583   2.837  25.030  0.00  0.00    +0.228 C 
ATOM     31  H   UNL     1      -6.467   2.485  26.890  0.00  0.00    +0.145 HD
ATOM     32  H   UNL     1      -5.312   3.770  26.896  0.00  0.00    +0.145 HD
ENDBRANCH  25  27
ENDBRANCH   9  25
ENDBRANCH  12  21
BRANCH  22  24
ATOM     24  C   UNL     1      -3.305  -2.031  25.705  0.00  0.00    +0.164 C 
BRANCH  24   1
ATOM      1  S   UNL     1      -3.325  -3.025  24.207  0.00  0.00    -0.155 S 
ATOM     28  C   UNL     1      -1.571  -2.912  23.773  0.00  0.00    +0.085 C 
ENDBRANCH  24   1
ENDBRANCH  22  24
TORSDOF 7
ENDMDL
MODEL 3
REMARK VINA RESULT:       2.3     15.353     18.060
REMARK  Name = 7049388
REMARK  9 active torsions:
REMARK  status: ('A' for Active; 'I' for Inactive)
REMARK    1  A    between atoms: S_1  and  C_24
REMARK    2  A    between atoms: S_1  and  C_28
REMARK    3  A    between atoms: N_7  and  C_11
REMARK    4  A    between atoms: N_8  and  C_15
REMARK    5  A    between atoms: N_9  and  C_25
REMARK    6  A    between atoms: N_9  and  C_26
REMARK    7  A    between atoms: C_12  and  C_21
REMARK    8  A    between atoms: C_22  and  C_24
REMARK    9  A    between atoms: C_25  and  C_27
REMARK                            x       y       z     vdW  Elec       q    Type
REMARK                         _______ _______ _______ _____ _____    ______ ____
ROOT
ATOM      3  O   UNL     1      -3.968   2.876  25.830  0.00  0.00    -0.275 OA
ATOM      6  N   UNL     1      -2.686   2.080  24.075  0.00  0.00    -0.287 N 
ATOM     11  C   UNL     1      -1.370   0.890  22.494  0.00  0.00    +0.094 C 
ATOM     12  C   UNL     1      -2.927   0.666  24.328  0.00  0.00    +0.164 C 
ATOM     13  C   UNL     1      -2.426  -0.053  23.078  0.00  0.00    +0.056 C 
ATOM     14  C   UNL     1      -1.889   2.276  22.863  0.00  0.00    +0.131 C 
ATOM     22  C   UNL     1      -3.302   3.079  24.812  0.00  0.00    +0.226 C 
ENDROOT
BRANCH  11   7
ATOM      4  O   UNL     1       0.840  -0.400  21.183  0.00  0.00    -0.253 OA
ATOM      7  N   UNL     1      -0.064   0.642  23.049  0.00  0.00    -0.295 N 
ATOM      8  N   UNL     1       2.112  -0.108  23.103  0.00  0.00    -0.297 N 
ATOM     23  C   UNL     1       0.954   0.006  22.338  0.00  0.00    +0.300 C 
ATOM     29  H   UNL     1       0.109   0.888  24.020  0.00  0.00    +0.151 HD
ATOM     30  H   UNL     1       2.074   0.196  24.070  0.00  0.00    +0.151 HD
BRANCH   8  15
ATOM     15  C   UNL     1       3.325  -0.726  22.614  0.00  0.00    +0.074 C 
ATOM     16  C   UNL     1       4.098  -1.398  23.754  0.00  0.00    +0.022 C 
ATOM     17  C   UNL     1       4.200   0.289  21.872  0.00  0.00    +0.022 C 
ATOM     18  C   UNL     1       4.750  -0.384  24.695  0.00  0.00    +0.002 C 
ATOM     19  C   UNL     1       4.853   1.299  22.815  0.00  0.00    +0.002 C 
ATOM     20  C   UNL     1       5.625   0.607  23.935  0.00  0.00    +0.000 C 
ENDBRANCH   8  15
ENDBRANCH  11   7
BRANCH  12  21
ATOM      2  O   UNL     1      -1.190   0.937  25.903  0.00  0.00    -0.274 OA
ATOM      9  N   UNL     1      -2.593  -0.893  26.206  0.00  0.00    -0.294 N 
ATOM     21  C   UNL     1      -2.155   0.257  25.545  0.00  0.00    +0.236 C 
ATOM     26  C   UNL     1      -1.933  -1.402  27.402  0.00  0.00    +0.132 C 
BRANCH   9  25
ATOM     25  C   UNL     1      -3.742  -1.668  25.747  0.00  0.00    +0.202 C 
BRANCH  25  27
ATOM      5  O   UNL     1      -2.167  -3.072  24.559  0.00  0.00    -0.274 OA
ATOM     10  N   UNL     1      -4.326  -2.921  23.783  0.00  0.00    -0.328 N 
ATOM     27  C   UNL     1      -3.308  -2.631  24.667  0.00  0.00    +0.228 C 
ATOM     31  H   UNL     1      -4.173  -3.544  22.998  0.00  0.00    +0.145 HD
ATOM     32  H   UNL     1      -5.258  -2.533  23.884  0.00  0.00    +0.145 HD
ENDBRANCH  25  27
ENDBRANCH   9  25
ENDBRANCH  12  21
BRANCH  22  24
ATOM     24  C   UNL     1      -3.103   4.483  24.301  0.00  0.00    +0.164 C 
BRANCH  24   1
ATOM      1  S   UNL     1      -1.906   5.291  25.372  0.00  0.00    -0.155 S 
ATOM     28  C   UNL     1      -0.389   4.602  24.665  0.00  0.00    +0.085 C 
ENDBRANCH  24   1
ENDBRANCH  22  24
TORSDOF 7
ENDMDL
MODEL 4
REMARK VINA RESULT:       2.3     15.473     17.925
REMARK  Name = 7049388
REMARK  9 active torsions:
REMARK  status: ('A' for Active; 'I' for Inactive)
REMARK    1  A    between atoms: S_1  and  C_24
REMARK    2  A    between atoms: S_1  and  C_28
REMARK    3  A    between atoms: N_7  and  C_11
REMARK    4  A    between atoms: N_8  and  C_15
REMARK    5  A    between atoms: N_9  and  C_25
REMARK    6  A    between atoms: N_9  and  C_26
REMARK    7  A    between atoms: C_12  and  C_21
REMARK    8  A    between atoms: C_22  and  C_24
REMARK    9  A    between atoms: C_25  and  C_27
REMARK                            x       y       z     vdW  Elec       q    Type
REMARK                         _______ _______ _______ _____ _____    ______ ____
ROOT
ATOM      3  O   UNL     1       0.271  -1.235  22.532  0.00  0.00    -0.275 OA
ATOM      6  N   UNL     1       0.569   0.585  23.930  0.00  0.00    -0.287 N 
ATOM     11  C   UNL     1       0.465   2.382  25.481  0.00  0.00    +0.094 C 
ATOM     12  C   UNL     1      -0.543   0.288  24.821  0.00  0.00    +0.164 C 
ATOM     13  C   UNL     1      -0.341   1.200  26.028  0.00  0.00    +0.056 C 
ATOM     14  C   UNL     1       1.324   1.751  24.390  0.00  0.00    +0.131 C 
ATOM     22  C   UNL     1       0.933  -0.260  22.893  0.00  0.00    +0.226 C 
ENDROOT
BRANCH  11   7
ATOM      4  O   UNL     1      -2.165   3.075  26.414  0.00  0.00    -0.253 OA
ATOM      7  N   UNL     1      -0.391   3.417  24.957  0.00  0.00    -0.295 N 
ATOM      8  N   UNL     1      -2.274   4.731  24.790  0.00  0.00    -0.297 N 
ATOM     23  C   UNL     1      -1.659   3.686  25.474  0.00  0.00    +0.300 C 
ATOM     29  H   UNL     1      -0.085   3.937  24.140  0.00  0.00    +0.151 HD
ATOM     30  H   UNL     1      -1.796   5.116  23.982  0.00  0.00    +0.151 HD
BRANCH   8  15
ATOM     15  C   UNL     1      -3.596   5.220  25.116  0.00  0.00    +0.074 C 
ATOM     16  C   UNL     1      -4.099   4.614  26.430  0.00  0.00    +0.022 C 
ATOM     17  C   UNL     1      -4.578   4.956  23.970  0.00  0.00    +0.022 C 
ATOM     18  C   UNL     1      -4.458   3.134  26.292  0.00  0.00    +0.002 C 
ATOM     19  C   UNL     1      -4.937   3.476  23.837  0.00  0.00    +0.002 C 
ATOM     20  C   UNL     1      -5.445   2.898  25.154  0.00  0.00    +0.000 C 
ENDBRANCH   8  15
ENDBRANCH  11   7
BRANCH  12  21
ATOM      2  O   UNL     1      -1.849   1.501  23.273  0.00  0.00    -0.274 OA
ATOM      9  N   UNL     1      -2.932  -0.189  24.449  0.00  0.00    -0.294 N 
ATOM     21  C   UNL     1      -1.826   0.593  24.109  0.00  0.00    +0.236 C 
ATOM     26  C   UNL     1      -4.239   0.002  23.833  0.00  0.00    +0.132 C 
BRANCH   9  25
ATOM     25  C   UNL     1      -2.859  -1.254  25.445  0.00  0.00    +0.202 C 
BRANCH  25  27
ATOM      5  O   UNL     1      -3.823  -3.338  24.675  0.00  0.00    -0.274 OA
ATOM     10  N   UNL     1      -1.598  -2.924  24.268  0.00  0.00    -0.328 N 
ATOM     27  C   UNL     1      -2.845  -2.598  24.755  0.00  0.00    +0.228 C 
ATOM     31  H   UNL     1      -1.438  -3.806  23.793  0.00  0.00    +0.145 HD
ATOM     32  H   UNL     1      -0.801  -2.302  24.359  0.00  0.00    +0.145 HD
ENDBRANCH  25  27
ENDBRANCH   9  25
ENDBRANCH  12  21
BRANCH  22  24
ATOM     24  C   UNL     1       2.220   0.088  22.190  0.00  0.00    +0.164 C 
BRANCH  24   1
ATOM      1  S   UNL     1       3.568  -0.666  23.111  0.00  0.00    -0.155 S 
ATOM     28  C   UNL     1       4.729   0.723  23.095  0.00  0.00    +0.085 C 
ENDBRANCH  24   1
ENDBRANCH  22  24
TORSDOF 7
ENDMDL
MODEL 5
REMARK VINA RESULT:       2.6     16.194     19.438
REMARK  Name = 7049388
REMARK  9 active torsions:
REMARK  status: ('A' for Active; 'I' for Inactive)
REMARK    1  A    between atoms: S_1  and  C_24
REMARK    2  A    between atoms: S_1  and  C_28
REMARK    3  A    between atoms: N_7  and  C_11
REMARK    4  A    between atoms: N_8  and  C_15
REMARK    5  A    between atoms: N_9  and  C_25
REMARK    6  A    between atoms: N_9  and  C_26
REMARK    7  A    between atoms: C_12  and  C_21
REMARK    8  A    between atoms: C_22  and  C_24
REMARK    9  A    between atoms: C_25  and  C_27
REMARK                            x       y       z     vdW  Elec       q    Type
REMARK                         _______ _______ _______ _____ _____    ______ ____
ROOT
ATOM      3  O   UNL     1      -4.709   1.422  24.307  0.00  0.00    -0.275 OA
ATOM      6  N   UNL     1      -2.448   1.769  23.950  0.00  0.00    -0.287 N 
ATOM     11  C   UNL     1      -0.085   1.715  23.712  0.00  0.00    +0.094 C 
ATOM     12  C   UNL     1      -2.082   0.363  23.858  0.00  0.00    +0.164 C 
ATOM     13  C   UNL     1      -0.662   0.357  23.299  0.00  0.00    +0.056 C 
ATOM     14  C   UNL     1      -1.299   2.637  23.691  0.00  0.00    +0.131 C 
ATOM     22  C   UNL     1      -3.764   2.184  24.089  0.00  0.00    +0.226 C 
ENDROOT
BRANCH  11   7
ATOM      4  O   UNL     1      -0.106   3.786  25.706  0.00  0.00    -0.253 OA
ATOM      7  N   UNL     1       0.526   1.662  25.017  0.00  0.00    -0.295 N 
ATOM      8  N   UNL     1       1.133   2.411  27.107  0.00  0.00    -0.297 N 
ATOM     23  C   UNL     1       0.465   2.719  25.926  0.00  0.00    +0.300 C 
ATOM     29  H   UNL     1       1.072   0.843  25.268  0.00  0.00    +0.151 HD
ATOM     30  H   UNL     1       1.633   1.529  27.154  0.00  0.00    +0.151 HD
BRANCH   8  15
ATOM     15  C   UNL     1       1.228   3.325  28.224  0.00  0.00    +0.074 C 
ATOM     16  C   UNL     1       2.691   3.653  28.543  0.00  0.00    +0.022 C 
ATOM     17  C   UNL     1       0.502   2.771  29.454  0.00  0.00    +0.022 C 
ATOM     18  C   UNL     1       3.428   2.475  29.181  0.00  0.00    +0.002 C 
ATOM     19  C   UNL     1       1.243   1.595  30.090  0.00  0.00    +0.002 C 
ATOM     20  C   UNL     1       2.693   1.949  30.409  0.00  0.00    +0.000 C 
ENDBRANCH   8  15
ENDBRANCH  11   7
BRANCH  12  21
ATOM      2  O   UNL     1      -1.292   0.091  26.066  0.00  0.00    -0.274 OA
ATOM      9  N   UNL     1      -3.163  -1.154  25.471  0.00  0.00    -0.294 N 
ATOM     21  C   UNL     1      -2.136  -0.240  25.229  0.00  0.00    +0.236 C 
ATOM     26  C   UNL     1      -3.331  -1.814  26.759  0.00  0.00    +0.132 C 
BRANCH   9  25
ATOM     25  C   UNL     1      -4.143  -1.517  24.450  0.00  0.00    +0.202 C 
BRANCH  25  27
ATOM      5  O   UNL     1      -4.673  -3.680  23.498  0.00  0.00    -0.274 OA
ATOM     10  N   UNL     1      -2.477  -3.174  23.955  0.00  0.00    -0.328 N 
ATOM     27  C   UNL     1      -3.824  -2.889  23.902  0.00  0.00    +0.228 C 
ATOM     31  H   UNL     1      -2.120  -4.067  23.633  0.00  0.00    +0.145 HD
ATOM     32  H   UNL     1      -1.795  -2.510  24.307  0.00  0.00    +0.145 HD
ENDBRANCH  25  27
ENDBRANCH   9  25
ENDBRANCH  12  21
BRANCH  22  24
ATOM     24  C   UNL     1      -3.995   3.669  23.971  0.00  0.00    +0.164 C 
BRANCH  24   1
ATOM      1  S   UNL     1      -4.759   4.226  25.500  0.00  0.00    -0.155 S 
ATOM     28  C   UNL     1      -3.318   4.111  26.591  0.00  0.00    +0.085 C 
ENDBRANCH  24   1
ENDBRANCH  22  24
TORSDOF 7
ENDMDL
MODEL 6
REMARK VINA RESULT:       3.3     15.578     17.711
REMARK  Name = 7049388
REMARK  9 active torsions:
REMARK  status: ('A' for Active; 'I' for Inactive)
REMARK    1  A    between atoms: S_1  and  C_24
REMARK    2  A    between atoms: S_1  and  C_28
REMARK    3  A    between atoms: N_7  and  C_11
REMARK    4  A    between atoms: N_8  and  C_15
REMARK    5  A    between atoms: N_9  and  C_25
REMARK    6  A    between atoms: N_9  and  C_26
REMARK    7  A    between atoms: C_12  and  C_21
REMARK    8  A    between atoms: C_22  and  C_24
REMARK    9  A    between atoms: C_25  and  C_27
REMARK                            x       y       z     vdW  Elec       q    Type
REMARK                         _______ _______ _______ _____ _____    ______ ____
ROOT
ATOM      3  O   UNL     1      -3.461   3.460  22.650  0.00  0.00    -0.275 OA
ATOM      6  N   UNL     1      -2.087   3.085  24.474  0.00  0.00    -0.287 N 
ATOM     11  C   UNL     1      -0.411   2.515  26.060  0.00  0.00    +0.094 C 
ATOM     12  C   UNL     1      -0.863   2.875  23.714  0.00  0.00    +0.164 C 
ATOM     13  C   UNL     1       0.261   2.925  24.746  0.00  0.00    +0.056 C 
ATOM     14  C   UNL     1      -1.831   3.052  25.915  0.00  0.00    +0.131 C 
ATOM     22  C   UNL     1      -3.282   3.443  23.870  0.00  0.00    +0.226 C 
ENDROOT
BRANCH  11   7
ATOM      4  O   UNL     1      -2.636   0.717  25.767  0.00  0.00    -0.253 OA
ATOM      7  N   UNL     1      -0.396   1.086  26.246  0.00  0.00    -0.295 N 
ATOM      8  N   UNL     1      -1.242  -1.054  26.318  0.00  0.00    -0.297 N 
ATOM     23  C   UNL     1      -1.528   0.287  26.081  0.00  0.00    +0.300 C 
ATOM     29  H   UNL     1       0.462   0.644  26.564  0.00  0.00    +0.151 HD
ATOM     30  H   UNL     1      -0.310  -1.291  26.643  0.00  0.00    +0.151 HD
BRANCH   8  15
ATOM     15  C   UNL     1      -2.232  -2.104  26.219  0.00  0.00    +0.074 C 
ATOM     16  C   UNL     1      -2.024  -2.939  24.951  0.00  0.00    +0.022 C 
ATOM     17  C   UNL     1      -3.651  -1.530  26.280  0.00  0.00    +0.022 C 
ATOM     18  C   UNL     1      -2.406  -2.178  23.681  0.00  0.00    +0.002 C 
ATOM     19  C   UNL     1      -4.031  -0.773  25.008  0.00  0.00    +0.002 C 
ATOM     20  C   UNL     1      -3.826  -1.627  23.760  0.00  0.00    +0.000 C 
ENDBRANCH   8  15
ENDBRANCH  11   7
BRANCH  12  21
ATOM      2  O   UNL     1      -2.016   1.148  22.591  0.00  0.00    -0.274 OA
ATOM      9  N   UNL     1       0.251   0.805  22.975  0.00  0.00    -0.294 N 
ATOM     21  C   UNL     1      -0.936   1.537  23.044  0.00  0.00    +0.236 C 
ATOM     26  C   UNL     1       0.321  -0.510  22.351  0.00  0.00    +0.132 C 
BRANCH   9  25
ATOM     25  C   UNL     1       1.509   1.305  23.524  0.00  0.00    +0.202 C 
BRANCH  25  27
ATOM      5  O   UNL     1       2.559   0.104  21.702  0.00  0.00    -0.274 OA
ATOM     10  N   UNL     1       3.863   0.838  23.448  0.00  0.00    -0.328 N 
ATOM     27  C   UNL     1       2.670   0.697  22.773  0.00  0.00    +0.228 C 
ATOM     31  H   UNL     1       4.726   0.464  23.067  0.00  0.00    +0.145 HD
ATOM     32  H   UNL     1       3.928   1.320  24.339  0.00  0.00    +0.145 HD
ENDBRANCH  25  27
ENDBRANCH   9  25
ENDBRANCH  12  21
BRANCH  22  24
ATOM     24  C   UNL     1      -4.401   3.814  24.809  0.00  0.00    +0.164 C 
BRANCH  24   1
ATOM      1  S   UNL     1      -5.629   2.503  24.742  0.00  0.00    -0.155 S 
ATOM     28  C   UNL     1      -5.909   2.291  26.518  0.00  0.00    +0.085 C 
ENDBRANCH  24   1
ENDBRANCH  22  24
TORSDOF 7
ENDMDL
