MODEL 1
REMARK VINA RESULT:       1.1      0.000      0.000
REMARK  Name = 7134287
REMARK  12 active torsions:
REMARK  status: ('A' for Active; 'I' for Inactive)
REMARK    1  A    between atoms: O_4  and  C_23
REMARK    2  A    between atoms: O_4  and  C_29
REMARK    3  A    between atoms: O_7  and  C_35
REMARK    4  A    between atoms: N_10  and  C_15
REMARK    5  A    between atoms: N_11  and  C_22
REMARK    6  A    between atoms: C_16  and  C_20
REMARK    7  A    between atoms: C_21  and  C_23
REMARK    8  A    between atoms: C_22  and  C_25
REMARK    9  A    between atoms: C_22  and  C_26
REMARK   10  A    between atoms: C_24  and  C_27
REMARK   11  A    between atoms: C_25  and  C_28
REMARK   12  A    between atoms: C_29  and  C_35
REMARK                            x       y       z     vdW  Elec       q    Type
REMARK                         _______ _______ _______ _____ _____    ______ ____
ROOT
ATOM      3  O   UNL     1      -3.036   4.441  26.684  0.00  0.00    -0.273 OA
ATOM      9  N   UNL     1      -1.851   3.249  25.073  0.00  0.00    -0.288 N 
ATOM     15  C   UNL     1       0.261   1.333  24.452  0.00  0.00    +0.077 C 
ATOM     16  C   UNL     1      -1.487   3.026  23.664  0.00  0.00    +0.164 C 
ATOM     17  C   UNL     1      -0.069   2.476  23.489  0.00  0.00    +0.054 C 
ATOM     18  C   UNL     1      -0.059   1.741  25.888  0.00  0.00    +0.041 C 
ATOM     19  C   UNL     1      -1.511   2.179  26.017  0.00  0.00    +0.110 C 
ATOM     21  C   UNL     1      -2.620   4.327  25.528  0.00  0.00    +0.242 C 
ENDROOT
BRANCH  16  20
ATOM      2  O   UNL     1      -2.691   2.003  21.873  0.00  0.00    -0.274 OA
ATOM     11  N   UNL     1      -3.242   1.445  24.064  0.00  0.00    -0.302 N 
ATOM     20  C   UNL     1      -2.523   2.108  23.085  0.00  0.00    +0.234 C 
ATOM     38  H   UNL     1      -3.070   1.671  25.040  0.00  0.00    +0.150 HD
BRANCH  11  22
ATOM     22  C   UNL     1      -4.313   0.520  23.770  0.00  0.00    +0.163 C 
BRANCH  22  26
ATOM      6  O   UNL     1      -5.113   0.559  26.065  0.00  0.00    -0.274 OA
ATOM     12  N   UNL     1      -6.597   1.030  24.376  0.00  0.00    -0.328 N 
ATOM     26  C   UNL     1      -5.356   0.681  24.867  0.00  0.00    +0.231 C 
ATOM     39  H   UNL     1      -7.379   1.184  25.003  0.00  0.00    +0.145 HD
ATOM     40  H   UNL     1      -6.783   1.131  23.384  0.00  0.00    +0.145 HD
ENDBRANCH  22  26
BRANCH  22  25
ATOM     25  C   UNL     1      -3.826  -0.933  23.704  0.00  0.00    +0.074 C 
BRANCH  25  28
ATOM      1  S   UNL     1      -1.192  -1.796  23.983  0.00  0.00    -0.102 S 
ATOM     28  C   UNL     1      -2.658  -1.190  24.627  0.00  0.00    -0.008 A 
ATOM     31  C   UNL     1      -2.585  -1.002  25.990  0.00  0.00    +0.011 A 
ATOM     32  C   UNL     1      -1.309  -1.361  26.511  0.00  0.00    +0.008 A 
ATOM     33  C   UNL     1      -0.455  -1.809  25.528  0.00  0.00    +0.045 A 
ENDBRANCH  25  28
ENDBRANCH  22  25
ENDBRANCH  11  22
ENDBRANCH  16  20
BRANCH  15  10
ATOM      5  O   UNL     1       1.429  -0.226  22.341  0.00  0.00    -0.268 OA
ATOM     10  N   UNL     1       1.646   0.944  24.331  0.00  0.00    -0.307 N 
ATOM     24  C   UNL     1       2.119   0.186  23.270  0.00  0.00    +0.264 C 
ATOM     37  H   UNL     1       2.285   1.194  25.081  0.00  0.00    +0.149 HD
BRANCH  24  27
ATOM     13  N   UNL     1       3.888  -1.371  23.782  0.00  0.00    -0.247 NA
ATOM     14  N   UNL     1       5.836   0.443  22.900  0.00  0.00    -0.259 NA
ATOM     27  C   UNL     1       3.565  -0.152  23.306  0.00  0.00    +0.143 A 
ATOM     30  C   UNL     1       4.521   0.739  22.872  0.00  0.00    +0.143 A 
ATOM     34  C   UNL     1       5.203  -1.666  23.809  0.00  0.00    +0.131 A 
ATOM     36  C   UNL     1       6.159  -0.775  23.376  0.00  0.00    +0.130 A 
ENDBRANCH  24  27
ENDBRANCH  15  10
BRANCH  21  23
ATOM     23  C   UNL     1      -2.934   5.410  24.525  0.00  0.00    +0.256 C 
BRANCH  23   4
ATOM      4  O   UNL     1      -4.252   5.181  24.089  0.00  0.00    -0.359 OA
BRANCH   4  29
ATOM     29  C   UNL     1      -4.790   3.971  24.619  0.00  0.00    +0.280 C 
BRANCH  29  35
ATOM      8  O   UNL     1      -6.529   5.327  25.640  0.00  0.00    -0.248 OA
ATOM     35  C   UNL     1      -5.887   4.288  25.597  0.00  0.00    +0.331 C 
BRANCH  35   7
ATOM      7  O   UNL     1      -6.075   3.245  26.445  0.00  0.00    -0.479 OA
ATOM     41  H   UNL     1      -5.426   2.526  26.292  0.00  0.00    +0.295 HD
ENDBRANCH  35   7
ENDBRANCH  29  35
ENDBRANCH   4  29
ENDBRANCH  23   4
ENDBRANCH  21  23
TORSDOF 12
ENDMDL
MODEL 2
REMARK VINA RESULT:       2.5      2.193      4.903
REMARK  Name = 7134287
REMARK  12 active torsions:
REMARK  status: ('A' for Active; 'I' for Inactive)
REMARK    1  A    between atoms: O_4  and  C_23
REMARK    2  A    between atoms: O_4  and  C_29
REMARK    3  A    between atoms: O_7  and  C_35
REMARK    4  A    between atoms: N_10  and  C_15
REMARK    5  A    between atoms: N_11  and  C_22
REMARK    6  A    between atoms: C_16  and  C_20
REMARK    7  A    between atoms: C_21  and  C_23
REMARK    8  A    between atoms: C_22  and  C_25
REMARK    9  A    between atoms: C_22  and  C_26
REMARK   10  A    between atoms: C_24  and  C_27
REMARK   11  A    between atoms: C_25  and  C_28
REMARK   12  A    between atoms: C_29  and  C_35
REMARK                            x       y       z     vdW  Elec       q    Type
REMARK                         _______ _______ _______ _____ _____    ______ ____
ROOT
ATOM      3  O   UNL     1      -4.235  -0.324  23.172  0.00  0.00    -0.273 OA
ATOM      9  N   UNL     1      -2.365   0.575  24.227  0.00  0.00    -0.288 N 
ATOM     15  C   UNL     1       0.479   1.227  24.117  0.00  0.00    +0.077 C 
ATOM     16  C   UNL     1      -1.700   1.060  25.448  0.00  0.00    +0.164 C 
ATOM     17  C   UNL     1      -0.186   0.833  25.438  0.00  0.00    +0.054 C 
ATOM     18  C   UNL     1      -0.242   0.566  22.944  0.00  0.00    +0.041 C 
ATOM     19  C   UNL     1      -1.724   0.915  22.951  0.00  0.00    +0.110 C 
ATOM     21  C   UNL     1      -3.622  -0.041  24.204  0.00  0.00    +0.242 C 
ENDROOT
BRANCH  16  20
ATOM      2  O   UNL     1      -1.928   3.105  26.659  0.00  0.00    -0.274 OA
ATOM     11  N   UNL     1      -2.531   3.053  24.412  0.00  0.00    -0.302 N 
ATOM     20  C   UNL     1      -2.052   2.511  25.591  0.00  0.00    +0.234 C 
ATOM     38  H   UNL     1      -2.666   2.445  23.609  0.00  0.00    +0.150 HD
BRANCH  11  22
ATOM     22  C   UNL     1      -2.961   4.428  24.290  0.00  0.00    +0.163 C 
BRANCH  22  26
ATOM      6  O   UNL     1      -1.900   6.352  25.328  0.00  0.00    -0.274 OA
ATOM     12  N   UNL     1      -0.568   4.762  24.343  0.00  0.00    -0.328 N 
ATOM     26  C   UNL     1      -1.785   5.301  24.702  0.00  0.00    +0.231 C 
ATOM     39  H   UNL     1       0.299   5.236  24.571  0.00  0.00    +0.145 HD
ATOM     40  H   UNL     1      -0.486   3.891  23.829  0.00  0.00    +0.145 HD
ENDBRANCH  22  26
BRANCH  22  25
ATOM     25  C   UNL     1      -4.186   4.734  25.160  0.00  0.00    +0.074 C 
BRANCH  25  28
ATOM      1  S   UNL     1      -5.559   2.968  26.821  0.00  0.00    -0.102 S 
ATOM     28  C   UNL     1      -5.121   3.553  25.272  0.00  0.00    -0.008 A 
ATOM     31  C   UNL     1      -5.711   2.827  24.260  0.00  0.00    +0.011 A 
ATOM     32  C   UNL     1      -6.533   1.778  24.763  0.00  0.00    +0.008 A 
ATOM     33  C   UNL     1      -6.541   1.742  26.140  0.00  0.00    +0.045 A 
ENDBRANCH  25  28
ENDBRANCH  22  25
ENDBRANCH  11  22
ENDBRANCH  16  20
BRANCH  15  10
ATOM      5  O   UNL     1       1.863  -0.301  22.119  0.00  0.00    -0.268 OA
ATOM     10  N   UNL     1       1.877   0.871  24.119  0.00  0.00    -0.307 N 
ATOM     24  C   UNL     1       2.458   0.126  23.104  0.00  0.00    +0.264 C 
ATOM     37  H   UNL     1       2.442   1.134  24.922  0.00  0.00    +0.149 HD
BRANCH  24  27
ATOM     13  N   UNL     1       4.214  -1.408  23.723  0.00  0.00    -0.247 NA
ATOM     14  N   UNL     1       6.185   0.488  23.107  0.00  0.00    -0.259 NA
ATOM     27  C   UNL     1       3.904  -0.179  23.266  0.00  0.00    +0.143 A 
ATOM     30  C   UNL     1       4.872   0.753  22.963  0.00  0.00    +0.143 A 
ATOM     34  C   UNL     1       5.527  -1.673  23.866  0.00  0.00    +0.131 A 
ATOM     36  C   UNL     1       6.495  -0.741  23.563  0.00  0.00    +0.130 A 
ENDBRANCH  24  27
ENDBRANCH  15  10
BRANCH  21  23
ATOM     23  C   UNL     1      -4.236  -0.382  25.539  0.00  0.00    +0.256 C 
BRANCH  23   4
ATOM      4  O   UNL     1      -3.405  -1.355  26.125  0.00  0.00    -0.359 OA
BRANCH   4  29
ATOM     29  C   UNL     1      -3.314  -2.534  25.327  0.00  0.00    +0.280 C 
BRANCH  29  35
ATOM      8  O   UNL     1      -0.891  -2.365  25.343  0.00  0.00    -0.248 OA
ATOM     35  C   UNL     1      -1.926  -2.663  24.765  0.00  0.00    +0.331 C 
BRANCH  35   7
ATOM      7  O   UNL     1      -1.974  -3.165  23.505  0.00  0.00    -0.479 OA
ATOM     41  H   UNL     1      -2.365  -2.527  22.871  0.00  0.00    +0.295 HD
ENDBRANCH  35   7
ENDBRANCH  29  35
ENDBRANCH   4  29
ENDBRANCH  23   4
ENDBRANCH  21  23
TORSDOF 12
ENDMDL
MODEL 3
REMARK VINA RESULT:       3.0      2.095      4.749
REMARK  Name = 7134287
REMARK  12 active torsions:
REMARK  status: ('A' for Active; 'I' for Inactive)
REMARK    1  A    between atoms: O_4  and  C_23
REMARK    2  A    between atoms: O_4  and  C_29
REMARK    3  A    between atoms: O_7  and  C_35
REMARK    4  A    between atoms: N_10  and  C_15
REMARK    5  A    between atoms: N_11  and  C_22
REMARK    6  A    between atoms: C_16  and  C_20
REMARK    7  A    between atoms: C_21  and  C_23
REMARK    8  A    between atoms: C_22  and  C_25
REMARK    9  A    between atoms: C_22  and  C_26
REMARK   10  A    between atoms: C_24  and  C_27
REMARK   11  A    between atoms: C_25  and  C_28
REMARK   12  A    between atoms: C_29  and  C_35
REMARK                            x       y       z     vdW  Elec       q    Type
REMARK                         _______ _______ _______ _____ _____    ______ ____
ROOT
ATOM      3  O   UNL     1      -4.464  -0.601  23.163  0.00  0.00    -0.273 OA
ATOM      9  N   UNL     1      -2.629   0.277  24.297  0.00  0.00    -0.288 N 
ATOM     15  C   UNL     1       0.179   1.071  24.242  0.00  0.00    +0.077 C 
ATOM     16  C   UNL     1      -1.977   0.668  25.558  0.00  0.00    +0.164 C 
ATOM     17  C   UNL     1      -0.455   0.516  25.520  0.00  0.00    +0.054 C 
ATOM     18  C   UNL     1      -0.519   0.497  23.012  0.00  0.00    +0.041 C 
ATOM     19  C   UNL     1      -2.016   0.772  23.059  0.00  0.00    +0.110 C 
ATOM     21  C   UNL     1      -3.856  -0.393  24.217  0.00  0.00    +0.242 C 
ENDROOT
BRANCH  16  20
ATOM      2  O   UNL     1      -1.654   2.870  26.423  0.00  0.00    -0.274 OA
ATOM     11  N   UNL     1      -3.682   2.345  25.410  0.00  0.00    -0.302 N 
ATOM     20  C   UNL     1      -2.396   2.080  25.846  0.00  0.00    +0.234 C 
ATOM     38  H   UNL     1      -4.235   1.588  25.016  0.00  0.00    +0.150 HD
BRANCH  11  22
ATOM     22  C   UNL     1      -4.330   3.624  25.588  0.00  0.00    +0.163 C 
BRANCH  22  26
ATOM      6  O   UNL     1      -6.336   2.268  25.381  0.00  0.00    -0.274 OA
ATOM     12  N   UNL     1      -6.565   4.500  25.873  0.00  0.00    -0.328 N 
ATOM     26  C   UNL     1      -5.830   3.370  25.581  0.00  0.00    +0.231 C 
ATOM     39  H   UNL     1      -7.578   4.466  25.916  0.00  0.00    +0.145 HD
ATOM     40  H   UNL     1      -6.135   5.404  26.039  0.00  0.00    +0.145 HD
ENDBRANCH  22  26
BRANCH  22  25
ATOM     25  C   UNL     1      -3.952   4.626  24.491  0.00  0.00    +0.074 C 
BRANCH  25  28
ATOM      1  S   UNL     1      -1.587   3.925  23.196  0.00  0.00    -0.102 S 
ATOM     28  C   UNL     1      -2.458   4.812  24.373  0.00  0.00    -0.008 A 
ATOM     31  C   UNL     1      -1.636   5.635  25.113  0.00  0.00    +0.011 A 
ATOM     32  C   UNL     1      -0.274   5.536  24.707  0.00  0.00    +0.008 A 
ATOM     33  C   UNL     1      -0.106   4.641  23.673  0.00  0.00    +0.045 A 
ENDBRANCH  25  28
ENDBRANCH  22  25
ENDBRANCH  11  22
ENDBRANCH  16  20
BRANCH  15  10
ATOM      5  O   UNL     1       1.599  -0.280  22.143  0.00  0.00    -0.268 OA
ATOM     10  N   UNL     1       1.593   0.784  24.204  0.00  0.00    -0.307 N 
ATOM     24  C   UNL     1       2.191   0.122  23.141  0.00  0.00    +0.264 C 
ATOM     37  H   UNL     1       2.159   1.031  25.011  0.00  0.00    +0.149 HD
BRANCH  24  27
ATOM     13  N   UNL     1       4.026  -1.322  23.747  0.00  0.00    -0.247 NA
ATOM     14  N   UNL     1       5.899   0.631  23.011  0.00  0.00    -0.259 NA
ATOM     27  C   UNL     1       3.652  -0.120  23.265  0.00  0.00    +0.143 A 
ATOM     30  C   UNL     1       4.571   0.839  22.903  0.00  0.00    +0.143 A 
ATOM     34  C   UNL     1       5.353  -1.530  23.854  0.00  0.00    +0.131 A 
ATOM     36  C   UNL     1       6.272  -0.570  23.493  0.00  0.00    +0.130 A 
ENDBRANCH  24  27
ENDBRANCH  15  10
BRANCH  21  23
ATOM     23  C   UNL     1      -4.442  -0.895  25.513  0.00  0.00    +0.256 C 
BRANCH  23   4
ATOM      4  O   UNL     1      -3.579  -1.904  25.979  0.00  0.00    -0.359 OA
BRANCH   4  29
ATOM     29  C   UNL     1      -3.332  -2.899  24.987  0.00  0.00    +0.280 C 
BRANCH  29  35
ATOM      8  O   UNL     1      -0.947  -2.614  25.354  0.00  0.00    -0.248 OA
ATOM     35  C   UNL     1      -1.877  -2.893  24.610  0.00  0.00    +0.331 C 
BRANCH  35   7
ATOM      7  O   UNL     1      -1.727  -3.243  23.308  0.00  0.00    -0.479 OA
ATOM     41  H   UNL     1      -2.256  -2.671  22.712  0.00  0.00    +0.295 HD
ENDBRANCH  35   7
ENDBRANCH  29  35
ENDBRANCH   4  29
ENDBRANCH  23   4
ENDBRANCH  21  23
TORSDOF 12
ENDMDL
MODEL 4
REMARK VINA RESULT:       3.0      1.360      2.063
REMARK  Name = 7134287
REMARK  12 active torsions:
REMARK  status: ('A' for Active; 'I' for Inactive)
REMARK    1  A    between atoms: O_4  and  C_23
REMARK    2  A    between atoms: O_4  and  C_29
REMARK    3  A    between atoms: O_7  and  C_35
REMARK    4  A    between atoms: N_10  and  C_15
REMARK    5  A    between atoms: N_11  and  C_22
REMARK    6  A    between atoms: C_16  and  C_20
REMARK    7  A    between atoms: C_21  and  C_23
REMARK    8  A    between atoms: C_22  and  C_25
REMARK    9  A    between atoms: C_22  and  C_26
REMARK   10  A    between atoms: C_24  and  C_27
REMARK   11  A    between atoms: C_25  and  C_28
REMARK   12  A    between atoms: C_29  and  C_35
REMARK                            x       y       z     vdW  Elec       q    Type
REMARK                         _______ _______ _______ _____ _____    ______ ____
ROOT
ATOM      3  O   UNL     1      -2.943   4.936  26.571  0.00  0.00    -0.273 OA
ATOM      9  N   UNL     1      -1.924   3.393  25.156  0.00  0.00    -0.288 N 
ATOM     15  C   UNL     1       0.211   1.450  24.721  0.00  0.00    +0.077 C 
ATOM     16  C   UNL     1      -1.758   2.809  23.815  0.00  0.00    +0.164 C 
ATOM     17  C   UNL     1      -0.345   2.279  23.560  0.00  0.00    +0.054 C 
ATOM     18  C   UNL     1       0.078   2.219  26.033  0.00  0.00    +0.041 C 
ATOM     19  C   UNL     1      -1.368   2.628  26.279  0.00  0.00    +0.110 C 
ATOM     21  C   UNL     1      -2.695   4.527  25.433  0.00  0.00    +0.242 C 
ENDROOT
BRANCH  16  20
ATOM      2  O   UNL     1      -2.752   0.907  22.768  0.00  0.00    -0.274 OA
ATOM     11  N   UNL     1      -3.776   1.822  24.647  0.00  0.00    -0.302 N 
ATOM     20  C   UNL     1      -2.797   1.736  23.673  0.00  0.00    +0.234 C 
ATOM     38  H   UNL     1      -3.754   2.601  25.300  0.00  0.00    +0.150 HD
BRANCH  11  22
ATOM     22  C   UNL     1      -4.902   0.919  24.719  0.00  0.00    +0.163 C 
BRANCH  22  26
ATOM      6  O   UNL     1      -7.225   1.628  24.642  0.00  0.00    -0.274 OA
ATOM     12  N   UNL     1      -5.830   2.602  26.185  0.00  0.00    -0.328 N 
ATOM     26  C   UNL     1      -6.109   1.743  25.142  0.00  0.00    +0.231 C 
ATOM     39  H   UNL     1      -6.552   3.199  26.574  0.00  0.00    +0.145 HD
ATOM     40  H   UNL     1      -4.905   2.685  26.592  0.00  0.00    +0.145 HD
ENDBRANCH  22  26
BRANCH  22  25
ATOM     25  C   UNL     1      -4.665  -0.229  25.708  0.00  0.00    +0.074 C 
BRANCH  25  28
ATOM      1  S   UNL     1      -3.585  -2.320  24.217  0.00  0.00    -0.102 S 
ATOM     28  C   UNL     1      -3.446  -1.049  25.355  0.00  0.00    -0.008 A 
ATOM     31  C   UNL     1      -2.162  -0.925  25.838  0.00  0.00    +0.011 A 
ATOM     32  C   UNL     1      -1.280  -1.887  25.265  0.00  0.00    +0.008 A 
ATOM     33  C   UNL     1      -1.925  -2.709  24.367  0.00  0.00    +0.045 A 
ENDBRANCH  25  28
ENDBRANCH  22  25
ENDBRANCH  11  22
ENDBRANCH  16  20
BRANCH  15  10
ATOM      5  O   UNL     1       1.193  -0.303  22.669  0.00  0.00    -0.268 OA
ATOM     10  N   UNL     1       1.587   1.089  24.482  0.00  0.00    -0.307 N 
ATOM     24  C   UNL     1       1.967   0.230  23.461  0.00  0.00    +0.264 C 
ATOM     37  H   UNL     1       2.296   1.438  25.120  0.00  0.00    +0.149 HD
BRANCH  24  27
ATOM     13  N   UNL     1       3.824  -1.270  23.804  0.00  0.00    -0.247 NA
ATOM     14  N   UNL     1       5.624   0.605  22.752  0.00  0.00    -0.259 NA
ATOM     27  C   UNL     1       3.420  -0.062  23.363  0.00  0.00    +0.143 A 
ATOM     30  C   UNL     1       4.304   0.859  22.846  0.00  0.00    +0.143 A 
ATOM     34  C   UNL     1       5.144  -1.524  23.710  0.00  0.00    +0.131 A 
ATOM     36  C   UNL     1       6.028  -0.602  23.193  0.00  0.00    +0.130 A 
ENDBRANCH  24  27
ENDBRANCH  15  10
BRANCH  21  23
ATOM     23  C   UNL     1      -3.235   5.289  24.248  0.00  0.00    +0.256 C 
BRANCH  23   4
ATOM      4  O   UNL     1      -3.944   4.359  23.465  0.00  0.00    -0.359 OA
BRANCH   4  29
ATOM     29  C   UNL     1      -4.362   4.917  22.220  0.00  0.00    +0.280 C 
BRANCH  29  35
ATOM      8  O   UNL     1      -3.256   3.034  21.154  0.00  0.00    -0.248 OA
ATOM     35  C   UNL     1      -4.056   3.957  21.103  0.00  0.00    +0.331 C 
BRANCH  35   7
ATOM      7  O   UNL     1      -4.798   4.258  20.008  0.00  0.00    -0.479 OA
ATOM     41  H   UNL     1      -5.418   4.999  20.178  0.00  0.00    +0.295 HD
ENDBRANCH  35   7
ENDBRANCH  29  35
ENDBRANCH   4  29
ENDBRANCH  23   4
ENDBRANCH  21  23
TORSDOF 12
ENDMDL
