MODEL 1
REMARK VINA RESULT:      -4.5      0.000      0.000
REMARK  Name = 51137862
REMARK  4 active torsions:
REMARK  status: ('A' for Active; 'I' for Inactive)
REMARK    1  A    between atoms: N_3  and  C_12
REMARK    2  A    between atoms: C_7  and  C_11
REMARK    3  A    between atoms: C_12  and  C_13
REMARK    4  A    between atoms: C_16  and  C_24
REMARK                            x       y       z     vdW  Elec       q    Type
REMARK                         _______ _______ _______ _____ _____    ______ ____
ROOT
ATOM      4  N   UNL     1      -3.782 -10.172  12.591  0.00  0.00    -0.342 N 
ATOM      5  N   UNL     1      -5.996  -9.988  12.535  0.00  0.00    -0.231 NA
ATOM     11  C   UNL     1      -4.958 -10.310  13.274  0.00  0.00    +0.113 A 
ATOM     14  C   UNL     1      -4.081  -9.733  11.327  0.00  0.00    +0.067 A 
ATOM     15  C   UNL     1      -5.468  -9.626  11.317  0.00  0.00    +0.101 A 
ATOM     16  C   UNL     1      -6.113  -9.192  10.146  0.00  0.00    +0.064 A 
ATOM     17  C   UNL     1      -3.280  -9.428  10.225  0.00  0.00    +0.028 A 
ATOM     20  C   UNL     1      -5.331  -8.881   9.028  0.00  0.00    +0.015 A 
ATOM     21  C   UNL     1      -3.938  -8.997   9.069  0.00  0.00    +0.003 A 
ATOM     26  H   UNL     1      -2.855 -10.359  12.951  0.00  0.00    +0.167 HD
ENDROOT
BRANCH  16  24
ATOM      2  O   UNL     1      -8.113  -8.239   9.344  0.00  0.00    -0.270 OA
ATOM      6  N   UNL     1      -8.315  -9.912  10.900  0.00  0.00    -0.325 N 
ATOM     24  C   UNL     1      -7.558  -9.064  10.094  0.00  0.00    +0.244 C 
ATOM     27  H   UNL     1      -9.329  -9.857  10.887  0.00  0.00    +0.145 HD
ATOM     28  H   UNL     1      -7.918 -10.606  11.523  0.00  0.00    +0.145 HD
ENDBRANCH  16  24
BRANCH  11   7
ATOM      3  N   UNL     1      -5.798 -10.237  16.840  0.00  0.00    -0.297 NA
ATOM      7  C   UNL     1      -4.982 -10.781  14.710  0.00  0.00    +0.070 C 
ATOM      8  C   UNL     1      -3.830 -10.253  15.582  0.00  0.00    +0.028 C 
ATOM      9  C   UNL     1      -6.257 -10.365  15.455  0.00  0.00    +0.096 C 
ATOM     10  C   UNL     1      -4.511  -9.547  16.749  0.00  0.00    +0.085 C 
BRANCH   3  12
ATOM     12  C   UNL     1      -6.752  -9.524  17.677  0.00  0.00    +0.119 C 
BRANCH  12  13
ATOM      1 CL   UNL     1     -10.549  -7.123  15.035  0.00  0.00    -0.084 Cl
ATOM     13  C   UNL     1      -8.142  -9.561  17.100  0.00  0.00    -0.032 A 
ATOM     18  C   UNL     1      -8.643  -8.454  16.415  0.00  0.00    +0.025 A 
ATOM     19  C   UNL     1      -8.929 -10.702  17.251  0.00  0.00    +0.005 A 
ATOM     22  C   UNL     1      -9.931  -8.489  15.880  0.00  0.00    +0.041 A 
ATOM     23  C   UNL     1     -10.217 -10.738  16.716  0.00  0.00    +0.002 A 
ATOM     25  C   UNL     1     -10.718  -9.632  16.030  0.00  0.00    +0.020 A 
ENDBRANCH  12  13
ENDBRANCH   3  12
ENDBRANCH  11   7
TORSDOF 4
ENDMDL
MODEL 2
REMARK VINA RESULT:      -3.3     14.379     17.008
REMARK  Name = 51137862
REMARK  4 active torsions:
REMARK  status: ('A' for Active; 'I' for Inactive)
REMARK    1  A    between atoms: N_3  and  C_12
REMARK    2  A    between atoms: C_7  and  C_11
REMARK    3  A    between atoms: C_12  and  C_13
REMARK    4  A    between atoms: C_16  and  C_24
REMARK                            x       y       z     vdW  Elec       q    Type
REMARK                         _______ _______ _______ _____ _____    ______ ____
ROOT
ATOM      4  N   UNL     1      -5.100  -0.746  24.139  0.00  0.00    -0.342 N 
ATOM      5  N   UNL     1      -3.147   0.240  24.531  0.00  0.00    -0.231 NA
ATOM     11  C   UNL     1      -4.443   0.421  24.412  0.00  0.00    +0.113 A 
ATOM     14  C   UNL     1      -4.164  -1.747  24.076  0.00  0.00    +0.067 A 
ATOM     15  C   UNL     1      -2.954  -1.107  24.324  0.00  0.00    +0.101 A 
ATOM     16  C   UNL     1      -1.769  -1.861  24.333  0.00  0.00    +0.064 A 
ATOM     17  C   UNL     1      -4.270  -3.118  23.833  0.00  0.00    +0.028 A 
ATOM     20  C   UNL     1      -1.850  -3.237  24.090  0.00  0.00    +0.015 A 
ATOM     21  C   UNL     1      -3.081  -3.853  23.845  0.00  0.00    +0.003 A 
ATOM     26  H   UNL     1      -6.096  -0.857  24.006  0.00  0.00    +0.167 HD
ENDROOT
BRANCH  16  24
ATOM      2  O   UNL     1      -0.003  -0.393  23.806  0.00  0.00    -0.270 OA
ATOM      6  N   UNL     1       0.187  -1.581  25.759  0.00  0.00    -0.325 N 
ATOM     24  C   UNL     1      -0.486  -1.232  24.590  0.00  0.00    +0.244 C 
ATOM     27  H   UNL     1       1.084  -1.158  25.976  0.00  0.00    +0.145 HD
ATOM     28  H   UNL     1      -0.162  -2.251  26.435  0.00  0.00    +0.145 HD
ENDBRANCH  16  24
BRANCH  11   7
ATOM      3  N   UNL     1      -4.993   3.913  25.379  0.00  0.00    -0.297 NA
ATOM      7  C   UNL     1      -5.190   1.729  24.549  0.00  0.00    +0.070 C 
ATOM      8  C   UNL     1      -6.021   1.866  25.837  0.00  0.00    +0.028 C 
ATOM      9  C   UNL     1      -4.262   2.950  24.553  0.00  0.00    +0.096 C 
ATOM     10  C   UNL     1      -5.502   3.132  26.507  0.00  0.00    +0.085 C 
BRANCH   3  12
ATOM     12  C   UNL     1      -4.157   5.025  25.807  0.00  0.00    +0.119 C 
BRANCH  12  13
ATOM      1 CL   UNL     1      -0.029   1.895  26.373  0.00  0.00    -0.084 Cl
ATOM     13  C   UNL     1      -2.697   4.760  25.552  0.00  0.00    -0.032 A 
ATOM     18  C   UNL     1      -2.108   3.587  26.025  0.00  0.00    +0.025 A 
ATOM     19  C   UNL     1      -1.933   5.687  24.843  0.00  0.00    +0.005 A 
ATOM     22  C   UNL     1      -0.755   3.341  25.788  0.00  0.00    +0.041 A 
ATOM     23  C   UNL     1      -0.581   5.441  24.606  0.00  0.00    +0.002 A 
ATOM     25  C   UNL     1       0.008   4.268  25.078  0.00  0.00    +0.020 A 
ENDBRANCH  12  13
ENDBRANCH   3  12
ENDBRANCH  11   7
TORSDOF 4
ENDMDL
MODEL 3
REMARK VINA RESULT:      -1.2      1.770      2.145
REMARK  Name = 51137862
REMARK  4 active torsions:
REMARK  status: ('A' for Active; 'I' for Inactive)
REMARK    1  A    between atoms: N_3  and  C_12
REMARK    2  A    between atoms: C_7  and  C_11
REMARK    3  A    between atoms: C_12  and  C_13
REMARK    4  A    between atoms: C_16  and  C_24
REMARK                            x       y       z     vdW  Elec       q    Type
REMARK                         _______ _______ _______ _____ _____    ______ ____
ROOT
ATOM      4  N   UNL     1      -2.229 -10.158  14.111  0.00  0.00    -0.342 N 
ATOM      5  N   UNL     1      -4.367 -10.287  13.518  0.00  0.00    -0.231 NA
ATOM     11  C   UNL     1      -3.512 -10.410  14.508  0.00  0.00    +0.113 A 
ATOM     14  C   UNL     1      -2.258  -9.853  12.774  0.00  0.00    +0.067 A 
ATOM     15  C   UNL     1      -3.603  -9.940  12.428  0.00  0.00    +0.101 A 
ATOM     16  C   UNL     1      -3.987  -9.681  11.102  0.00  0.00    +0.064 A 
ATOM     17  C   UNL     1      -1.253  -9.517  11.866  0.00  0.00    +0.028 A 
ATOM     20  C   UNL     1      -2.996  -9.342  10.172  0.00  0.00    +0.015 A 
ATOM     21  C   UNL     1      -1.653  -9.262  10.550  0.00  0.00    +0.003 A 
ATOM     26  H   UNL     1      -1.403 -10.191  14.694  0.00  0.00    +0.167 HD
ENDROOT
BRANCH  16  24
ATOM      2  O   UNL     1      -6.061 -10.780  10.905  0.00  0.00    -0.270 OA
ATOM      6  N   UNL     1      -5.944  -8.640  10.090  0.00  0.00    -0.325 N 
ATOM     24  C   UNL     1      -5.380  -9.758  10.700  0.00  0.00    +0.244 C 
ATOM     27  H   UNL     1      -6.917  -8.653   9.801  0.00  0.00    +0.145 HD
ATOM     28  H   UNL     1      -5.439  -7.780   9.905  0.00  0.00    +0.145 HD
ENDBRANCH  16  24
BRANCH  11   7
ATOM      3  N   UNL     1      -5.391 -10.426  17.655  0.00  0.00    -0.297 NA
ATOM      7  C   UNL     1      -3.832 -10.781  15.939  0.00  0.00    +0.070 C 
ATOM      8  C   UNL     1      -3.226  -9.845  16.999  0.00  0.00    +0.028 C 
ATOM      9  C   UNL     1      -5.337 -10.779  16.234  0.00  0.00    +0.096 C 
ATOM     10  C   UNL     1      -4.414  -9.348  17.812  0.00  0.00    +0.085 C 
BRANCH   3  12
ATOM     12  C   UNL     1      -6.726 -10.032  18.079  0.00  0.00    +0.119 C 
BRANCH  12  13
ATOM      1 CL   UNL     1      -7.881  -9.322  13.047  0.00  0.00    -0.084 Cl
ATOM     13  C   UNL     1      -7.726 -10.142  16.959  0.00  0.00    -0.032 A 
ATOM     18  C   UNL     1      -7.381  -9.729  15.672  0.00  0.00    +0.025 A 
ATOM     19  C   UNL     1      -8.998 -10.657  17.208  0.00  0.00    +0.005 A 
ATOM     22  C   UNL     1      -8.307  -9.832  14.635  0.00  0.00    +0.041 A 
ATOM     23  C   UNL     1      -9.925 -10.760  16.171  0.00  0.00    +0.002 A 
ATOM     25  C   UNL     1      -9.579 -10.348  14.884  0.00  0.00    +0.020 A 
ENDBRANCH  12  13
ENDBRANCH   3  12
ENDBRANCH  11   7
TORSDOF 4
ENDMDL
MODEL 4
REMARK VINA RESULT:      -1.0     15.044     17.808
REMARK  Name = 51137862
REMARK  4 active torsions:
REMARK  status: ('A' for Active; 'I' for Inactive)
REMARK    1  A    between atoms: N_3  and  C_12
REMARK    2  A    between atoms: C_7  and  C_11
REMARK    3  A    between atoms: C_12  and  C_13
REMARK    4  A    between atoms: C_16  and  C_24
REMARK                            x       y       z     vdW  Elec       q    Type
REMARK                         _______ _______ _______ _____ _____    ______ ____
ROOT
ATOM      4  N   UNL     1      -1.711   2.690  25.183  0.00  0.00    -0.342 N 
ATOM      5  N   UNL     1      -3.359   1.209  25.362  0.00  0.00    -0.231 NA
ATOM     11  C   UNL     1      -2.061   1.369  25.241  0.00  0.00    +0.113 A 
ATOM     14  C   UNL     1      -2.861   3.431  25.270  0.00  0.00    +0.067 A 
ATOM     15  C   UNL     1      -3.875   2.484  25.381  0.00  0.00    +0.101 A 
ATOM     16  C   UNL     1      -5.208   2.917  25.492  0.00  0.00    +0.064 A 
ATOM     17  C   UNL     1      -3.095   4.807  25.263  0.00  0.00    +0.028 A 
ATOM     20  C   UNL     1      -5.466   4.294  25.486  0.00  0.00    +0.015 A 
ATOM     21  C   UNL     1      -4.426   5.220  25.374  0.00  0.00    +0.003 A 
ATOM     26  H   UNL     1      -0.773   3.058  25.091  0.00  0.00    +0.167 HD
ENDROOT
BRANCH  16  24
ATOM      2  O   UNL     1      -6.815   1.439  24.610  0.00  0.00    -0.270 OA
ATOM      6  N   UNL     1      -6.731   1.632  26.893  0.00  0.00    -0.325 N 
ATOM     24  C   UNL     1      -6.295   1.963  25.612  0.00  0.00    +0.244 C 
ATOM     27  H   UNL     1      -7.485   0.964  27.018  0.00  0.00    +0.145 HD
ATOM     28  H   UNL     1      -6.340   2.022  27.743  0.00  0.00    +0.145 HD
ENDBRANCH  16  24
BRANCH  11   7
ATOM      3  N   UNL     1       0.527  -0.739  23.728  0.00  0.00    -0.297 NA
ATOM      7  C   UNL     1      -1.017   0.277  25.171  0.00  0.00    +0.070 C 
ATOM      8  C   UNL     1      -1.551  -1.098  24.733  0.00  0.00    +0.028 C 
ATOM      9  C   UNL     1       0.110   0.591  24.180  0.00  0.00    +0.096 C 
ATOM     10  C   UNL     1      -0.721  -1.471  23.510  0.00  0.00    +0.085 C 
BRANCH   3  12
ATOM     12  C   UNL     1       1.354  -0.685  22.532  0.00  0.00    +0.119 C 
BRANCH  12  13
ATOM      1 CL   UNL     1       6.024  -1.746  24.586  0.00  0.00    -0.084 Cl
ATOM     13  C   UNL     1       2.757  -0.237  22.840  0.00  0.00    -0.032 A 
ATOM     18  C   UNL     1       3.638  -1.099  23.494  0.00  0.00    +0.025 A 
ATOM     19  C   UNL     1       3.178   1.041  22.472  0.00  0.00    +0.005 A 
ATOM     22  C   UNL     1       4.939  -0.683  23.779  0.00  0.00    +0.041 A 
ATOM     23  C   UNL     1       4.479   1.457  22.757  0.00  0.00    +0.002 A 
ATOM     25  C   UNL     1       5.360   0.595  23.410  0.00  0.00    +0.020 A 
ENDBRANCH  12  13
ENDBRANCH   3  12
ENDBRANCH  11   7
TORSDOF 4
ENDMDL
MODEL 5
REMARK VINA RESULT:      -0.7     14.993     17.839
REMARK  Name = 51137862
REMARK  4 active torsions:
REMARK  status: ('A' for Active; 'I' for Inactive)
REMARK    1  A    between atoms: N_3  and  C_12
REMARK    2  A    between atoms: C_7  and  C_11
REMARK    3  A    between atoms: C_12  and  C_13
REMARK    4  A    between atoms: C_16  and  C_24
REMARK                            x       y       z     vdW  Elec       q    Type
REMARK                         _______ _______ _______ _____ _____    ______ ____
ROOT
ATOM      4  N   UNL     1      -3.571   0.145  24.950  0.00  0.00    -0.342 N 
ATOM      5  N   UNL     1      -2.257   1.883  25.388  0.00  0.00    -0.231 NA
ATOM     11  C   UNL     1      -2.292   0.599  25.114  0.00  0.00    +0.113 A 
ATOM     14  C   UNL     1      -4.418   1.208  25.131  0.00  0.00    +0.067 A 
ATOM     15  C   UNL     1      -3.574   2.281  25.403  0.00  0.00    +0.101 A 
ATOM     16  C   UNL     1      -4.131   3.548  25.641  0.00  0.00    +0.064 A 
ATOM     17  C   UNL     1      -5.808   1.321  25.080  0.00  0.00    +0.028 A 
ATOM     20  C   UNL     1      -5.524   3.685  25.596  0.00  0.00    +0.015 A 
ATOM     21  C   UNL     1      -6.346   2.589  25.320  0.00  0.00    +0.003 A 
ATOM     26  H   UNL     1      -3.848  -0.804  24.735  0.00  0.00    +0.167 HD
ENDROOT
BRANCH  16  24
ATOM      2  O   UNL     1      -3.555   5.489  26.846  0.00  0.00    -0.270 OA
ATOM      6  N   UNL     1      -2.146   4.871  25.145  0.00  0.00    -0.325 N 
ATOM     24  C   UNL     1      -3.286   4.694  25.926  0.00  0.00    +0.244 C 
ATOM     27  H   UNL     1      -1.527   5.657  25.318  0.00  0.00    +0.145 HD
ATOM     28  H   UNL     1      -1.876   4.252  24.389  0.00  0.00    +0.145 HD
ENDBRANCH  16  24
BRANCH  11   7
ATOM      3  N   UNL     1       0.598  -0.981  23.507  0.00  0.00    -0.297 NA
ATOM      7  C   UNL     1      -1.106  -0.330  24.980  0.00  0.00    +0.070 C 
ATOM      8  C   UNL     1      -1.434  -1.715  24.395  0.00  0.00    +0.028 C 
ATOM      9  C   UNL     1      -0.009   0.229  24.066  0.00  0.00    +0.096 C 
ATOM     10  C   UNL     1      -0.532  -1.850  23.174  0.00  0.00    +0.085 C 
BRANCH   3  12
ATOM     12  C   UNL     1       1.438  -0.698  22.352  0.00  0.00    +0.119 C 
BRANCH  12  13
ATOM      1 CL   UNL     1       6.012  -1.733  24.626  0.00  0.00    -0.084 Cl
ATOM     13  C   UNL     1       2.810  -0.230  22.759  0.00  0.00    -0.032 A 
ATOM     18  C   UNL     1       3.675  -1.097  23.426  0.00  0.00    +0.025 A 
ATOM     19  C   UNL     1       3.217   1.072  22.467  0.00  0.00    +0.005 A 
ATOM     22  C   UNL     1       4.946  -0.663  23.802  0.00  0.00    +0.041 A 
ATOM     23  C   UNL     1       4.488   1.507  22.843  0.00  0.00    +0.002 A 
ATOM     25  C   UNL     1       5.353   0.639  23.509  0.00  0.00    +0.020 A 
ENDBRANCH  12  13
ENDBRANCH   3  12
ENDBRANCH  11   7
TORSDOF 4
ENDMDL
MODEL 6
REMARK VINA RESULT:      -0.7     14.872     16.982
REMARK  Name = 51137862
REMARK  4 active torsions:
REMARK  status: ('A' for Active; 'I' for Inactive)
REMARK    1  A    between atoms: N_3  and  C_12
REMARK    2  A    between atoms: C_7  and  C_11
REMARK    3  A    between atoms: C_12  and  C_13
REMARK    4  A    between atoms: C_16  and  C_24
REMARK                            x       y       z     vdW  Elec       q    Type
REMARK                         _______ _______ _______ _____ _____    ______ ____
ROOT
ATOM      4  N   UNL     1      -0.647   1.354  23.805  0.00  0.00    -0.342 N 
ATOM      5  N   UNL     1       1.423   1.997  24.298  0.00  0.00    -0.231 NA
ATOM     11  C   UNL     1       0.146   2.195  24.535  0.00  0.00    +0.113 A 
ATOM     14  C   UNL     1       0.174   0.560  23.046  0.00  0.00    +0.067 A 
ATOM     15  C   UNL     1       1.460   0.981  23.371  0.00  0.00    +0.101 A 
ATOM     16  C   UNL     1       2.561   0.360  22.757  0.00  0.00    +0.064 A 
ATOM     17  C   UNL     1      -0.090  -0.460  22.130  0.00  0.00    +0.028 A 
ATOM     20  C   UNL     1       2.320  -0.666  21.834  0.00  0.00    +0.015 A 
ATOM     21  C   UNL     1       1.017  -1.067  21.528  0.00  0.00    +0.003 A 
ATOM     26  H   UNL     1      -1.657   1.320  23.819  0.00  0.00    +0.167 HD
ENDROOT
BRANCH  16  24
ATOM      2  O   UNL     1       4.357   1.883  22.735  0.00  0.00    -0.270 OA
ATOM      6  N   UNL     1       4.718  -0.127  23.779  0.00  0.00    -0.325 N 
ATOM     24  C   UNL     1       3.918   0.766  23.070  0.00  0.00    +0.244 C 
ATOM     27  H   UNL     1       5.671   0.124  24.022  0.00  0.00    +0.145 HD
ATOM     28  H   UNL     1       4.411  -1.045  24.082  0.00  0.00    +0.145 HD
ENDBRANCH  16  24
BRANCH  11   7
ATOM      3  N   UNL     1      -2.440   4.338  26.001  0.00  0.00    -0.297 NA
ATOM      7  C   UNL     1      -0.451   3.209  25.485  0.00  0.00    +0.070 C 
ATOM      8  C   UNL     1      -0.349   4.671  25.016  0.00  0.00    +0.028 C 
ATOM      9  C   UNL     1      -1.947   2.984  25.736  0.00  0.00    +0.096 C 
ATOM     10  C   UNL     1      -1.785   5.181  25.001  0.00  0.00    +0.085 C 
BRANCH   3  12
ATOM     12  C   UNL     1      -3.891   4.423  25.934  0.00  0.00    +0.119 C 
BRANCH  12  13
ATOM      1 CL   UNL     1      -3.569  -0.157  23.468  0.00  0.00    -0.084 Cl
ATOM     13  C   UNL     1      -4.516   3.096  25.594  0.00  0.00    -0.032 A 
ATOM     18  C   UNL     1      -3.833   2.190  24.783  0.00  0.00    +0.025 A 
ATOM     19  C   UNL     1      -5.778   2.772  26.091  0.00  0.00    +0.005 A 
ATOM     22  C   UNL     1      -4.412   0.960  24.470  0.00  0.00    +0.041 A 
ATOM     23  C   UNL     1      -6.358   1.543  25.778  0.00  0.00    +0.002 A 
ATOM     25  C   UNL     1      -5.674   0.636  24.968  0.00  0.00    +0.020 A 
ENDBRANCH  12  13
ENDBRANCH   3  12
ENDBRANCH  11   7
TORSDOF 4
ENDMDL
MODEL 7
REMARK VINA RESULT:      -0.6     15.049     16.949
REMARK  Name = 51137862
REMARK  4 active torsions:
REMARK  status: ('A' for Active; 'I' for Inactive)
REMARK    1  A    between atoms: N_3  and  C_12
REMARK    2  A    between atoms: C_7  and  C_11
REMARK    3  A    between atoms: C_12  and  C_13
REMARK    4  A    between atoms: C_16  and  C_24
REMARK                            x       y       z     vdW  Elec       q    Type
REMARK                         _______ _______ _______ _____ _____    ______ ____
ROOT
ATOM      4  N   UNL     1       1.011   2.764  24.155  0.00  0.00    -0.342 N 
ATOM      5  N   UNL     1      -0.492   1.335  24.955  0.00  0.00    -0.231 NA
ATOM     11  C   UNL     1      -0.104   2.590  24.927  0.00  0.00    +0.113 A 
ATOM     14  C   UNL     1       1.367   1.538  23.653  0.00  0.00    +0.067 A 
ATOM     15  C   UNL     1       0.414   0.664  24.167  0.00  0.00    +0.101 A 
ATOM     16  C   UNL     1       0.488  -0.701  23.839  0.00  0.00    +0.064 A 
ATOM     17  C   UNL     1       2.409   1.132  22.818  0.00  0.00    +0.028 A 
ATOM     20  C   UNL     1       1.526  -1.132  23.003  0.00  0.00    +0.015 A 
ATOM     21  C   UNL     1       2.468  -0.229  22.502  0.00  0.00    +0.003 A 
ATOM     26  H   UNL     1       1.491   3.637  23.983  0.00  0.00    +0.167 HD
ENDROOT
BRANCH  16  24
ATOM      2  O   UNL     1      -1.173  -2.352  23.588  0.00  0.00    -0.270 OA
ATOM      6  N   UNL     1      -0.624  -1.754  25.733  0.00  0.00    -0.325 N 
ATOM     24  C   UNL     1      -0.487  -1.645  24.351  0.00  0.00    +0.244 C 
ATOM     27  H   UNL     1      -1.291  -2.409  26.129  0.00  0.00    +0.145 HD
ATOM     28  H   UNL     1      -0.088  -1.210  26.400  0.00  0.00    +0.145 HD
ENDBRANCH  16  24
BRANCH  11   7
ATOM      3  N   UNL     1      -2.832   4.785  26.007  0.00  0.00    -0.297 NA
ATOM      7  C   UNL     1      -0.759   3.756  25.633  0.00  0.00    +0.070 C 
ATOM      8  C   UNL     1      -0.849   5.047  24.801  0.00  0.00    +0.028 C 
ATOM      9  C   UNL     1      -2.204   3.463  26.055  0.00  0.00    +0.096 C 
ATOM     10  C   UNL     1      -2.332   5.395  24.774  0.00  0.00    +0.085 C 
BRANCH   3  12
ATOM     12  C   UNL     1      -4.285   4.712  26.039  0.00  0.00    +0.119 C 
BRANCH  12  13
ATOM      1 CL   UNL     1      -3.537   0.235  23.477  0.00  0.00    -0.084 Cl
ATOM     13  C   UNL     1      -4.785   3.341  25.667  0.00  0.00    -0.032 A 
ATOM     18  C   UNL     1      -4.019   2.519  24.841  0.00  0.00    +0.025 A 
ATOM     19  C   UNL     1      -6.016   2.893  26.148  0.00  0.00    +0.005 A 
ATOM     22  C   UNL     1      -4.483   1.249  24.497  0.00  0.00    +0.041 A 
ATOM     23  C   UNL     1      -6.480   1.623  25.804  0.00  0.00    +0.002 A 
ATOM     25  C   UNL     1      -5.713   0.801  24.979  0.00  0.00    +0.020 A 
ENDBRANCH  12  13
ENDBRANCH   3  12
ENDBRANCH  11   7
TORSDOF 4
ENDMDL
