MODEL 1
REMARK VINA RESULT:      -4.0      0.000      0.000
REMARK  Name = 44716331
REMARK  5 active torsions:
REMARK  status: ('A' for Active; 'I' for Inactive)
REMARK    1  A    between atoms: N_3  and  C_17
REMARK    2  A    between atoms: N_4  and  C_14
REMARK    3  A    between atoms: C_7  and  C_13
REMARK    4  A    between atoms: C_8  and  C_14
REMARK    5  A    between atoms: C_16  and  C_18
REMARK                            x       y       z     vdW  Elec       q    Type
REMARK                         _______ _______ _______ _____ _____    ______ ____
ROOT
ATOM      2  N   UNL     1      -4.539  -8.344   9.851  0.00  0.00    -0.298 NA
ATOM      6  C   UNL     1      -6.230 -10.285  10.250  0.00  0.00    +0.002 C 
ATOM      7  C   UNL     1      -6.439  -9.156  11.298  0.00  0.00    +0.055 C 
ATOM      8  C   UNL     1      -3.822  -9.646   9.880  0.00  0.00    +0.070 C 
ATOM      9  C   UNL     1      -4.770 -10.781  10.321  0.00  0.00    +0.024 C 
ATOM     10  C   UNL     1      -6.424  -9.643   8.860  0.00  0.00    +0.019 C 
ATOM     11  C   UNL     1      -5.275  -8.139  11.123  0.00  0.00    +0.094 C 
ATOM     12  C   UNL     1      -5.529  -8.397   8.748  0.00  0.00    +0.085 C 
ENDROOT
BRANCH   7  13
ATOM      3  N   UNL     1      -7.863  -9.883  13.269  0.00  0.00    -0.270 N 
ATOM      5  N   UNL     1      -7.831 -10.203  14.574  0.00  0.00    -0.171 NA
ATOM     13  C   UNL     1      -6.644  -9.555  12.753  0.00  0.00    +0.044 A 
ATOM     15  C   UNL     1      -5.753  -9.669  13.792  0.00  0.00    +0.053 A 
ATOM     16  C   UNL     1      -6.539 -10.071  14.888  0.00  0.00    +0.100 A 
ATOM     17  C   UNL     1      -9.125  -9.913  12.566  0.00  0.00    +0.172 C 
BRANCH  16  18
ATOM      1  S   UNL     1      -4.378 -10.386  16.655  0.00  0.00    -0.095 S 
ATOM     18  C   UNL     1      -6.041 -10.332  16.250  0.00  0.00    +0.039 A 
ATOM     19  C   UNL     1      -6.847 -10.559  17.343  0.00  0.00    +0.018 A 
ATOM     20  C   UNL     1      -6.089 -10.781  18.529  0.00  0.00    +0.008 A 
ATOM     21  C   UNL     1      -4.733 -10.714  18.298  0.00  0.00    +0.046 A 
ENDBRANCH  16  18
ENDBRANCH   7  13
BRANCH   8  14
ATOM     14  C   UNL     1      -2.557  -9.594  10.740  0.00  0.00    +0.096 C 
BRANCH  14   4
ATOM      4  N   UNL     1      -2.668 -10.492  11.878  0.00  0.00    -0.329 NA
ATOM     22  H   UNL     1      -3.338 -10.112  12.545  0.00  0.00    +0.118 HD
ATOM     23  H   UNL     1      -3.045 -11.392  11.583  0.00  0.00    +0.118 HD
ENDBRANCH  14   4
ENDBRANCH   8  14
TORSDOF 4
ENDMDL
MODEL 2
REMARK VINA RESULT:      -2.7     15.405     17.462
REMARK  Name = 44716331
REMARK  5 active torsions:
REMARK  status: ('A' for Active; 'I' for Inactive)
REMARK    1  A    between atoms: N_3  and  C_17
REMARK    2  A    between atoms: N_4  and  C_14
REMARK    3  A    between atoms: C_7  and  C_13
REMARK    4  A    between atoms: C_8  and  C_14
REMARK    5  A    between atoms: C_16  and  C_18
REMARK                            x       y       z     vdW  Elec       q    Type
REMARK                         _______ _______ _______ _____ _____    ______ ____
ROOT
ATOM      2  N   UNL     1      -3.927   3.552  26.054  0.00  0.00    -0.298 NA
ATOM      6  C   UNL     1      -4.134   2.100  23.902  0.00  0.00    +0.002 C 
ATOM      7  C   UNL     1      -3.224   1.397  24.947  0.00  0.00    +0.055 C 
ATOM      8  C   UNL     1      -3.650   4.382  24.852  0.00  0.00    +0.070 C 
ATOM      9  C   UNL     1      -3.564   3.499  23.589  0.00  0.00    +0.024 C 
ATOM     10  C   UNL     1      -5.507   2.310  24.577  0.00  0.00    +0.019 C 
ATOM     11  C   UNL     1      -2.987   2.405  26.108  0.00  0.00    +0.094 C 
ATOM     12  C   UNL     1      -5.304   3.016  25.929  0.00  0.00    +0.085 C 
ENDROOT
BRANCH   7  13
ATOM      3  N   UNL     1      -1.675  -0.576  24.557  0.00  0.00    -0.270 N 
ATOM      5  N   UNL     1      -0.475  -0.936  24.072  0.00  0.00    -0.171 NA
ATOM     13  C   UNL     1      -1.930   0.761  24.461  0.00  0.00    +0.044 A 
ATOM     15  C   UNL     1      -0.819   1.313  23.870  0.00  0.00    +0.053 A 
ATOM     16  C   UNL     1       0.043   0.222  23.653  0.00  0.00    +0.100 A 
ATOM     17  C   UNL     1      -2.545  -1.588  25.111  0.00  0.00    +0.172 C 
BRANCH  16  18
ATOM      1  S   UNL     1       1.805  -0.532  21.598  0.00  0.00    -0.095 S 
ATOM     18  C   UNL     1       1.380   0.295  23.035  0.00  0.00    +0.039 A 
ATOM     19  C   UNL     1       2.429   1.032  23.538  0.00  0.00    +0.018 A 
ATOM     20  C   UNL     1       3.598   0.914  22.732  0.00  0.00    +0.008 A 
ATOM     21  C   UNL     1       3.398   0.093  21.644  0.00  0.00    +0.046 A 
ENDBRANCH  16  18
ENDBRANCH   7  13
BRANCH   8  14
ATOM     14  C   UNL     1      -2.407   5.257  25.023  0.00  0.00    +0.096 C 
BRANCH  14   4
ATOM      4  N   UNL     1      -1.197   4.454  24.953  0.00  0.00    -0.329 NA
ATOM     22  H   UNL     1      -1.194   3.919  24.087  0.00  0.00    +0.118 HD
ATOM     23  H   UNL     1      -0.375   5.056  24.914  0.00  0.00    +0.118 HD
ENDBRANCH  14   4
ENDBRANCH   8  14
TORSDOF 4
ENDMDL
MODEL 3
REMARK VINA RESULT:      -1.3     14.380     16.811
REMARK  Name = 44716331
REMARK  5 active torsions:
REMARK  status: ('A' for Active; 'I' for Inactive)
REMARK    1  A    between atoms: N_3  and  C_17
REMARK    2  A    between atoms: N_4  and  C_14
REMARK    3  A    between atoms: C_7  and  C_13
REMARK    4  A    between atoms: C_8  and  C_14
REMARK    5  A    between atoms: C_16  and  C_18
REMARK                            x       y       z     vdW  Elec       q    Type
REMARK                         _______ _______ _______ _____ _____    ______ ____
ROOT
ATOM      2  N   UNL     1      -4.324  -0.682  23.761  0.00  0.00    -0.298 NA
ATOM      6  C   UNL     1      -3.213   0.854  25.547  0.00  0.00    +0.002 C 
ATOM      7  C   UNL     1      -2.618   1.137  24.139  0.00  0.00    +0.055 C 
ATOM      8  C   UNL     1      -3.868  -1.496  24.919  0.00  0.00    +0.070 C 
ATOM      9  C   UNL     1      -3.026  -0.639  25.888  0.00  0.00    +0.024 C 
ATOM     10  C   UNL     1      -4.733   1.110  25.447  0.00  0.00    +0.019 C 
ATOM     11  C   UNL     1      -3.178   0.054  23.173  0.00  0.00    +0.094 C 
ATOM     12  C   UNL     1      -5.304   0.312  24.263  0.00  0.00    +0.085 C 
ENDROOT
BRANCH   7  13
ATOM      3  N   UNL     1      -0.457   2.454  24.324  0.00  0.00    -0.270 N 
ATOM      5  N   UNL     1       0.874   2.391  24.145  0.00  0.00    -0.171 NA
ATOM     13  C   UNL     1      -1.109   1.297  24.016  0.00  0.00    +0.044 A 
ATOM     15  C   UNL     1      -0.138   0.415  23.608  0.00  0.00    +0.053 A 
ATOM     16  C   UNL     1       1.063   1.143  23.708  0.00  0.00    +0.100 A 
ATOM     17  C   UNL     1      -1.046   3.683  24.803  0.00  0.00    +0.172 C 
BRANCH  16  18
ATOM      1  S   UNL     1       2.856  -1.014  23.544  0.00  0.00    -0.095 S 
ATOM     18  C   UNL     1       2.405   0.630  23.380  0.00  0.00    +0.039 A 
ATOM     19  C   UNL     1       3.440   1.406  22.909  0.00  0.00    +0.018 A 
ATOM     20  C   UNL     1       4.620   0.640  22.679  0.00  0.00    +0.008 A 
ATOM     21  C   UNL     1       4.441  -0.691  22.983  0.00  0.00    +0.046 A 
ENDBRANCH  16  18
ENDBRANCH   7  13
BRANCH   8  14
ATOM     14  C   UNL     1      -3.126  -2.761  24.484  0.00  0.00    +0.096 C 
BRANCH  14   4
ATOM      4  N   UNL     1      -1.690  -2.599  24.644  0.00  0.00    -0.329 NA
ATOM     22  H   UNL     1      -1.392  -3.052  25.506  0.00  0.00    +0.118 HD
ATOM     23  H   UNL     1      -1.194  -3.074  23.891  0.00  0.00    +0.118 HD
ENDBRANCH  14   4
ENDBRANCH   8  14
TORSDOF 4
ENDMDL
MODEL 4
REMARK VINA RESULT:      -0.8     15.225     17.165
REMARK  Name = 44716331
REMARK  5 active torsions:
REMARK  status: ('A' for Active; 'I' for Inactive)
REMARK    1  A    between atoms: N_3  and  C_17
REMARK    2  A    between atoms: N_4  and  C_14
REMARK    3  A    between atoms: C_7  and  C_13
REMARK    4  A    between atoms: C_8  and  C_14
REMARK    5  A    between atoms: C_16  and  C_18
REMARK                            x       y       z     vdW  Elec       q    Type
REMARK                         _______ _______ _______ _____ _____    ______ ____
ROOT
ATOM      2  N   UNL     1      -3.936   2.130  23.631  0.00  0.00    -0.298 NA
ATOM      6  C   UNL     1      -1.909   2.663  25.177  0.00  0.00    +0.002 C 
ATOM      7  C   UNL     1      -1.420   2.269  23.755  0.00  0.00    +0.055 C 
ATOM      8  C   UNL     1      -4.062   1.385  24.911  0.00  0.00    +0.070 C 
ATOM      9  C   UNL     1      -2.775   1.524  25.752  0.00  0.00    +0.024 C 
ATOM     10  C   UNL     1      -2.828   3.892  25.007  0.00  0.00    +0.019 C 
ATOM     11  C   UNL     1      -2.661   1.774  22.959  0.00  0.00    +0.094 C 
ATOM     12  C   UNL     1      -3.901   3.578  23.951  0.00  0.00    +0.085 C 
ENDROOT
BRANCH   7  13
ATOM      3  N   UNL     1      -0.386  -0.041  23.565  0.00  0.00    -0.270 N 
ATOM      5  N   UNL     1       0.777  -0.707  23.469  0.00  0.00    -0.171 NA
ATOM     13  C   UNL     1      -0.241   1.313  23.639  0.00  0.00    +0.044 A 
ATOM     15  C   UNL     1       1.111   1.549  23.588  0.00  0.00    +0.053 A 
ATOM     16  C   UNL     1       1.688   0.270  23.483  0.00  0.00    +0.100 A 
ATOM     17  C   UNL     1      -1.626  -0.784  23.580  0.00  0.00    +0.172 C 
BRANCH  16  18
ATOM      1  S   UNL     1       4.267   1.061  22.698  0.00  0.00    -0.095 S 
ATOM     18  C   UNL     1       3.132  -0.014  23.395  0.00  0.00    +0.039 A 
ATOM     19  C   UNL     1       3.728  -1.166  23.858  0.00  0.00    +0.018 A 
ATOM     20  C   UNL     1       5.135  -1.165  23.638  0.00  0.00    +0.008 A 
ATOM     21  C   UNL     1       5.561  -0.014  23.015  0.00  0.00    +0.046 A 
ENDBRANCH  16  18
ENDBRANCH   7  13
BRANCH   8  14
ATOM     14  C   UNL     1      -4.448  -0.080  24.696  0.00  0.00    +0.096 C 
BRANCH  14   4
ATOM      4  N   UNL     1      -3.921  -0.915  25.763  0.00  0.00    -0.329 NA
ATOM     22  H   UNL     1      -3.162  -1.489  25.400  0.00  0.00    +0.118 HD
ATOM     23  H   UNL     1      -3.509  -0.336  26.495  0.00  0.00    +0.118 HD
ENDBRANCH  14   4
ENDBRANCH   8  14
TORSDOF 4
ENDMDL
MODEL 5
REMARK VINA RESULT:      -0.4     15.188     17.157
REMARK  Name = 44716331
REMARK  5 active torsions:
REMARK  status: ('A' for Active; 'I' for Inactive)
REMARK    1  A    between atoms: N_3  and  C_17
REMARK    2  A    between atoms: N_4  and  C_14
REMARK    3  A    between atoms: C_7  and  C_13
REMARK    4  A    between atoms: C_8  and  C_14
REMARK    5  A    between atoms: C_16  and  C_18
REMARK                            x       y       z     vdW  Elec       q    Type
REMARK                         _______ _______ _______ _____ _____    ______ ____
ROOT
ATOM      2  N   UNL     1      -3.977   1.083  25.358  0.00  0.00    -0.298 NA
ATOM      6  C   UNL     1      -2.935   0.021  23.221  0.00  0.00    +0.002 C 
ATOM      7  C   UNL     1      -1.930  -0.041  24.404  0.00  0.00    +0.055 C 
ATOM      8  C   UNL     1      -4.140   2.003  24.202  0.00  0.00    +0.070 C 
ATOM      9  C   UNL     1      -3.350   1.488  22.980  0.00  0.00    +0.024 C 
ATOM     10  C   UNL     1      -4.201  -0.741  23.671  0.00  0.00    +0.019 C 
ATOM     11  C   UNL     1      -2.539   0.785  25.574  0.00  0.00    +0.094 C 
ATOM     12  C   UNL     1      -4.668  -0.187  25.027  0.00  0.00    +0.085 C 
ENDROOT
BRANCH   7  13
ATOM      3  N   UNL     1      -0.033   1.615  24.087  0.00  0.00    -0.270 N 
ATOM      5  N   UNL     1       1.282   1.727  23.834  0.00  0.00    -0.171 NA
ATOM     13  C   UNL     1      -0.478   0.327  24.134  0.00  0.00    +0.044 A 
ATOM     15  C   UNL     1       0.623  -0.460  23.896  0.00  0.00    +0.053 A 
ATOM     16  C   UNL     1       1.678   0.456  23.718  0.00  0.00    +0.100 A 
ATOM     17  C   UNL     1      -0.818   2.813  24.278  0.00  0.00    +0.172 C 
BRANCH  16  18
ATOM      1  S   UNL     1       4.161   1.123  22.587  0.00  0.00    -0.095 S 
ATOM     18  C   UNL     1       3.080   0.102  23.436  0.00  0.00    +0.039 A 
ATOM     19  C   UNL     1       3.677  -1.079  23.819  0.00  0.00    +0.018 A 
ATOM     20  C   UNL     1       5.040  -1.146  23.409  0.00  0.00    +0.008 A 
ATOM     21  C   UNL     1       5.433  -0.014  22.730  0.00  0.00    +0.046 A 
ENDBRANCH  16  18
ENDBRANCH   7  13
BRANCH   8  14
ATOM     14  C   UNL     1      -3.771   3.447  24.551  0.00  0.00    +0.096 C 
BRANCH  14   4
ATOM      4  N   UNL     1      -4.772   4.039  25.424  0.00  0.00    -0.329 NA
ATOM     22  H   UNL     1      -5.589   3.432  25.463  0.00  0.00    +0.118 HD
ATOM     23  H   UNL     1      -4.419   4.097  26.378  0.00  0.00    +0.118 HD
ENDBRANCH  14   4
ENDBRANCH   8  14
TORSDOF 4
ENDMDL
