MODEL 1
REMARK VINA RESULT:      -0.7      0.000      0.000
REMARK  Name = 7673889
REMARK  4 active torsions:
REMARK  status: ('A' for Active; 'I' for Inactive)
REMARK    1  A    between atoms: N_3  and  C_12
REMARK    2  A    between atoms: C_21  and  C_24
REMARK    3  A    between atoms: C_23  and  C_25
REMARK    4  A    between atoms: C_28  and  C_31
REMARK                            x       y       z     vdW  Elec       q    Type
REMARK                         _______ _______ _______ _____ _____    ______ ____
ROOT
ATOM      1  O   UNL     1      15.389  -8.201  25.806  0.00  0.00    -0.267 OA
ATOM      3  N   UNL     1      14.058  -8.911  30.588  0.00  0.00    -0.298 NA
ATOM      4  N   UNL     1      15.939  -8.664  28.024  0.00  0.00    -0.311 N 
ATOM      7  C   UNL     1      15.104 -10.755  29.249  0.00  0.00    +0.024 C 
ATOM      8  C   UNL     1      16.538  -9.153  30.419  0.00  0.00    +0.050 C 
ATOM      9  C   UNL     1      16.396 -10.625  30.044  0.00  0.00    +0.017 C 
ATOM     10  C   UNL     1      13.907 -10.290  30.106  0.00  0.00    +0.090 C 
ATOM     11  C   UNL     1      15.336  -8.724  31.291  0.00  0.00    +0.094 C 
ATOM     13  C   UNL     1      15.242  -9.956  27.946  0.00  0.00    +0.130 C 
ATOM     14  C   UNL     1      16.630  -8.285  29.177  0.00  0.00    +0.026 A 
ATOM     19  C   UNL     1      17.353  -7.154  29.189  0.00  0.00    +0.022 A 
ATOM     20  C   UNL     1      15.958  -7.883  26.852  0.00  0.00    +0.259 A 
ATOM     21  C   UNL     1      16.749  -6.603  26.907  0.00  0.00    +0.047 A 
ATOM     22  C   UNL     1      17.405  -6.301  28.037  0.00  0.00    +0.015 A 
ENDROOT
BRANCH   3  12
ATOM      2  O   UNL     1       8.331 -10.065  32.464  0.00  0.00    -0.276 OA
ATOM      5  N   UNL     1      10.108  -8.623  32.063  0.00  0.00    -0.302 N 
ATOM     12  C   UNL     1      12.933  -8.527  31.437  0.00  0.00    +0.060 C 
ATOM     15  C   UNL     1      11.902  -7.738  30.619  0.00  0.00    +0.038 C 
ATOM     16  C   UNL     1      12.287  -9.775  32.053  0.00  0.00    +0.038 C 
ATOM     17  C   UNL     1      10.671  -7.407  31.463  0.00  0.00    +0.109 C 
ATOM     18  C   UNL     1      11.049  -9.403  32.867  0.00  0.00    +0.109 C 
ATOM     23  C   UNL     1       8.781  -9.037  31.951  0.00  0.00    +0.212 C 
ATOM     25  C   UNL     1       7.864  -8.156  31.142  0.00  0.00    +0.109 C 
ENDBRANCH   3  12
BRANCH  21  24
ATOM     24  C   UNL     1      16.802  -5.690  25.752  0.00  0.00    -0.011 A 
ATOM     26  C   UNL     1      16.698  -4.312  25.946  0.00  0.00    +0.027 A 
ATOM     27  C   UNL     1      16.957  -6.201  24.463  0.00  0.00    +0.009 A 
ATOM     28  C   UNL     1      16.750  -3.447  24.852  0.00  0.00    +0.052 A 
ATOM     29  C   UNL     1      17.007  -5.336  23.370  0.00  0.00    +0.002 A 
ATOM     30  C   UNL     1      16.904  -3.959  23.565  0.00  0.00    +0.019 A 
BRANCH  28  31
ATOM      6  N   UNL     1      16.554  -0.888  25.215  0.00  0.00    -0.191 NA
ATOM     31  C   UNL     1      16.642  -2.035  25.052  0.00  0.00    +0.099 C 
ENDBRANCH  28  31
ENDBRANCH  21  24
TORSDOF 3
ENDMDL
