MODEL 1
REMARK VINA RESULT:       2.1      0.000      0.000
REMARK  Name = 25338738
REMARK  7 active torsions:
REMARK  status: ('A' for Active; 'I' for Inactive)
REMARK    1  A    between atoms: O_3  and  C_24
REMARK    2  A    between atoms: O_3  and  C_28
REMARK    3  A    between atoms: N_4  and  C_13
REMARK    4  A    between atoms: N_5  and  C_8
REMARK    5  A    between atoms: C_9  and  C_12
REMARK    6  A    between atoms: C_14  and  C_16
REMARK    7  A    between atoms: C_15  and  C_17
REMARK                            x       y       z     vdW  Elec       q    Type
REMARK                         _______ _______ _______ _____ _____    ______ ____
ROOT
ATOM      4  N   UNL     1      -2.243   3.949  25.981  0.00  0.00    -0.293 NA
ATOM      8  C   UNL     1      -1.141   4.664  24.055  0.00  0.00    +0.089 C 
ATOM      9  C   UNL     1      -3.235   3.740  24.911  0.00  0.00    +0.147 C 
ATOM     10  C   UNL     1      -2.473   4.063  23.609  0.00  0.00    +0.052 C 
ATOM     11  C   UNL     1      -1.369   5.030  25.514  0.00  0.00    +0.107 C 
ATOM     13  C   UNL     1      -2.847   4.258  27.272  0.00  0.00    +0.105 C 
ENDROOT
BRANCH   9  12
ATOM      1  O   UNL     1      -5.170   2.265  25.125  0.00  0.00    -0.336 OA
ATOM      6  N   UNL     1      -3.247   1.195  24.716  0.00  0.00    -0.190 NA
ATOM      7  N   UNL     1      -5.486   0.900  25.074  0.00  0.00    -0.056 NA
ATOM     12  C   UNL     1      -3.833   2.349  24.905  0.00  0.00    +0.245 A 
ATOM     15  C   UNL     1      -4.300   0.335  24.830  0.00  0.00    +0.202 A 
BRANCH  15  17
ATOM     17  C   UNL     1      -4.135  -1.082  24.691  0.00  0.00    +0.022 A 
ATOM     20  C   UNL     1      -4.680  -1.744  23.592  0.00  0.00    +0.012 A 
ATOM     21  C   UNL     1      -3.428  -1.799  25.658  0.00  0.00    +0.012 A 
ATOM     25  C   UNL     1      -4.518  -3.124  23.457  0.00  0.00    +0.001 A 
ATOM     26  C   UNL     1      -3.266  -3.178  25.523  0.00  0.00    +0.001 A 
ATOM     27  C   UNL     1      -3.812  -3.840  24.423  0.00  0.00    +0.000 A 
ENDBRANCH  15  17
ENDBRANCH   9  12
BRANCH   8   5
ATOM      2  O   UNL     1      -1.310   2.014  22.964  0.00  0.00    -0.270 OA
ATOM      5  N   UNL     1      -0.058   3.719  23.914  0.00  0.00    -0.307 N 
ATOM     14  C   UNL     1      -0.239   2.455  23.373  0.00  0.00    +0.244 C 
ATOM     29  H   UNL     1       0.830   3.975  24.332  0.00  0.00    +0.149 HD
BRANCH  14  16
ATOM     16  C   UNL     1       0.969   1.593  23.322  0.00  0.00    +0.037 A 
ATOM     18  C   UNL     1       0.841   0.207  23.418  0.00  0.00    +0.016 A 
ATOM     19  C   UNL     1       2.231   2.169  23.177  0.00  0.00    +0.016 A 
ATOM     22  C   UNL     1       1.975  -0.603  23.370  0.00  0.00    +0.046 A 
ATOM     23  C   UNL     1       3.366   1.358  23.129  0.00  0.00    +0.046 A 
ATOM     24  C   UNL     1       3.238  -0.027  23.227  0.00  0.00    +0.120 A 
BRANCH  24   3
ATOM      3  O   UNL     1       4.345  -0.817  23.180  0.00  0.00    -0.495 OA
ATOM     28  C   UNL     1       5.529  -0.312  23.797  0.00  0.00    +0.277 C 
ENDBRANCH  24   3
ENDBRANCH  14  16
ENDBRANCH   8   5
TORSDOF 5
ENDMDL
MODEL 2
REMARK VINA RESULT:       2.4      1.616      5.163
REMARK  Name = 25338738
REMARK  7 active torsions:
REMARK  status: ('A' for Active; 'I' for Inactive)
REMARK    1  A    between atoms: O_3  and  C_24
REMARK    2  A    between atoms: O_3  and  C_28
REMARK    3  A    between atoms: N_4  and  C_13
REMARK    4  A    between atoms: N_5  and  C_8
REMARK    5  A    between atoms: C_9  and  C_12
REMARK    6  A    between atoms: C_14  and  C_16
REMARK    7  A    between atoms: C_15  and  C_17
REMARK                            x       y       z     vdW  Elec       q    Type
REMARK                         _______ _______ _______ _____ _____    ______ ____
ROOT
ATOM      4  N   UNL     1      -3.822  -1.861  23.965  0.00  0.00    -0.293 NA
ATOM      8  C   UNL     1      -2.141  -2.722  25.332  0.00  0.00    +0.089 C 
ATOM      9  C   UNL     1      -4.049  -1.197  25.263  0.00  0.00    +0.147 C 
ATOM     10  C   UNL     1      -2.856  -1.637  26.135  0.00  0.00    +0.052 C 
ATOM     11  C   UNL     1      -3.156  -3.130  24.275  0.00  0.00    +0.107 C 
ATOM     13  C   UNL     1      -5.048  -2.062  23.201  0.00  0.00    +0.105 C 
ENDROOT
BRANCH   9  12
ATOM      1  O   UNL     1      -5.419   0.825  25.273  0.00  0.00    -0.336 OA
ATOM      6  N   UNL     1      -3.234   1.204  24.969  0.00  0.00    -0.190 NA
ATOM      7  N   UNL     1      -5.279   2.213  25.144  0.00  0.00    -0.056 NA
ATOM     12  C   UNL     1      -4.169   0.308  25.158  0.00  0.00    +0.245 A 
ATOM     15  C   UNL     1      -3.963   2.358  24.967  0.00  0.00    +0.202 A 
BRANCH  15  17
ATOM     17  C   UNL     1      -3.344   3.639  24.789  0.00  0.00    +0.022 A 
ATOM     20  C   UNL     1      -3.954   4.603  23.987  0.00  0.00    +0.012 A 
ATOM     21  C   UNL     1      -2.130   3.920  25.418  0.00  0.00    +0.012 A 
ATOM     25  C   UNL     1      -3.352   5.850  23.814  0.00  0.00    +0.001 A 
ATOM     26  C   UNL     1      -1.528   5.167  25.244  0.00  0.00    +0.001 A 
ATOM     27  C   UNL     1      -2.139   6.131  24.442  0.00  0.00    +0.000 A 
ENDBRANCH  15  17
ENDBRANCH   9  12
BRANCH   8   5
ATOM      2  O   UNL     1      -0.973  -0.128  25.722  0.00  0.00    -0.270 OA
ATOM      5  N   UNL     1      -0.926  -2.224  24.729  0.00  0.00    -0.307 N 
ATOM     14  C   UNL     1      -0.441  -0.950  24.980  0.00  0.00    +0.244 C 
ATOM     29  H   UNL     1      -0.494  -2.807  24.021  0.00  0.00    +0.149 HD
BRANCH  14  16
ATOM     16  C   UNL     1       0.806  -0.579  24.262  0.00  0.00    +0.037 A 
ATOM     18  C   UNL     1       1.851  -1.497  24.158  0.00  0.00    +0.016 A 
ATOM     19  C   UNL     1       0.930   0.688  23.691  0.00  0.00    +0.016 A 
ATOM     22  C   UNL     1       3.021  -1.148  23.484  0.00  0.00    +0.046 A 
ATOM     23  C   UNL     1       2.101   1.036  23.016  0.00  0.00    +0.046 A 
ATOM     24  C   UNL     1       3.146   0.118  22.913  0.00  0.00    +0.120 A 
BRANCH  24   3
ATOM      3  O   UNL     1       4.288   0.459  22.256  0.00  0.00    -0.495 OA
ATOM     28  C   UNL     1       5.522   0.214  22.928  0.00  0.00    +0.277 C 
ENDBRANCH  24   3
ENDBRANCH  14  16
ENDBRANCH   8   5
TORSDOF 5
ENDMDL
