MODEL 1
REMARK VINA RESULT:      -2.5      0.000      0.000
REMARK  Name = 45784186
REMARK  3 active torsions:
REMARK  status: ('A' for Active; 'I' for Inactive)
REMARK    1  A    between atoms: N_2  and  C_4
REMARK    2  A    between atoms: C_5  and  C_14
REMARK    3  A    between atoms: C_19  and  C_21
REMARK                            x       y       z     vdW  Elec       q    Type
REMARK                         _______ _______ _______ _____ _____    ______ ____
ROOT
ATOM      2  N   UNL     1      -2.896   0.235  24.629  0.00  0.00    -0.299 NA
ATOM      5  C   UNL     1      -0.988  -0.637  23.580  0.00  0.00    +0.090 C 
ATOM      6  C   UNL     1      -1.691   0.682  23.927  0.00  0.00    +0.097 C 
ATOM      7  C   UNL     1      -2.438  -0.834  25.519  0.00  0.00    +0.085 C 
ATOM     10  C   UNL     1      -1.502  -1.640  24.628  0.00  0.00    +0.029 C 
ENDROOT
BRANCH   5  14
ATOM      1  O   UNL     1       0.987   0.682  23.033  0.00  0.00    -0.439 OA
ATOM      3  N   UNL     1       1.432  -1.381  23.862  0.00  0.00    -0.213 NA
ATOM     14  C   UNL     1       0.516  -0.502  23.515  0.00  0.00    +0.201 A 
ATOM     15  C   UNL     1       2.612  -0.732  23.590  0.00  0.00    +0.110 A 
ATOM     16  C   UNL     1       2.344   0.531  23.083  0.00  0.00    +0.155 A 
ATOM     17  C   UNL     1       3.947  -1.132  23.741  0.00  0.00    +0.035 A 
ATOM     18  C   UNL     1       3.311   1.453  22.702  0.00  0.00    +0.049 A 
ATOM     19  C   UNL     1       4.952  -0.228  23.369  0.00  0.00    -0.048 A 
ATOM     20  C   UNL     1       4.638   1.038  22.860  0.00  0.00    +0.007 A 
ATOM     21  C   UNL     1       6.384  -0.625  23.518  0.00  0.00    +0.044 C 
ENDBRANCH   5  14
BRANCH   2   4
ATOM      4  C   UNL     1      -3.555   1.319  25.354  0.00  0.00    +0.057 C 
ATOM      8  C   UNL     1      -2.903   2.658  24.993  0.00  0.00    +0.019 C 
ATOM      9  C   UNL     1      -5.053   1.327  25.030  0.00  0.00    +0.019 C 
ATOM     11  C   UNL     1      -3.616   3.825  25.674  0.00  0.00    +0.002 C 
ATOM     12  C   UNL     1      -5.763   2.496  25.711  0.00  0.00    +0.002 C 
ATOM     13  C   UNL     1      -5.110   3.831  25.363  0.00  0.00    +0.000 C 
ENDBRANCH   2   4
TORSDOF 2
ENDMDL
MODEL 2
REMARK VINA RESULT:      -1.0      1.378      7.894
REMARK  Name = 45784186
REMARK  3 active torsions:
REMARK  status: ('A' for Active; 'I' for Inactive)
REMARK    1  A    between atoms: N_2  and  C_4
REMARK    2  A    between atoms: C_5  and  C_14
REMARK    3  A    between atoms: C_19  and  C_21
REMARK                            x       y       z     vdW  Elec       q    Type
REMARK                         _______ _______ _______ _____ _____    ______ ____
ROOT
ATOM      2  N   UNL     1       1.762  -0.746  23.296  0.00  0.00    -0.299 NA
ATOM      5  C   UNL     1      -0.573  -0.592  23.458  0.00  0.00    +0.090 C 
ATOM      6  C   UNL     1       0.718  -0.405  24.266  0.00  0.00    +0.097 C 
ATOM      7  C   UNL     1       1.345  -0.100  22.051  0.00  0.00    +0.085 C 
ATOM     10  C   UNL     1      -0.146  -0.407  21.991  0.00  0.00    +0.029 C 
ENDROOT
BRANCH   5  14
ATOM      1  O   UNL     1      -2.845  -0.299  24.288  0.00  0.00    -0.439 OA
ATOM      3  N   UNL     1      -1.693   1.631  23.996  0.00  0.00    -0.213 NA
ATOM     14  C   UNL     1      -1.690   0.318  23.914  0.00  0.00    +0.201 A 
ATOM     15  C   UNL     1      -2.953   1.916  24.463  0.00  0.00    +0.110 A 
ATOM     16  C   UNL     1      -3.662   0.737  24.644  0.00  0.00    +0.155 A 
ATOM     17  C   UNL     1      -3.578   3.134  24.762  0.00  0.00    +0.035 A 
ATOM     18  C   UNL     1      -4.970   0.662  25.106  0.00  0.00    +0.049 A 
ATOM     19  C   UNL     1      -4.899   3.099  25.232  0.00  0.00    -0.048 A 
ATOM     20  C   UNL     1      -5.578   1.887  25.400  0.00  0.00    +0.007 A 
ATOM     21  C   UNL     1      -5.593   4.381  25.560  0.00  0.00    +0.044 C 
ENDBRANCH   5  14
BRANCH   2   4
ATOM      4  C   UNL     1       3.089  -0.316  23.731  0.00  0.00    +0.057 C 
ATOM      8  C   UNL     1       4.026  -1.525  23.818  0.00  0.00    +0.019 C 
ATOM      9  C   UNL     1       3.636   0.740  22.764  0.00  0.00    +0.019 C 
ATOM     11  C   UNL     1       5.445  -1.104  24.195  0.00  0.00    +0.002 C 
ATOM     12  C   UNL     1       5.055   1.160  23.143  0.00  0.00    +0.002 C 
ATOM     13  C   UNL     1       5.990  -0.043  23.242  0.00  0.00    +0.000 C 
ENDBRANCH   2   4
TORSDOF 2
ENDMDL
MODEL 3
REMARK VINA RESULT:      -0.9      1.240      2.131
REMARK  Name = 45784186
REMARK  3 active torsions:
REMARK  status: ('A' for Active; 'I' for Inactive)
REMARK    1  A    between atoms: N_2  and  C_4
REMARK    2  A    between atoms: C_5  and  C_14
REMARK    3  A    between atoms: C_19  and  C_21
REMARK                            x       y       z     vdW  Elec       q    Type
REMARK                         _______ _______ _______ _____ _____    ______ ____
ROOT
ATOM      2  N   UNL     1      -2.148   1.322  23.662  0.00  0.00    -0.299 NA
ATOM      5  C   UNL     1      -0.270   0.084  22.999  0.00  0.00    +0.090 C 
ATOM      6  C   UNL     1      -0.815   1.516  23.087  0.00  0.00    +0.097 C 
ATOM      7  C   UNL     1      -1.960   0.334  24.725  0.00  0.00    +0.085 C 
ATOM     10  C   UNL     1      -1.046  -0.696  24.074  0.00  0.00    +0.029 C 
ENDROOT
BRANCH   5  14
ATOM      1  O   UNL     1       1.743  -1.166  23.569  0.00  0.00    -0.439 OA
ATOM      3  N   UNL     1       2.120   0.958  22.871  0.00  0.00    -0.213 NA
ATOM     14  C   UNL     1       1.235   0.018  23.128  0.00  0.00    +0.201 A 
ATOM     15  C   UNL     1       3.318   0.352  23.164  0.00  0.00    +0.110 A 
ATOM     16  C   UNL     1       3.091  -0.948  23.591  0.00  0.00    +0.155 A 
ATOM     17  C   UNL     1       4.636   0.824  23.097  0.00  0.00    +0.035 A 
ATOM     18  C   UNL     1       4.086  -1.842  23.968  0.00  0.00    +0.049 A 
ATOM     19  C   UNL     1       5.668  -0.051  23.468  0.00  0.00    -0.048 A 
ATOM     20  C   UNL     1       5.396  -1.356  23.895  0.00  0.00    +0.007 A 
ATOM     21  C   UNL     1       7.084   0.422  23.408  0.00  0.00    +0.044 C 
ENDBRANCH   5  14
BRANCH   2   4
ATOM      4  C   UNL     1      -2.730   2.569  24.156  0.00  0.00    +0.057 C 
ATOM      8  C   UNL     1      -4.011   2.270  24.941  0.00  0.00    +0.019 C 
ATOM      9  C   UNL     1      -1.708   3.311  25.024  0.00  0.00    +0.019 C 
ATOM     11  C   UNL     1      -4.607   3.543  25.539  0.00  0.00    +0.002 C 
ATOM     12  C   UNL     1      -2.306   4.583  25.621  0.00  0.00    +0.002 C 
ATOM     13  C   UNL     1      -3.589   4.293  26.396  0.00  0.00    +0.000 C 
ENDBRANCH   2   4
TORSDOF 2
ENDMDL
MODEL 4
REMARK VINA RESULT:      -0.8      1.320      7.494
REMARK  Name = 45784186
REMARK  3 active torsions:
REMARK  status: ('A' for Active; 'I' for Inactive)
REMARK    1  A    between atoms: N_2  and  C_4
REMARK    2  A    between atoms: C_5  and  C_14
REMARK    3  A    between atoms: C_19  and  C_21
REMARK                            x       y       z     vdW  Elec       q    Type
REMARK                         _______ _______ _______ _____ _____    ______ ____
ROOT
ATOM      2  N   UNL     1       2.035  -0.890  22.721  0.00  0.00    -0.299 NA
ATOM      5  C   UNL     1      -0.190  -0.508  23.357  0.00  0.00    +0.090 C 
ATOM      6  C   UNL     1       1.259  -0.336  23.833  0.00  0.00    +0.097 C 
ATOM      7  C   UNL     1       1.388  -0.371  21.516  0.00  0.00    +0.085 C 
ATOM     10  C   UNL     1      -0.093  -0.548  21.822  0.00  0.00    +0.029 C 
ENDROOT
BRANCH   5  14
ATOM      1  O   UNL     1      -0.524   1.565  24.594  0.00  0.00    -0.439 OA
ATOM      3  N   UNL     1      -2.429   0.618  23.811  0.00  0.00    -0.213 NA
ATOM     14  C   UNL     1      -1.119   0.550  23.908  0.00  0.00    +0.201 A 
ATOM     15  C   UNL     1      -2.737   1.773  24.488  0.00  0.00    +0.110 A 
ATOM     16  C   UNL     1      -1.574   2.356  24.969  0.00  0.00    +0.155 A 
ATOM     17  C   UNL     1      -3.964   2.400  24.743  0.00  0.00    +0.035 A 
ATOM     18  C   UNL     1      -1.523   3.537  25.700  0.00  0.00    +0.049 A 
ATOM     19  C   UNL     1      -3.954   3.595  25.477  0.00  0.00    -0.048 A 
ATOM     20  C   UNL     1      -2.757   4.149  25.944  0.00  0.00    +0.007 A 
ATOM     21  C   UNL     1      -5.246   4.287  25.765  0.00  0.00    +0.044 C 
ENDBRANCH   5  14
BRANCH   2   4
ATOM      4  C   UNL     1       3.450  -0.529  22.794  0.00  0.00    +0.057 C 
ATOM      8  C   UNL     1       3.591   0.971  23.075  0.00  0.00    +0.019 C 
ATOM      9  C   UNL     1       4.145  -1.363  23.876  0.00  0.00    +0.019 C 
ATOM     11  C   UNL     1       5.056   1.372  23.235  0.00  0.00    +0.002 C 
ATOM     12  C   UNL     1       5.609  -0.960  24.034  0.00  0.00    +0.002 C 
ATOM     13  C   UNL     1       5.756   0.536  24.304  0.00  0.00    +0.000 C 
ENDBRANCH   2   4
TORSDOF 2
ENDMDL
