MODEL 1
REMARK VINA RESULT:      -5.1      0.000      0.000
REMARK  Name = 40777919
REMARK  9 active torsions:
REMARK  status: ('A' for Active; 'I' for Inactive)
REMARK    1  A    between atoms: O_2  and  C_12
REMARK    2  A    between atoms: O_3  and  C_13
REMARK    3  A    between atoms: N_6  and  C_8
REMARK    4  A    between atoms: N_7  and  C_17
REMARK    5  A    between atoms: C_11  and  C_15
REMARK    6  A    between atoms: C_14  and  C_17
REMARK    7  A    between atoms: C_15  and  C_16
REMARK    8  A    between atoms: C_18  and  C_19
REMARK    9  A    between atoms: C_24  and  C_25
REMARK                            x       y       z     vdW  Elec       q    Type
REMARK                         _______ _______ _______ _____ _____    ______ ____
ROOT
ATOM      1  O   UNL     1      -2.837   2.723  23.968  0.00  0.00    -0.366 OA
ATOM     11  C   UNL     1      -3.340   3.653  24.954  0.00  0.00    +0.158 C 
ATOM     12  C   UNL     1      -2.125   4.179  25.710  0.00  0.00    +0.175 C 
ATOM     13  C   UNL     1      -1.158   3.019  25.598  0.00  0.00    +0.176 C 
ATOM     14  C   UNL     1      -1.427   2.534  24.184  0.00  0.00    +0.167 C 
ENDROOT
BRANCH  12   2
ATOM      2  O   UNL     1      -1.622   5.313  25.005  0.00  0.00    -0.387 OA
ATOM     27  H   UNL     1      -1.025   4.984  24.312  0.00  0.00    +0.210 HD
ENDBRANCH  12   2
BRANCH  13   3
ATOM      3  O   UNL     1       0.190   3.395  25.782  0.00  0.00    -0.387 OA
ATOM     28  H   UNL     1       0.239   3.918  26.600  0.00  0.00    +0.210 HD
ENDBRANCH  13   3
BRANCH  11  15
ATOM     15  C   UNL     1      -4.318   2.901  25.848  0.00  0.00    +0.130 C 
BRANCH  15  16
ATOM      4  O   UNL     1      -6.008   1.745  24.556  0.00  0.00    -0.276 OA
ATOM      6  N   UNL     1      -4.142   0.571  25.282  0.00  0.00    -0.312 N 
ATOM     16  C   UNL     1      -4.936   1.702  25.153  0.00  0.00    +0.216 C 
ATOM     26  H   UNL     1      -3.260   0.627  25.786  0.00  0.00    +0.149 HD
BRANCH   6   8
ATOM      8  C   UNL     1      -4.506  -0.695  24.714  0.00  0.00    +0.073 C 
ATOM      9  C   UNL     1      -3.735  -1.281  23.568  0.00  0.00    +0.024 C 
ATOM     10  C   UNL     1      -3.658  -1.915  24.925  0.00  0.00    +0.024 C 
ENDBRANCH   6   8
ENDBRANCH  15  16
ENDBRANCH  11  15
BRANCH  14  17
ATOM     17  C   UNL     1      -1.069   1.073  23.969  0.00  0.00    +0.138 C 
BRANCH  17   7
ATOM      5  O   UNL     1       0.437  -0.474  22.077  0.00  0.00    -0.270 OA
ATOM      7  N   UNL     1       0.351   0.885  23.956  0.00  0.00    -0.309 N 
ATOM     18  C   UNL     1       1.002   0.115  22.995  0.00  0.00    +0.244 C 
ATOM     29  H   UNL     1       0.874   1.302  24.718  0.00  0.00    +0.149 HD
BRANCH  18  19
ATOM     19  C   UNL     1       2.475  -0.003  23.135  0.00  0.00    +0.037 A 
ATOM     20  C   UNL     1       3.041  -1.191  23.598  0.00  0.00    +0.013 A 
ATOM     21  C   UNL     1       3.295   1.075  22.802  0.00  0.00    +0.013 A 
ATOM     22  C   UNL     1       4.425  -1.300  23.730  0.00  0.00    +0.004 A 
ATOM     23  C   UNL     1       4.680   0.966  22.933  0.00  0.00    +0.004 A 
ATOM     24  C   UNL     1       5.245  -0.222  23.397  0.00  0.00    -0.050 A 
ATOM     25  C   UNL     1       6.725  -0.340  23.537  0.00  0.00    +0.044 C 
ENDBRANCH  18  19
ENDBRANCH  17   7
ENDBRANCH  14  17
TORSDOF 8
ENDMDL
MODEL 2
REMARK VINA RESULT:      -3.7      2.959      7.233
REMARK  Name = 40777919
REMARK  9 active torsions:
REMARK  status: ('A' for Active; 'I' for Inactive)
REMARK    1  A    between atoms: O_2  and  C_12
REMARK    2  A    between atoms: O_3  and  C_13
REMARK    3  A    between atoms: N_6  and  C_8
REMARK    4  A    between atoms: N_7  and  C_17
REMARK    5  A    between atoms: C_11  and  C_15
REMARK    6  A    between atoms: C_14  and  C_17
REMARK    7  A    between atoms: C_15  and  C_16
REMARK    8  A    between atoms: C_18  and  C_19
REMARK    9  A    between atoms: C_24  and  C_25
REMARK                            x       y       z     vdW  Elec       q    Type
REMARK                         _______ _______ _______ _____ _____    ______ ____
ROOT
ATOM      1  O   UNL     1      -1.289  -2.030  23.533  0.00  0.00    -0.366 OA
ATOM     11  C   UNL     1      -0.125  -1.258  23.907  0.00  0.00    +0.158 C 
ATOM     12  C   UNL     1      -0.212  -1.052  25.415  0.00  0.00    +0.175 C 
ATOM     13  C   UNL     1      -1.707  -1.084  25.652  0.00  0.00    +0.176 C 
ATOM     14  C   UNL     1      -2.146  -2.166  24.681  0.00  0.00    +0.167 C 
ENDROOT
BRANCH  12   2
ATOM      2  O   UNL     1       0.416  -2.165  26.050  0.00  0.00    -0.387 OA
ATOM     27  H   UNL     1       0.837  -2.698  25.354  0.00  0.00    +0.210 HD
ENDBRANCH  12   2
BRANCH  13   3
ATOM      3  O   UNL     1      -2.055  -1.396  26.984  0.00  0.00    -0.387 OA
ATOM     28  H   UNL     1      -3.000  -1.624  26.994  0.00  0.00    +0.210 HD
ENDBRANCH  13   3
BRANCH  11  15
ATOM     15  C   UNL     1      -0.163   0.049  23.124  0.00  0.00    +0.130 C 
BRANCH  15  16
ATOM      4  O   UNL     1       1.526   1.530  24.027  0.00  0.00    -0.276 OA
ATOM      6  N   UNL     1      -0.703   1.905  24.554  0.00  0.00    -0.312 N 
ATOM     16  C   UNL     1       0.339   1.228  23.937  0.00  0.00    +0.216 C 
ATOM     26  H   UNL     1      -1.661   1.592  24.415  0.00  0.00    +0.149 HD
BRANCH   6   8
ATOM      8  C   UNL     1      -0.491   3.058  25.380  0.00  0.00    +0.073 C 
ATOM      9  C   UNL     1      -0.915   4.425  24.928  0.00  0.00    +0.024 C 
ATOM     10  C   UNL     1      -1.637   3.751  26.057  0.00  0.00    +0.024 C 
ENDBRANCH   6   8
ENDBRANCH  15  16
ENDBRANCH  11  15
BRANCH  14  17
ATOM     17  C   UNL     1      -3.598  -2.038  24.252  0.00  0.00    +0.138 C 
BRANCH  17   7
ATOM      5  O   UNL     1      -3.152   0.424  22.843  0.00  0.00    -0.270 OA
ATOM      7  N   UNL     1      -4.126  -0.750  24.592  0.00  0.00    -0.309 N 
ATOM     18  C   UNL     1      -3.857   0.397  23.849  0.00  0.00    +0.244 C 
ATOM     29  H   UNL     1      -4.675  -0.692  25.442  0.00  0.00    +0.149 HD
BRANCH  18  19
ATOM     19  C   UNL     1      -4.458   1.659  24.347  0.00  0.00    +0.037 A 
ATOM     20  C   UNL     1      -5.411   1.626  25.366  0.00  0.00    +0.013 A 
ATOM     21  C   UNL     1      -4.070   2.881  23.796  0.00  0.00    +0.013 A 
ATOM     22  C   UNL     1      -5.975   2.813  25.833  0.00  0.00    +0.004 A 
ATOM     23  C   UNL     1      -4.635   4.068  24.263  0.00  0.00    +0.004 A 
ATOM     24  C   UNL     1      -5.587   4.034  25.282  0.00  0.00    -0.050 A 
ATOM     25  C   UNL     1      -6.191   5.303  25.781  0.00  0.00    +0.044 C 
ENDBRANCH  18  19
ENDBRANCH  17   7
ENDBRANCH  14  17
TORSDOF 8
ENDMDL
MODEL 3
REMARK VINA RESULT:      -3.5      1.679      3.608
REMARK  Name = 40777919
REMARK  9 active torsions:
REMARK  status: ('A' for Active; 'I' for Inactive)
REMARK    1  A    between atoms: O_2  and  C_12
REMARK    2  A    between atoms: O_3  and  C_13
REMARK    3  A    between atoms: N_6  and  C_8
REMARK    4  A    between atoms: N_7  and  C_17
REMARK    5  A    between atoms: C_11  and  C_15
REMARK    6  A    between atoms: C_14  and  C_17
REMARK    7  A    between atoms: C_15  and  C_16
REMARK    8  A    between atoms: C_18  and  C_19
REMARK    9  A    between atoms: C_24  and  C_25
REMARK                            x       y       z     vdW  Elec       q    Type
REMARK                         _______ _______ _______ _____ _____    ______ ____
ROOT
ATOM      1  O   UNL     1      -2.556   0.422  25.336  0.00  0.00    -0.366 OA
ATOM     11  C   UNL     1      -3.782  -0.293  25.612  0.00  0.00    +0.158 C 
ATOM     12  C   UNL     1      -3.555  -1.729  25.156  0.00  0.00    +0.175 C 
ATOM     13  C   UNL     1      -2.542  -1.551  24.045  0.00  0.00    +0.176 C 
ATOM     14  C   UNL     1      -1.668  -0.442  24.604  0.00  0.00    +0.167 C 
ENDROOT
BRANCH  12   2
ATOM      2  O   UNL     1      -2.977  -2.452  26.242  0.00  0.00    -0.387 OA
ATOM     27  H   UNL     1      -2.519  -3.224  25.867  0.00  0.00    +0.210 HD
ENDBRANCH  12   2
BRANCH  13   3
ATOM      3  O   UNL     1      -1.802  -2.721  23.769  0.00  0.00    -0.387 OA
ATOM     28  H   UNL     1      -2.254  -3.190  23.047  0.00  0.00    +0.210 HD
ENDBRANCH  13   3
BRANCH  11  15
ATOM     15  C   UNL     1      -4.906   0.402  24.855  0.00  0.00    +0.130 C 
BRANCH  15  16
ATOM      4  O   UNL     1      -5.897   2.526  25.463  0.00  0.00    -0.276 OA
ATOM      6  N   UNL     1      -3.681   2.469  24.774  0.00  0.00    -0.312 N 
ATOM     16  C   UNL     1      -4.913   1.904  25.072  0.00  0.00    +0.216 C 
ATOM     26  H   UNL     1      -2.914   1.875  24.466  0.00  0.00    +0.149 HD
BRANCH   6   8
ATOM      8  C   UNL     1      -3.428   3.876  24.898  0.00  0.00    +0.073 C 
ATOM      9  C   UNL     1      -2.999   4.474  26.205  0.00  0.00    +0.024 C 
ATOM     10  C   UNL     1      -2.033   4.403  25.059  0.00  0.00    +0.024 C 
ENDBRANCH   6   8
ENDBRANCH  15  16
ENDBRANCH  11  15
BRANCH  14  17
ATOM     17  C   UNL     1      -0.948   0.357  23.532  0.00  0.00    +0.138 C 
BRANCH  17   7
ATOM      5  O   UNL     1       0.963  -0.405  21.529  0.00  0.00    -0.270 OA
ATOM      7  N   UNL     1       0.474   0.275  23.693  0.00  0.00    -0.309 N 
ATOM     18  C   UNL     1       1.330  -0.105  22.663  0.00  0.00    +0.244 C 
ATOM     29  H   UNL     1       0.839   0.461  24.620  0.00  0.00    +0.149 HD
BRANCH  18  19
ATOM     19  C   UNL     1       2.775  -0.166  22.998  0.00  0.00    +0.037 A 
ATOM     20  C   UNL     1       3.317  -1.327  23.550  0.00  0.00    +0.013 A 
ATOM     21  C   UNL     1       3.593   0.939  22.760  0.00  0.00    +0.013 A 
ATOM     22  C   UNL     1       4.674  -1.383  23.864  0.00  0.00    +0.004 A 
ATOM     23  C   UNL     1       4.951   0.883  23.074  0.00  0.00    +0.004 A 
ATOM     24  C   UNL     1       5.491  -0.278  23.626  0.00  0.00    -0.050 A 
ATOM     25  C   UNL     1       6.943  -0.338  23.963  0.00  0.00    +0.044 C 
ENDBRANCH  18  19
ENDBRANCH  17   7
ENDBRANCH  14  17
TORSDOF 8
ENDMDL
MODEL 4
REMARK VINA RESULT:      -3.0      2.299      7.764
REMARK  Name = 40777919
REMARK  9 active torsions:
REMARK  status: ('A' for Active; 'I' for Inactive)
REMARK    1  A    between atoms: O_2  and  C_12
REMARK    2  A    between atoms: O_3  and  C_13
REMARK    3  A    between atoms: N_6  and  C_8
REMARK    4  A    between atoms: N_7  and  C_17
REMARK    5  A    between atoms: C_11  and  C_15
REMARK    6  A    between atoms: C_14  and  C_17
REMARK    7  A    between atoms: C_15  and  C_16
REMARK    8  A    between atoms: C_18  and  C_19
REMARK    9  A    between atoms: C_24  and  C_25
REMARK                            x       y       z     vdW  Elec       q    Type
REMARK                         _______ _______ _______ _____ _____    ______ ____
ROOT
ATOM      1  O   UNL     1      -1.097  -2.158  23.549  0.00  0.00    -0.366 OA
ATOM     11  C   UNL     1       0.081  -1.450  24.000  0.00  0.00    +0.158 C 
ATOM     12  C   UNL     1      -0.152  -1.122  25.471  0.00  0.00    +0.175 C 
ATOM     13  C   UNL     1      -1.661  -1.021  25.536  0.00  0.00    +0.176 C 
ATOM     14  C   UNL     1      -2.082  -2.138  24.597  0.00  0.00    +0.167 C 
ENDROOT
BRANCH  12   2
ATOM      2  O   UNL     1       0.306  -2.227  26.249  0.00  0.00    -0.387 OA
ATOM     27  H   UNL     1      -0.460  -2.578  26.735  0.00  0.00    +0.210 HD
ENDBRANCH  12   2
BRANCH  13   3
ATOM      3  O   UNL     1      -2.178  -1.201  26.837  0.00  0.00    -0.387 OA
ATOM     28  H   UNL     1      -2.732  -0.428  27.042  0.00  0.00    +0.210 HD
ENDBRANCH  13   3
BRANCH  11  15
ATOM     15  C   UNL     1       0.240  -0.209  23.131  0.00  0.00    +0.130 C 
BRANCH  15  16
ATOM      4  O   UNL     1       1.646  -0.342  21.164  0.00  0.00    -0.276 OA
ATOM      6  N   UNL     1       2.631   0.016  23.236  0.00  0.00    -0.312 N 
ATOM     16  C   UNL     1       1.558  -0.190  22.380  0.00  0.00    +0.216 C 
ATOM     26  H   UNL     1       2.466   0.143  24.231  0.00  0.00    +0.149 HD
BRANCH   6   8
ATOM      8  C   UNL     1       3.987   0.075  22.771  0.00  0.00    +0.073 C 
ATOM      9  C   UNL     1       5.020   0.887  23.495  0.00  0.00    +0.024 C 
ATOM     10  C   UNL     1       5.095  -0.611  23.514  0.00  0.00    +0.024 C 
ENDBRANCH   6   8
ENDBRANCH  15  16
ENDBRANCH  11  15
BRANCH  14  17
ATOM     17  C   UNL     1      -3.462  -1.933  23.996  0.00  0.00    +0.138 C 
BRANCH  17   7
ATOM      5  O   UNL     1      -2.897   0.621  22.812  0.00  0.00    -0.270 OA
ATOM      7  N   UNL     1      -4.013  -0.669  24.385  0.00  0.00    -0.309 N 
ATOM     18  C   UNL     1      -3.682   0.526  23.753  0.00  0.00    +0.244 C 
ATOM     29  H   UNL     1      -4.630  -0.669  25.190  0.00  0.00    +0.149 HD
BRANCH  18  19
ATOM     19  C   UNL     1      -4.319   1.754  24.292  0.00  0.00    +0.037 A 
ATOM     20  C   UNL     1      -5.446   1.656  25.109  0.00  0.00    +0.013 A 
ATOM     21  C   UNL     1      -3.790   3.007  23.982  0.00  0.00    +0.013 A 
ATOM     22  C   UNL     1      -6.044   2.811  25.613  0.00  0.00    +0.004 A 
ATOM     23  C   UNL     1      -4.388   4.162  24.487  0.00  0.00    +0.004 A 
ATOM     24  C   UNL     1      -5.515   4.064  25.303  0.00  0.00    -0.050 A 
ATOM     25  C   UNL     1      -6.154   5.297  25.843  0.00  0.00    +0.044 C 
ENDBRANCH  18  19
ENDBRANCH  17   7
ENDBRANCH  14  17
TORSDOF 8
ENDMDL
MODEL 5
REMARK VINA RESULT:      -2.5      3.311      5.654
REMARK  Name = 40777919
REMARK  9 active torsions:
REMARK  status: ('A' for Active; 'I' for Inactive)
REMARK    1  A    between atoms: O_2  and  C_12
REMARK    2  A    between atoms: O_3  and  C_13
REMARK    3  A    between atoms: N_6  and  C_8
REMARK    4  A    between atoms: N_7  and  C_17
REMARK    5  A    between atoms: C_11  and  C_15
REMARK    6  A    between atoms: C_14  and  C_17
REMARK    7  A    between atoms: C_15  and  C_16
REMARK    8  A    between atoms: C_18  and  C_19
REMARK    9  A    between atoms: C_24  and  C_25
REMARK                            x       y       z     vdW  Elec       q    Type
REMARK                         _______ _______ _______ _____ _____    ______ ____
ROOT
ATOM      1  O   UNL     1      -2.942  -1.390  25.803  0.00  0.00    -0.366 OA
ATOM     11  C   UNL     1      -3.978  -1.490  24.799  0.00  0.00    +0.158 C 
ATOM     12  C   UNL     1      -3.523  -2.564  23.818  0.00  0.00    +0.175 C 
ATOM     13  C   UNL     1      -2.015  -2.469  23.923  0.00  0.00    +0.176 C 
ATOM     14  C   UNL     1      -1.829  -2.211  25.408  0.00  0.00    +0.167 C 
ENDROOT
BRANCH  12   2
ATOM      2  O   UNL     1      -3.975  -3.827  24.303  0.00  0.00    -0.387 OA
ATOM     27  H   UNL     1      -3.259  -4.206  24.841  0.00  0.00    +0.210 HD
ENDBRANCH  12   2
BRANCH  13   3
ATOM      3  O   UNL     1      -1.350  -3.640  23.501  0.00  0.00    -0.387 OA
ATOM     28  H   UNL     1      -1.602  -4.355  24.110  0.00  0.00    +0.210 HD
ENDBRANCH  13   3
BRANCH  11  15
ATOM     15  C   UNL     1      -4.133  -0.119  24.153  0.00  0.00    +0.130 C 
BRANCH  15  16
ATOM      4  O   UNL     1      -5.529   0.656  25.972  0.00  0.00    -0.276 OA
ATOM      6  N   UNL     1      -4.146   2.171  24.885  0.00  0.00    -0.312 N 
ATOM     16  C   UNL     1      -4.693   0.916  25.111  0.00  0.00    +0.216 C 
ATOM     26  H   UNL     1      -3.448   2.294  24.155  0.00  0.00    +0.149 HD
BRANCH   6   8
ATOM      8  C   UNL     1      -4.512   3.322  25.660  0.00  0.00    +0.073 C 
ATOM      9  C   UNL     1      -4.662   4.670  25.021  0.00  0.00    +0.024 C 
ATOM     10  C   UNL     1      -5.870   3.944  25.533  0.00  0.00    +0.024 C 
ENDBRANCH   6   8
ENDBRANCH  15  16
ENDBRANCH  11  15
BRANCH  14  17
ATOM     17  C   UNL     1      -0.527  -1.501  25.738  0.00  0.00    +0.138 C 
BRANCH  17   7
ATOM      5  O   UNL     1       0.061   0.203  23.504  0.00  0.00    -0.270 OA
ATOM      7  N   UNL     1      -0.686  -0.078  25.683  0.00  0.00    -0.309 N 
ATOM     18  C   UNL     1      -0.375   0.673  24.553  0.00  0.00    +0.244 C 
ATOM     29  H   UNL     1      -0.994   0.380  26.533  0.00  0.00    +0.149 HD
BRANCH  18  19
ATOM     19  C   UNL     1      -0.570   2.140  24.664  0.00  0.00    +0.037 A 
ATOM     20  C   UNL     1      -0.276   2.969  23.580  0.00  0.00    +0.013 A 
ATOM     21  C   UNL     1      -1.050   2.691  25.852  0.00  0.00    +0.013 A 
ATOM     22  C   UNL     1      -0.459   4.347  23.686  0.00  0.00    +0.004 A 
ATOM     23  C   UNL     1      -1.233   4.071  25.958  0.00  0.00    +0.004 A 
ATOM     24  C   UNL     1      -0.938   4.898  24.875  0.00  0.00    -0.050 A 
ATOM     25  C   UNL     1      -1.134   6.372  24.987  0.00  0.00    +0.044 C 
ENDBRANCH  18  19
ENDBRANCH  17   7
ENDBRANCH  14  17
TORSDOF 8
ENDMDL
MODEL 6
REMARK VINA RESULT:      -2.0      1.651      6.083
REMARK  Name = 40777919
REMARK  9 active torsions:
REMARK  status: ('A' for Active; 'I' for Inactive)
REMARK    1  A    between atoms: O_2  and  C_12
REMARK    2  A    between atoms: O_3  and  C_13
REMARK    3  A    between atoms: N_6  and  C_8
REMARK    4  A    between atoms: N_7  and  C_17
REMARK    5  A    between atoms: C_11  and  C_15
REMARK    6  A    between atoms: C_14  and  C_17
REMARK    7  A    between atoms: C_15  and  C_16
REMARK    8  A    between atoms: C_18  and  C_19
REMARK    9  A    between atoms: C_24  and  C_25
REMARK                            x       y       z     vdW  Elec       q    Type
REMARK                         _______ _______ _______ _____ _____    ______ ____
ROOT
ATOM      1  O   UNL     1      -2.143   3.576  26.731  0.00  0.00    -0.366 OA
ATOM     11  C   UNL     1      -0.886   3.525  26.017  0.00  0.00    +0.158 C 
ATOM     12  C   UNL     1      -1.108   4.267  24.704  0.00  0.00    +0.175 C 
ATOM     13  C   UNL     1      -2.587   4.049  24.464  0.00  0.00    +0.176 C 
ATOM     14  C   UNL     1      -3.143   4.154  25.874  0.00  0.00    +0.167 C 
ENDROOT
BRANCH  12   2
ATOM      2  O   UNL     1      -0.841   5.651  24.926  0.00  0.00    -0.387 OA
ATOM     27  H   UNL     1      -1.090   6.129  24.118  0.00  0.00    +0.210 HD
ENDBRANCH  12   2
BRANCH  13   3
ATOM      3  O   UNL     1      -3.160   5.003  23.597  0.00  0.00    -0.387 OA
ATOM     28  H   UNL     1      -4.033   5.239  23.956  0.00  0.00    +0.210 HD
ENDBRANCH  13   3
BRANCH  11  15
ATOM     15  C   UNL     1      -0.522   2.059  25.819  0.00  0.00    +0.130 C 
BRANCH  15  16
ATOM      4  O   UNL     1      -0.930   1.642  23.469  0.00  0.00    -0.276 OA
ATOM      6  N   UNL     1       1.252   1.598  24.262  0.00  0.00    -0.312 N 
ATOM     16  C   UNL     1      -0.122   1.747  24.389  0.00  0.00    +0.216 C 
ATOM     26  H   UNL     1       1.849   1.714  25.077  0.00  0.00    +0.149 HD
BRANCH   6   8
ATOM      8  C   UNL     1       1.882   1.299  23.009  0.00  0.00    +0.073 C 
ATOM      9  C   UNL     1       3.338   0.941  22.939  0.00  0.00    +0.024 C 
ATOM     10  C   UNL     1       2.295  -0.100  22.661  0.00  0.00    +0.024 C 
ENDBRANCH   6   8
ENDBRANCH  15  16
ENDBRANCH  11  15
BRANCH  14  17
ATOM     17  C   UNL     1      -4.460   3.421  26.060  0.00  0.00    +0.138 C 
BRANCH  17   7
ATOM      5  O   UNL     1      -4.110   2.036  23.569  0.00  0.00    -0.270 OA
ATOM      7  N   UNL     1      -4.296   2.009  25.882  0.00  0.00    -0.309 N 
ATOM     18  C   UNL     1      -4.130   1.419  24.632  0.00  0.00    +0.244 C 
ATOM     29  H   UNL     1      -4.354   1.434  26.715  0.00  0.00    +0.149 HD
BRANCH  18  19
ATOM     19  C   UNL     1      -3.999  -0.060  24.614  0.00  0.00    +0.037 A 
ATOM     20  C   UNL     1      -3.405  -0.722  25.689  0.00  0.00    +0.013 A 
ATOM     21  C   UNL     1      -4.469  -0.788  23.521  0.00  0.00    +0.013 A 
ATOM     22  C   UNL     1      -3.281  -2.110  25.670  0.00  0.00    +0.004 A 
ATOM     23  C   UNL     1      -4.346  -2.177  23.503  0.00  0.00    +0.004 A 
ATOM     24  C   UNL     1      -3.752  -2.839  24.578  0.00  0.00    -0.050 A 
ATOM     25  C   UNL     1      -3.619  -4.324  24.559  0.00  0.00    +0.044 C 
ENDBRANCH  18  19
ENDBRANCH  17   7
ENDBRANCH  14  17
TORSDOF 8
ENDMDL
MODEL 7
REMARK VINA RESULT:      -1.8      2.036      4.381
REMARK  Name = 40777919
REMARK  9 active torsions:
REMARK  status: ('A' for Active; 'I' for Inactive)
REMARK    1  A    between atoms: O_2  and  C_12
REMARK    2  A    between atoms: O_3  and  C_13
REMARK    3  A    between atoms: N_6  and  C_8
REMARK    4  A    between atoms: N_7  and  C_17
REMARK    5  A    between atoms: C_11  and  C_15
REMARK    6  A    between atoms: C_14  and  C_17
REMARK    7  A    between atoms: C_15  and  C_16
REMARK    8  A    between atoms: C_18  and  C_19
REMARK    9  A    between atoms: C_24  and  C_25
REMARK                            x       y       z     vdW  Elec       q    Type
REMARK                         _______ _______ _______ _____ _____    ______ ____
ROOT
ATOM      1  O   UNL     1      -4.075  -0.357  25.609  0.00  0.00    -0.366 OA
ATOM     11  C   UNL     1      -4.666  -0.448  24.293  0.00  0.00    +0.158 C 
ATOM     12  C   UNL     1      -4.069  -1.688  23.638  0.00  0.00    +0.175 C 
ATOM     13  C   UNL     1      -2.715  -1.777  24.310  0.00  0.00    +0.176 C 
ATOM     14  C   UNL     1      -3.051  -1.359  25.731  0.00  0.00    +0.167 C 
ENDROOT
BRANCH  12   2
ATOM      2  O   UNL     1      -4.875  -2.810  23.997  0.00  0.00    -0.387 OA
ATOM     27  H   UNL     1      -4.344  -3.375  24.583  0.00  0.00    +0.210 HD
ENDBRANCH  12   2
BRANCH  13   3
ATOM      3  O   UNL     1      -2.149  -3.070  24.258  0.00  0.00    -0.387 OA
ATOM     28  H   UNL     1      -2.784  -3.684  24.663  0.00  0.00    +0.210 HD
ENDBRANCH  13   3
BRANCH  11  15
ATOM     15  C   UNL     1      -4.338   0.838  23.544  0.00  0.00    +0.130 C 
BRANCH  15  16
ATOM      4  O   UNL     1      -5.586   2.285  25.030  0.00  0.00    -0.276 OA
ATOM      6  N   UNL     1      -3.462   2.927  24.348  0.00  0.00    -0.312 N 
ATOM     16  C   UNL     1      -4.558   2.076  24.392  0.00  0.00    +0.216 C 
ATOM     26  H   UNL     1      -2.645   2.670  23.801  0.00  0.00    +0.149 HD
BRANCH   6   8
ATOM      8  C   UNL     1      -3.421   4.169  25.067  0.00  0.00    +0.073 C 
ATOM      9  C   UNL     1      -2.853   4.244  26.453  0.00  0.00    +0.024 C 
ATOM     10  C   UNL     1      -2.125   4.884  25.308  0.00  0.00    +0.024 C 
ENDBRANCH   6   8
ENDBRANCH  15  16
ENDBRANCH  11  15
BRANCH  14  17
ATOM     17  C   UNL     1      -1.865  -0.788  26.488  0.00  0.00    +0.138 C 
BRANCH  17   7
ATOM      5  O   UNL     1      -1.275   1.486  24.838  0.00  0.00    -0.270 OA
ATOM      7  N   UNL     1      -0.731  -0.627  25.627  0.00  0.00    -0.309 N 
ATOM     18  C   UNL     1      -0.522   0.515  24.859  0.00  0.00    +0.244 C 
ATOM     29  H   UNL     1      -0.095  -1.414  25.558  0.00  0.00    +0.149 HD
BRANCH  18  19
ATOM     19  C   UNL     1       0.688   0.517  23.998  0.00  0.00    +0.037 A 
ATOM     20  C   UNL     1       1.580   1.589  24.049  0.00  0.00    +0.013 A 
ATOM     21  C   UNL     1       0.933  -0.554  23.139  0.00  0.00    +0.013 A 
ATOM     22  C   UNL     1       2.716   1.590  23.239  0.00  0.00    +0.004 A 
ATOM     23  C   UNL     1       2.070  -0.553  22.329  0.00  0.00    +0.004 A 
ATOM     24  C   UNL     1       2.961   0.519  22.380  0.00  0.00    -0.050 A 
ATOM     25  C   UNL     1       4.175   0.520  21.514  0.00  0.00    +0.044 C 
ENDBRANCH  18  19
ENDBRANCH  17   7
ENDBRANCH  14  17
TORSDOF 8
ENDMDL
MODEL 8
REMARK VINA RESULT:      -1.3      3.598      6.416
REMARK  Name = 40777919
REMARK  9 active torsions:
REMARK  status: ('A' for Active; 'I' for Inactive)
REMARK    1  A    between atoms: O_2  and  C_12
REMARK    2  A    between atoms: O_3  and  C_13
REMARK    3  A    between atoms: N_6  and  C_8
REMARK    4  A    between atoms: N_7  and  C_17
REMARK    5  A    between atoms: C_11  and  C_15
REMARK    6  A    between atoms: C_14  and  C_17
REMARK    7  A    between atoms: C_15  and  C_16
REMARK    8  A    between atoms: C_18  and  C_19
REMARK    9  A    between atoms: C_24  and  C_25
REMARK                            x       y       z     vdW  Elec       q    Type
REMARK                         _______ _______ _______ _____ _____    ______ ____
ROOT
ATOM      1  O   UNL     1      -2.128   4.021  26.374  0.00  0.00    -0.366 OA
ATOM     11  C   UNL     1      -0.991   4.264  25.514  0.00  0.00    +0.158 C 
ATOM     12  C   UNL     1      -1.503   5.107  24.352  0.00  0.00    +0.175 C 
ATOM     13  C   UNL     1      -2.952   4.676  24.264  0.00  0.00    +0.176 C 
ATOM     14  C   UNL     1      -3.314   4.522  25.731  0.00  0.00    +0.167 C 
ENDROOT
BRANCH  12   2
ATOM      2  O   UNL     1      -1.417   6.481  24.730  0.00  0.00    -0.387 OA
ATOM     27  H   UNL     1      -0.496   6.761  24.599  0.00  0.00    +0.210 HD
ENDBRANCH  12   2
BRANCH  13   3
ATOM      3  O   UNL     1      -3.777   5.617  23.611  0.00  0.00    -0.387 OA
ATOM     28  H   UNL     1      -3.543   6.497  23.951  0.00  0.00    +0.210 HD
ENDBRANCH  13   3
BRANCH  11  15
ATOM     15  C   UNL     1      -0.443   2.913  25.074  0.00  0.00    +0.130 C 
BRANCH  15  16
ATOM      4  O   UNL     1      -0.469   0.857  26.352  0.00  0.00    -0.276 OA
ATOM      6  N   UNL     1       0.714   2.680  27.168  0.00  0.00    -0.312 N 
ATOM     16  C   UNL     1      -0.086   2.019  26.247  0.00  0.00    +0.216 C 
ATOM     26  H   UNL     1       0.994   3.643  26.995  0.00  0.00    +0.149 HD
BRANCH   6   8
ATOM      8  C   UNL     1       1.188   2.053  28.368  0.00  0.00    +0.073 C 
ATOM      9  C   UNL     1       2.342   2.623  29.138  0.00  0.00    +0.024 C 
ATOM     10  C   UNL     1       0.957   2.674  29.714  0.00  0.00    +0.024 C 
ENDBRANCH   6   8
ENDBRANCH  15  16
ENDBRANCH  11  15
BRANCH  14  17
ATOM     17  C   UNL     1      -4.468   3.563  25.970  0.00  0.00    +0.138 C 
BRANCH  17   7
ATOM      5  O   UNL     1      -6.176   1.488  24.961  0.00  0.00    -0.270 OA
ATOM      7  N   UNL     1      -4.089   2.214  25.671  0.00  0.00    -0.309 N 
ATOM     18  C   UNL     1      -4.987   1.268  25.182  0.00  0.00    +0.244 C 
ATOM     29  H   UNL     1      -3.133   1.951  25.880  0.00  0.00    +0.149 HD
BRANCH  18  19
ATOM     19  C   UNL     1      -4.445  -0.094  24.947  0.00  0.00    +0.037 A 
ATOM     20  C   UNL     1      -4.706  -0.752  23.745  0.00  0.00    +0.013 A 
ATOM     21  C   UNL     1      -3.675  -0.716  25.929  0.00  0.00    +0.013 A 
ATOM     22  C   UNL     1      -4.198  -2.032  23.527  0.00  0.00    +0.004 A 
ATOM     23  C   UNL     1      -3.165  -1.996  25.710  0.00  0.00    +0.004 A 
ATOM     24  C   UNL     1      -3.427  -2.654  24.509  0.00  0.00    -0.050 A 
ATOM     25  C   UNL     1      -2.883  -4.023  24.275  0.00  0.00    +0.044 C 
ENDBRANCH  18  19
ENDBRANCH  17   7
ENDBRANCH  14  17
TORSDOF 8
ENDMDL
