MODEL 1
REMARK VINA RESULT:       0.4      0.000      0.000
REMARK  Name = 45361590
REMARK  15 active torsions:
REMARK  status: ('A' for Active; 'I' for Inactive)
REMARK    1  A    between atoms: O_1  and  C_11
REMARK    2  A    between atoms: O_4  and  C_26
REMARK    3  A    between atoms: O_4  and  C_30
REMARK    4  A    between atoms: O_5  and  C_33
REMARK    5  A    between atoms: O_5  and  C_34
REMARK    6  A    between atoms: N_6  and  C_15
REMARK    7  A    between atoms: N_7  and  C_25
REMARK    8  A    between atoms: C_8  and  C_18
REMARK    9  A    between atoms: C_10  and  C_20
REMARK   10  A    between atoms: C_14  and  C_19
REMARK   11  A    between atoms: C_19  and  C_21
REMARK   12  A    between atoms: C_19  and  C_22
REMARK   13  A    between atoms: C_23  and  C_24
REMARK   14  A    between atoms: C_24  and  C_26
REMARK   15  A    between atoms: C_25  and  C_27
REMARK                            x       y       z     vdW  Elec       q    Type
REMARK                         _______ _______ _______ _____ _____    ______ ____
ROOT
ATOM      8  C   UNL     1      -2.178  -0.994  25.215  0.00  0.00    -0.027 C 
ATOM      9  C   UNL     1      -2.292   0.127  24.129  0.00  0.00    +0.028 C 
ATOM     10  C   UNL     1      -0.876   0.709  23.778  0.00  0.00    +0.012 C 
ATOM     11  C   UNL     1      -3.370   1.179  24.516  0.00  0.00    +0.122 C 
ATOM     12  C   UNL     1      -3.571  -1.622  25.455  0.00  0.00    +0.007 C 
ATOM     13  C   UNL     1      -1.242  -2.109  24.694  0.00  0.00    +0.009 C 
ATOM     14  C   UNL     1      -4.735   0.536  24.856  0.00  0.00    +0.029 C 
ATOM     15  C   UNL     1       0.079  -0.431  23.326  0.00  0.00    +0.076 C 
ATOM     16  C   UNL     1      -4.620  -0.600  25.872  0.00  0.00    +0.007 C 
ATOM     17  C   UNL     1       0.139  -1.599  24.310  0.00  0.00    +0.023 C 
ATOM     18  C   UNL     1      -1.634  -0.461  26.564  0.00  0.00    +0.011 C 
ATOM     20  C   UNL     1      -0.910   1.799  22.692  0.00  0.00    +0.010 C 
ENDROOT
BRANCH  15   6
ATOM      3  O   UNL     1       1.605  -0.595  20.881  0.00  0.00    -0.276 OA
ATOM      6  N   UNL     1       1.426   0.053  23.104  0.00  0.00    -0.312 N 
ATOM     23  C   UNL     1       2.078  -0.074  21.888  0.00  0.00    +0.215 C 
ATOM     35  H   UNL     1       1.929   0.443  23.896  0.00  0.00    +0.149 HD
BRANCH  23  24
ATOM     24  C   UNL     1       3.475   0.522  21.942  0.00  0.00    +0.124 C 
BRANCH  24  26
ATOM     26  C   UNL     1       3.934   0.833  23.358  0.00  0.00    +0.168 C 
BRANCH  26   4
ATOM      4  O   UNL     1       5.302   0.470  23.501  0.00  0.00    -0.382 OA
ATOM     30  C   UNL     1       5.441  -0.802  24.120  0.00  0.00    +0.194 C 
ENDBRANCH  26   4
ENDBRANCH  24  26
ENDBRANCH  23  24
ENDBRANCH  15   6
BRANCH  11   1
ATOM      1  O   UNL     1      -3.597   2.057  23.412  0.00  0.00    -0.391 OA
ATOM     36  H   UNL     1      -2.920   1.876  22.738  0.00  0.00    +0.210 HD
ENDBRANCH  11   1
BRANCH  14  19
ATOM     19  C   UNL     1      -5.744   1.575  25.359  0.00  0.00    +0.077 C 
ATOM     21  C   UNL     1      -6.935   1.650  24.410  0.00  0.00    +0.017 C 
BRANCH  19  22
ATOM      2  O   UNL     1      -5.232   3.850  24.706  0.00  0.00    -0.276 OA
ATOM      7  N   UNL     1      -4.250   3.000  26.627  0.00  0.00    -0.311 N 
ATOM     22  C   UNL     1      -5.063   2.932  25.506  0.00  0.00    +0.216 C 
ATOM     37  H   UNL     1      -4.206   2.215  27.270  0.00  0.00    +0.149 HD
BRANCH   7  25
ATOM     25  C   UNL     1      -3.499   4.183  26.978  0.00  0.00    +0.139 C 
BRANCH  25  27
ATOM     27  C   UNL     1      -2.327   4.396  26.064  0.00  0.00    -0.030 A 
ATOM     28  C   UNL     1      -1.315   3.440  25.993  0.00  0.00    +0.009 A 
ATOM     29  C   UNL     1      -2.252   5.551  25.286  0.00  0.00    +0.009 A 
ATOM     31  C   UNL     1      -0.226   3.638  25.144  0.00  0.00    +0.046 A 
ATOM     32  C   UNL     1      -1.163   5.749  24.437  0.00  0.00    +0.046 A 
ATOM     33  C   UNL     1      -0.150   4.793  24.366  0.00  0.00    +0.120 A 
BRANCH  33   5
ATOM      5  O   UNL     1       0.912   4.986  23.537  0.00  0.00    -0.495 OA
ATOM     34  C   UNL     1       0.630   5.470  22.224  0.00  0.00    +0.277 C 
ENDBRANCH  33   5
ENDBRANCH  25  27
ENDBRANCH   7  25
ENDBRANCH  19  22
ENDBRANCH  14  19
TORSDOF 10
ENDMDL
MODEL 2
REMARK VINA RESULT:       1.2      1.215      1.751
REMARK  Name = 45361590
REMARK  15 active torsions:
REMARK  status: ('A' for Active; 'I' for Inactive)
REMARK    1  A    between atoms: O_1  and  C_11
REMARK    2  A    between atoms: O_4  and  C_26
REMARK    3  A    between atoms: O_4  and  C_30
REMARK    4  A    between atoms: O_5  and  C_33
REMARK    5  A    between atoms: O_5  and  C_34
REMARK    6  A    between atoms: N_6  and  C_15
REMARK    7  A    between atoms: N_7  and  C_25
REMARK    8  A    between atoms: C_8  and  C_18
REMARK    9  A    between atoms: C_10  and  C_20
REMARK   10  A    between atoms: C_14  and  C_19
REMARK   11  A    between atoms: C_19  and  C_21
REMARK   12  A    between atoms: C_19  and  C_22
REMARK   13  A    between atoms: C_23  and  C_24
REMARK   14  A    between atoms: C_24  and  C_26
REMARK   15  A    between atoms: C_25  and  C_27
REMARK                            x       y       z     vdW  Elec       q    Type
REMARK                         _______ _______ _______ _____ _____    ______ ____
ROOT
ATOM      8  C   UNL     1      -2.473  -1.190  24.905  0.00  0.00    -0.027 C 
ATOM      9  C   UNL     1      -2.511   0.070  23.977  0.00  0.00    +0.028 C 
ATOM     10  C   UNL     1      -1.099   0.754  23.905  0.00  0.00    +0.012 C 
ATOM     11  C   UNL     1      -3.692   1.011  24.351  0.00  0.00    +0.122 C 
ATOM     12  C   UNL     1      -3.845  -1.903  24.864  0.00  0.00    +0.007 C 
ATOM     13  C   UNL     1      -1.412  -2.179  24.370  0.00  0.00    +0.009 C 
ATOM     14  C   UNL     1      -5.048   0.270  24.410  0.00  0.00    +0.029 C 
ATOM     15  C   UNL     1      -0.027  -0.270  23.438  0.00  0.00    +0.076 C 
ATOM     16  C   UNL     1      -4.999  -0.994  25.268  0.00  0.00    +0.007 C 
ATOM     17  C   UNL     1      -0.025  -1.563  24.253  0.00  0.00    +0.023 C 
ATOM     18  C   UNL     1      -2.142  -0.832  26.376  0.00  0.00    +0.011 C 
ATOM     20  C   UNL     1      -1.057   1.985  22.983  0.00  0.00    +0.010 C 
ENDROOT
BRANCH  15   6
ATOM      3  O   UNL     1       1.937  -0.323  21.323  0.00  0.00    -0.276 OA
ATOM      6  N   UNL     1       1.306   0.295  23.471  0.00  0.00    -0.312 N 
ATOM     23  C   UNL     1       2.181   0.217  22.399  0.00  0.00    +0.215 C 
ATOM     35  H   UNL     1       1.627   0.709  24.342  0.00  0.00    +0.149 HD
BRANCH  23  24
ATOM     24  C   UNL     1       3.505   0.896  22.712  0.00  0.00    +0.124 C 
BRANCH  24  26
ATOM     26  C   UNL     1       4.709   0.091  22.251  0.00  0.00    +0.168 C 
BRANCH  26   4
ATOM      4  O   UNL     1       5.725   0.151  23.245  0.00  0.00    -0.382 OA
ATOM     30  C   UNL     1       5.397  -0.649  24.373  0.00  0.00    +0.194 C 
ENDBRANCH  26   4
ENDBRANCH  24  26
ENDBRANCH  23  24
ENDBRANCH  15   6
BRANCH  11   1
ATOM      1  O   UNL     1      -3.825   2.027  23.356  0.00  0.00    -0.391 OA
ATOM     36  H   UNL     1      -4.249   2.799  23.768  0.00  0.00    +0.210 HD
ENDBRANCH  11   1
BRANCH  14  19
ATOM     19  C   UNL     1      -6.175   1.183  24.906  0.00  0.00    +0.077 C 
ATOM     21  C   UNL     1      -7.031   1.644  23.732  0.00  0.00    +0.017 C 
BRANCH  19  22
ATOM      2  O   UNL     1      -5.798   2.564  26.860  0.00  0.00    -0.276 OA
ATOM      7  N   UNL     1      -4.805   3.181  24.857  0.00  0.00    -0.311 N 
ATOM     22  C   UNL     1      -5.586   2.370  25.664  0.00  0.00    +0.216 C 
ATOM     37  H   UNL     1      -4.636   2.922  23.890  0.00  0.00    +0.149 HD
BRANCH   7  25
ATOM     25  C   UNL     1      -4.142   4.368  25.348  0.00  0.00    +0.139 C 
BRANCH  25  27
ATOM     27  C   UNL     1      -2.697   4.114  25.664  0.00  0.00    -0.030 A 
ATOM     28  C   UNL     1      -1.705   4.884  25.059  0.00  0.00    +0.009 A 
ATOM     29  C   UNL     1      -2.347   3.106  26.563  0.00  0.00    +0.009 A 
ATOM     31  C   UNL     1      -0.361   4.648  25.352  0.00  0.00    +0.046 A 
ATOM     32  C   UNL     1      -1.003   2.870  26.856  0.00  0.00    +0.046 A 
ATOM     33  C   UNL     1      -0.011   3.641  26.251  0.00  0.00    +0.120 A 
BRANCH  33   5
ATOM      5  O   UNL     1       1.299   3.411  26.538  0.00  0.00    -0.495 OA
ATOM     34  C   UNL     1       1.592   2.810  27.799  0.00  0.00    +0.277 C 
ENDBRANCH  33   5
ENDBRANCH  25  27
ENDBRANCH   7  25
ENDBRANCH  19  22
ENDBRANCH  14  19
TORSDOF 10
ENDMDL
MODEL 3
REMARK VINA RESULT:       3.8      2.005      4.448
REMARK  Name = 45361590
REMARK  15 active torsions:
REMARK  status: ('A' for Active; 'I' for Inactive)
REMARK    1  A    between atoms: O_1  and  C_11
REMARK    2  A    between atoms: O_4  and  C_26
REMARK    3  A    between atoms: O_4  and  C_30
REMARK    4  A    between atoms: O_5  and  C_33
REMARK    5  A    between atoms: O_5  and  C_34
REMARK    6  A    between atoms: N_6  and  C_15
REMARK    7  A    between atoms: N_7  and  C_25
REMARK    8  A    between atoms: C_8  and  C_18
REMARK    9  A    between atoms: C_10  and  C_20
REMARK   10  A    between atoms: C_14  and  C_19
REMARK   11  A    between atoms: C_19  and  C_21
REMARK   12  A    between atoms: C_19  and  C_22
REMARK   13  A    between atoms: C_23  and  C_24
REMARK   14  A    between atoms: C_24  and  C_26
REMARK   15  A    between atoms: C_25  and  C_27
REMARK                            x       y       z     vdW  Elec       q    Type
REMARK                         _______ _______ _______ _____ _____    ______ ____
ROOT
ATOM      8  C   UNL     1      -2.257   1.858  22.535  0.00  0.00    -0.027 C 
ATOM      9  C   UNL     1      -1.615   2.356  23.873  0.00  0.00    +0.028 C 
ATOM     10  C   UNL     1      -0.554   1.325  24.401  0.00  0.00    +0.012 C 
ATOM     11  C   UNL     1      -2.706   2.778  24.899  0.00  0.00    +0.122 C 
ATOM     12  C   UNL     1      -3.210   2.944  21.985  0.00  0.00    +0.007 C 
ATOM     13  C   UNL     1      -1.139   1.639  21.490  0.00  0.00    +0.009 C 
ATOM     14  C   UNL     1      -3.719   3.787  24.309  0.00  0.00    +0.029 C 
ATOM     15  C   UNL     1       0.524   1.056  23.314  0.00  0.00    +0.076 C 
ATOM     16  C   UNL     1      -4.303   3.332  22.972  0.00  0.00    +0.007 C 
ATOM     17  C   UNL     1      -0.064   0.668  21.958  0.00  0.00    +0.023 C 
ATOM     18  C   UNL     1      -3.053   0.541  22.714  0.00  0.00    +0.011 C 
ATOM     20  C   UNL     1       0.140   1.767  25.702  0.00  0.00    +0.010 C 
ENDROOT
BRANCH  15   6
ATOM      3  O   UNL     1       3.057   0.412  22.090  0.00  0.00    -0.276 OA
ATOM      6  N   UNL     1       1.453   0.024  23.724  0.00  0.00    -0.312 N 
ATOM     23  C   UNL     1       2.651  -0.210  23.067  0.00  0.00    +0.215 C 
ATOM     35  H   UNL     1       1.179  -0.590  24.485  0.00  0.00    +0.149 HD
BRANCH  23  24
ATOM     24  C   UNL     1       3.425  -1.349  23.713  0.00  0.00    +0.124 C 
BRANCH  24  26
ATOM     26  C   UNL     1       4.926  -1.244  23.497  0.00  0.00    +0.168 C 
BRANCH  26   4
ATOM      4  O   UNL     1       5.501  -0.472  24.545  0.00  0.00    -0.382 OA
ATOM     30  C   UNL     1       5.891   0.816  24.089  0.00  0.00    +0.194 C 
ENDBRANCH  26   4
ENDBRANCH  24  26
ENDBRANCH  23  24
ENDBRANCH  15   6
BRANCH  11   1
ATOM      1  O   UNL     1      -2.088   3.424  26.013  0.00  0.00    -0.391 OA
ATOM     36  H   UNL     1      -2.416   4.338  26.053  0.00  0.00    +0.210 HD
ENDBRANCH  11   1
BRANCH  14  19
ATOM     19  C   UNL     1      -4.857   4.089  25.290  0.00  0.00    +0.077 C 
ATOM     21  C   UNL     1      -4.367   5.025  26.390  0.00  0.00    +0.017 C 
BRANCH  19  22
ATOM      2  O   UNL     1      -6.161   2.759  26.839  0.00  0.00    -0.276 OA
ATOM      7  N   UNL     1      -4.948   1.670  25.189  0.00  0.00    -0.311 N 
ATOM     22  C   UNL     1      -5.403   2.788  25.871  0.00  0.00    +0.216 C 
ATOM     37  H   UNL     1      -4.365   1.781  24.365  0.00  0.00    +0.149 HD
BRANCH   7  25
ATOM     25  C   UNL     1      -5.326   0.324  25.554  0.00  0.00    +0.139 C 
BRANCH  25  27
ATOM     27  C   UNL     1      -4.186  -0.641  25.398  0.00  0.00    -0.030 A 
ATOM     28  C   UNL     1      -3.020  -0.469  26.142  0.00  0.00    +0.009 A 
ATOM     29  C   UNL     1      -4.295  -1.709  24.507  0.00  0.00    +0.009 A 
ATOM     31  C   UNL     1      -1.961  -1.366  25.996  0.00  0.00    +0.046 A 
ATOM     32  C   UNL     1      -3.236  -2.605  24.362  0.00  0.00    +0.046 A 
ATOM     33  C   UNL     1      -2.069  -2.433  25.106  0.00  0.00    +0.120 A 
BRANCH  33   5
ATOM      5  O   UNL     1      -1.037  -3.308  24.965  0.00  0.00    -0.495 OA
ATOM     34  C   UNL     1       0.251  -2.869  25.396  0.00  0.00    +0.277 C 
ENDBRANCH  33   5
ENDBRANCH  25  27
ENDBRANCH   7  25
ENDBRANCH  19  22
ENDBRANCH  14  19
TORSDOF 10
ENDMDL
