MODEL 1
REMARK VINA RESULT:       2.1      0.000      0.000
REMARK  Name = 45783634
REMARK  8 active torsions:
REMARK  status: ('A' for Active; 'I' for Inactive)
REMARK    1  A    between atoms: O_3  and  C_28
REMARK    2  A    between atoms: O_3  and  C_29
REMARK    3  A    between atoms: N_4  and  C_10
REMARK    4  A    between atoms: N_5  and  C_20
REMARK    5  A    between atoms: N_9  and  C_26
REMARK    6  A    between atoms: C_11  and  C_19
REMARK    7  A    between atoms: C_21  and  C_22
REMARK    8  A    between atoms: C_27  and  C_28
REMARK                            x       y       z     vdW  Elec       q    Type
REMARK                         _______ _______ _______ _____ _____    ______ ____
ROOT
ATOM      1  O   UNL     1      -1.979   3.449  24.615  0.00  0.00    -0.336 OA
ATOM      6  N   UNL     1      -1.638   1.411  23.751  0.00  0.00    -0.190 NA
ATOM      7  N   UNL     1      -0.593   3.320  24.454  0.00  0.00    -0.056 NA
ATOM     19  C   UNL     1      -2.518   2.281  24.177  0.00  0.00    +0.245 A 
ATOM     21  C   UNL     1      -0.472   2.093  23.940  0.00  0.00    +0.204 A 
ENDROOT
BRANCH  21  22
ATOM      8  N   UNL     1       3.165   1.825  23.209  0.00  0.00    -0.239 NA
ATOM     22  C   UNL     1       0.799   1.518  23.606  0.00  0.00    +0.041 A 
ATOM     23  C   UNL     1       0.928   0.156  23.358  0.00  0.00    +0.016 A 
ATOM     24  C   UNL     1       1.938   2.303  23.519  0.00  0.00    +0.124 A 
ATOM     25  C   UNL     1       2.172  -0.373  23.036  0.00  0.00    +0.044 A 
ATOM     26  C   UNL     1       3.250   0.496  22.975  0.00  0.00    +0.125 A 
BRANCH  26   9
ATOM      2  O   UNL     1       5.594  -0.197  24.730  0.00  0.00    -0.273 OA
ATOM      9  N   UNL     1       4.499  -0.046  22.650  0.00  0.00    -0.268 N 
ATOM     27  C   UNL     1       5.557  -0.349  23.513  0.00  0.00    +0.244 C 
ATOM     30  H   UNL     1       4.630  -0.234  21.659  0.00  0.00    +0.156 HD
BRANCH  27  28
ATOM     28  C   UNL     1       6.749  -0.916  22.773  0.00  0.00    +0.255 C 
BRANCH  28   3
ATOM      3  O   UNL     1       7.742   0.085  22.674  0.00  0.00    -0.374 OA
ATOM     29  C   UNL     1       9.033  -0.413  23.012  0.00  0.00    +0.194 C 
ENDBRANCH  28   3
ENDBRANCH  27  28
ENDBRANCH  26   9
ENDBRANCH  21  22
BRANCH  19  11
ATOM      4  N   UNL     1      -4.486   1.452  25.453  0.00  0.00    -0.288 NA
ATOM     11  C   UNL     1      -4.026   2.167  24.247  0.00  0.00    +0.146 C 
ATOM     12  C   UNL     1      -5.807   1.993  25.775  0.00  0.00    +0.085 C 
ATOM     15  C   UNL     1      -4.723   3.538  24.314  0.00  0.00    +0.030 C 
ATOM     16  C   UNL     1      -5.600   3.478  25.557  0.00  0.00    +0.017 C 
BRANCH   4  10
ATOM      5  N   UNL     1      -3.236  -2.450  24.325  0.00  0.00    -0.305 NA
ATOM     10  C   UNL     1      -4.512   0.001  25.289  0.00  0.00    +0.060 C 
ATOM     13  C   UNL     1      -3.320  -0.636  26.007  0.00  0.00    +0.034 C 
ATOM     14  C   UNL     1      -4.495  -0.384  23.806  0.00  0.00    +0.034 C 
ATOM     17  C   UNL     1      -3.274  -2.147  25.763  0.00  0.00    +0.085 C 
ATOM     18  C   UNL     1      -4.411  -1.902  23.633  0.00  0.00    +0.085 C 
ATOM     20  C   UNL     1      -3.142  -3.894  24.109  0.00  0.00    +0.104 C 
ENDBRANCH   4  10
ENDBRANCH  19  11
TORSDOF 6
ENDMDL
MODEL 2
REMARK VINA RESULT:       5.7      1.411      3.649
REMARK  Name = 45783634
REMARK  8 active torsions:
REMARK  status: ('A' for Active; 'I' for Inactive)
REMARK    1  A    between atoms: O_3  and  C_28
REMARK    2  A    between atoms: O_3  and  C_29
REMARK    3  A    between atoms: N_4  and  C_10
REMARK    4  A    between atoms: N_5  and  C_20
REMARK    5  A    between atoms: N_9  and  C_26
REMARK    6  A    between atoms: C_11  and  C_19
REMARK    7  A    between atoms: C_21  and  C_22
REMARK    8  A    between atoms: C_27  and  C_28
REMARK                            x       y       z     vdW  Elec       q    Type
REMARK                         _______ _______ _______ _____ _____    ______ ____
ROOT
ATOM      1  O   UNL     1      -1.408   1.208  24.566  0.00  0.00    -0.336 OA
ATOM      6  N   UNL     1      -0.312  -0.711  24.202  0.00  0.00    -0.190 NA
ATOM      7  N   UNL     1      -0.105   1.568  24.198  0.00  0.00    -0.056 NA
ATOM     19  C   UNL     1      -1.444  -0.150  24.543  0.00  0.00    +0.245 A 
ATOM     21  C   UNL     1       0.479   0.382  23.999  0.00  0.00    +0.204 A 
ENDROOT
BRANCH  21  22
ATOM      8  N   UNL     1       3.805  -1.147  23.344  0.00  0.00    -0.239 NA
ATOM     22  C   UNL     1       1.851   0.255  23.601  0.00  0.00    +0.041 A 
ATOM     23  C   UNL     1       2.558   1.343  23.103  0.00  0.00    +0.016 A 
ATOM     24  C   UNL     1       2.514  -0.958  23.701  0.00  0.00    +0.124 A 
ATOM     25  C   UNL     1       3.887   1.189  22.725  0.00  0.00    +0.044 A 
ATOM     26  C   UNL     1       4.459  -0.065  22.864  0.00  0.00    +0.125 A 
BRANCH  26   9
ATOM      2  O   UNL     1       6.902  -0.686  24.508  0.00  0.00    -0.273 OA
ATOM      9  N   UNL     1       5.798  -0.210  22.482  0.00  0.00    -0.268 N 
ATOM     27  C   UNL     1       6.898  -0.500  23.295  0.00  0.00    +0.244 C 
ATOM     30  H   UNL     1       5.967  -0.084  21.487  0.00  0.00    +0.156 HD
BRANCH  27  28
ATOM     28  C   UNL     1       8.187  -0.567  22.504  0.00  0.00    +0.255 C 
BRANCH  28   3
ATOM      3  O   UNL     1       9.267  -0.272  23.367  0.00  0.00    -0.374 OA
ATOM     29  C   UNL     1       9.869   0.980  23.055  0.00  0.00    +0.194 C 
ENDBRANCH  28   3
ENDBRANCH  27  28
ENDBRANCH  26   9
ENDBRANCH  21  22
BRANCH  19  11
ATOM      4  N   UNL     1      -3.802  -0.587  23.879  0.00  0.00    -0.288 NA
ATOM     11  C   UNL     1      -2.765  -0.795  24.908  0.00  0.00    +0.146 C 
ATOM     12  C   UNL     1      -4.695  -1.743  23.953  0.00  0.00    +0.085 C 
ATOM     15  C   UNL     1      -2.658  -2.325  25.053  0.00  0.00    +0.030 C 
ATOM     16  C   UNL     1      -3.715  -2.887  24.113  0.00  0.00    +0.017 C 
BRANCH   4  10
ATOM      5  N   UNL     1      -4.743   3.315  25.275  0.00  0.00    -0.305 NA
ATOM     10  C   UNL     1      -4.522   0.675  24.034  0.00  0.00    +0.060 C 
ATOM     13  C   UNL     1      -3.631   1.848  23.620  0.00  0.00    +0.034 C 
ATOM     14  C   UNL     1      -4.995   0.862  25.479  0.00  0.00    +0.034 C 
ATOM     17  C   UNL     1      -4.334   3.186  23.869  0.00  0.00    +0.085 C 
ATOM     18  C   UNL     1      -5.653   2.231  25.667  0.00  0.00    +0.085 C 
ATOM     20  C   UNL     1      -5.367   4.618  25.508  0.00  0.00    +0.104 C 
ENDBRANCH   4  10
ENDBRANCH  19  11
TORSDOF 6
ENDMDL
MODEL 3
REMARK VINA RESULT:       6.0      1.984      4.041
REMARK  Name = 45783634
REMARK  8 active torsions:
REMARK  status: ('A' for Active; 'I' for Inactive)
REMARK    1  A    between atoms: O_3  and  C_28
REMARK    2  A    between atoms: O_3  and  C_29
REMARK    3  A    between atoms: N_4  and  C_10
REMARK    4  A    between atoms: N_5  and  C_20
REMARK    5  A    between atoms: N_9  and  C_26
REMARK    6  A    between atoms: C_11  and  C_19
REMARK    7  A    between atoms: C_21  and  C_22
REMARK    8  A    between atoms: C_27  and  C_28
REMARK                            x       y       z     vdW  Elec       q    Type
REMARK                         _______ _______ _______ _____ _____    ______ ____
ROOT
ATOM      1  O   UNL     1      -0.755  -0.182  22.734  0.00  0.00    -0.336 OA
ATOM      6  N   UNL     1       0.560  -0.880  24.407  0.00  0.00    -0.190 NA
ATOM      7  N   UNL     1       0.560   0.100  22.340  0.00  0.00    -0.056 NA
ATOM     19  C   UNL     1      -0.665  -0.757  23.962  0.00  0.00    +0.245 A 
ATOM     21  C   UNL     1       1.276  -0.342  23.378  0.00  0.00    +0.204 A 
ENDROOT
BRANCH  21  22
ATOM      8  N   UNL     1       4.823  -1.301  23.948  0.00  0.00    -0.239 NA
ATOM     22  C   UNL     1       2.707  -0.257  23.420  0.00  0.00    +0.041 A 
ATOM     23  C   UNL     1       3.371   0.890  23.000  0.00  0.00    +0.016 A 
ATOM     24  C   UNL     1       3.472  -1.316  23.882  0.00  0.00    +0.124 A 
ATOM     25  C   UNL     1       4.759   0.943  23.053  0.00  0.00    +0.044 A 
ATOM     26  C   UNL     1       5.432  -0.170  23.531  0.00  0.00    +0.125 A 
BRANCH  26   9
ATOM      2  O   UNL     1       7.510  -1.519  21.822  0.00  0.00    -0.273 OA
ATOM      9  N   UNL     1       6.830  -0.106  23.581  0.00  0.00    -0.268 N 
ATOM     27  C   UNL     1       7.751  -0.759  22.756  0.00  0.00    +0.244 C 
ATOM     30  H   UNL     1       7.197   0.494  24.315  0.00  0.00    +0.156 HD
BRANCH  27  28
ATOM     28  C   UNL     1       9.180  -0.439  23.136  0.00  0.00    +0.255 C 
BRANCH  28   3
ATOM      3  O   UNL     1       9.487   0.869  22.696  0.00  0.00    -0.374 OA
ATOM     29  C   UNL     1       9.840   1.724  23.778  0.00  0.00    +0.194 C 
ENDBRANCH  28   3
ENDBRANCH  27  28
ENDBRANCH  26   9
ENDBRANCH  21  22
BRANCH  19  11
ATOM      4  N   UNL     1      -3.134  -0.465  24.035  0.00  0.00    -0.288 NA
ATOM     11  C   UNL     1      -1.970  -1.162  24.615  0.00  0.00    +0.146 C 
ATOM     12  C   UNL     1      -4.274  -1.369  24.186  0.00  0.00    +0.085 C 
ATOM     15  C   UNL     1      -2.282  -2.659  24.440  0.00  0.00    +0.030 C 
ATOM     16  C   UNL     1      -3.667  -2.705  23.810  0.00  0.00    +0.017 C 
BRANCH   4  10
ATOM      5  N   UNL     1      -4.964   3.302  24.762  0.00  0.00    -0.305 NA
ATOM     10  C   UNL     1      -3.385   0.841  24.640  0.00  0.00    +0.060 C 
ATOM     13  C   UNL     1      -4.787   0.882  25.252  0.00  0.00    +0.034 C 
ATOM     14  C   UNL     1      -3.233   1.962  23.607  0.00  0.00    +0.034 C 
ATOM     17  C   UNL     1      -5.105   2.275  25.803  0.00  0.00    +0.085 C 
ATOM     18  C   UNL     1      -3.602   3.319  24.211  0.00  0.00    +0.085 C 
ATOM     20  C   UNL     1      -5.320   4.618  25.290  0.00  0.00    +0.104 C 
ENDBRANCH   4  10
ENDBRANCH  19  11
TORSDOF 6
ENDMDL
