MODEL 1
REMARK VINA RESULT:      -2.8      0.000      0.000
REMARK  Name = 45783539
REMARK  9 active torsions:
REMARK  status: ('A' for Active; 'I' for Inactive)
REMARK    1  A    between atoms: O_3  and  C_27
REMARK    2  A    between atoms: O_3  and  C_28
REMARK    3  A    between atoms: O_4  and  C_29
REMARK    4  A    between atoms: O_4  and  C_30
REMARK    5  A    between atoms: N_5  and  C_10
REMARK    6  A    between atoms: C_11  and  C_19
REMARK    7  A    between atoms: C_20  and  C_21
REMARK    8  A    between atoms: C_22  and  C_23
REMARK    9  A    between atoms: C_28  and  C_29
REMARK                            x       y       z     vdW  Elec       q    Type
REMARK                         _______ _______ _______ _____ _____    ______ ____
ROOT
ATOM      1  O   UNL     1      -7.227 -10.406   8.846  0.00  0.00    -0.336 OA
ATOM      7  N   UNL     1      -6.540  -9.900  10.917  0.00  0.00    -0.190 NA
ATOM      8  N   UNL     1      -5.830 -10.335   8.786  0.00  0.00    -0.056 NA
ATOM     19  C   UNL     1      -7.563 -10.137  10.135  0.00  0.00    +0.245 A 
ATOM     22  C   UNL     1      -5.499 -10.033  10.045  0.00  0.00    +0.204 A 
ENDROOT
BRANCH  22  23
ATOM      9  N   UNL     1      -2.382 -10.362  12.047  0.00  0.00    -0.221 NA
ATOM     23  C   UNL     1      -4.138  -9.856  10.465  0.00  0.00    +0.041 A 
ATOM     24  C   UNL     1      -3.267  -9.046   9.745  0.00  0.00    +0.018 A 
ATOM     25  C   UNL     1      -3.651 -10.487  11.598  0.00  0.00    +0.126 A 
ATOM     26  C   UNL     1      -1.954  -8.893  10.175  0.00  0.00    +0.068 A 
ATOM     27  C   UNL     1      -1.564  -9.566  11.322  0.00  0.00    +0.215 A 
BRANCH  27   3
ATOM      3  O   UNL     1      -0.275  -9.432  11.767  0.00  0.00    -0.474 OA
BRANCH   3  28
ATOM     28  C   UNL     1       0.435  -8.278  11.335  0.00  0.00    +0.258 C 
BRANCH  28  29
ATOM     29  C   UNL     1       0.873  -7.482  12.549  0.00  0.00    +0.200 C 
BRANCH  29   4
ATOM      4  O   UNL     1       1.444  -6.253  12.119  0.00  0.00    -0.380 OA
ATOM     30  C   UNL     1       2.862  -6.281  12.200  0.00  0.00    +0.194 C 
ENDBRANCH  29   4
ENDBRANCH  28  29
ENDBRANCH   3  28
ENDBRANCH  27   3
ENDBRANCH  22  23
BRANCH  19  11
ATOM      5  N   UNL     1      -9.356  -9.399  11.694  0.00  0.00    -0.288 NA
ATOM     11  C   UNL     1      -9.041 -10.153  10.464  0.00  0.00    +0.146 C 
ATOM     12  C   UNL     1     -10.719  -8.894  11.531  0.00  0.00    +0.085 C 
ATOM     13  C   UNL     1      -9.901  -9.494   9.370  0.00  0.00    +0.030 C 
ATOM     16  C   UNL     1     -10.709  -8.424  10.090  0.00  0.00    +0.017 C 
BRANCH   5  10
ATOM      2  O   UNL     1     -10.127  -9.834  17.779  0.00  0.00    -0.276 OA
ATOM      6  N   UNL     1      -9.041 -10.368  15.796  0.00  0.00    -0.302 N 
ATOM     10  C   UNL     1      -9.207 -10.194  12.910  0.00  0.00    +0.060 C 
ATOM     14  C   UNL     1     -10.448 -10.035  13.799  0.00  0.00    +0.038 C 
ATOM     15  C   UNL     1      -7.946  -9.764  13.670  0.00  0.00    +0.038 C 
ATOM     17  C   UNL     1     -10.272 -10.781  15.120  0.00  0.00    +0.109 C 
ATOM     18  C   UNL     1      -7.820 -10.515  14.994  0.00  0.00    +0.109 C 
ATOM     20  C   UNL     1      -9.092  -9.914  17.114  0.00  0.00    +0.212 C 
ATOM     21  C   UNL     1      -7.781  -9.504  17.738  0.00  0.00    +0.109 C 
ENDBRANCH   5  10
ENDBRANCH  19  11
TORSDOF 7
ENDMDL
