MODEL 1
REMARK VINA RESULT:      -5.0      0.000      0.000
REMARK  Name = 45360649
REMARK  8 active torsions:
REMARK  status: ('A' for Active; 'I' for Inactive)
REMARK    1  A    between atoms: N_6  and  C_10
REMARK    2  A    between atoms: N_6  and  C_18
REMARK    3  A    between atoms: N_7  and  C_22
REMARK    4  A    between atoms: C_11  and  C_16
REMARK    5  A    between atoms: C_16  and  C_17
REMARK    6  A    between atoms: C_17  and  C_19
REMARK    7  A    between atoms: C_18  and  C_20
REMARK    8  A    between atoms: C_22  and  C_25
REMARK                            x       y       z     vdW  Elec       q    Type
REMARK                         _______ _______ _______ _____ _____    ______ ____
ROOT
ATOM      2  O   UNL     1       1.023   2.638  26.893  0.00  0.00    -0.274 OA
ATOM      4  N   UNL     1      -1.830   2.208  24.657  0.00  0.00    -0.286 NA
ATOM      5  N   UNL     1      -0.416   4.187  26.056  0.00  0.00    -0.313 N 
ATOM      9  C   UNL     1      -0.829   1.769  25.637  0.00  0.00    +0.145 C 
ATOM     10  C   UNL     1      -0.514   0.771  23.445  0.00  0.00    +0.070 C 
ATOM     11  C   UNL     1      -2.508   3.451  25.009  0.00  0.00    +0.075 C 
ATOM     12  C   UNL     1       0.055   0.776  24.864  0.00  0.00    +0.048 C 
ATOM     13  C   UNL     1      -1.210   2.121  23.337  0.00  0.00    +0.104 C 
ATOM     14  C   UNL     1      -1.506   4.580  25.195  0.00  0.00    +0.123 C 
ATOM     15  C   UNL     1       0.016   2.894  26.227  0.00  0.00    +0.230 C 
ATOM     32  H   UNL     1       0.143   4.927  26.473  0.00  0.00    +0.149 HD
ENDROOT
BRANCH  10   6
ATOM      6  N   UNL     1       0.501   0.559  22.424  0.00  0.00    -0.307 NA
ATOM     33  H   UNL     1       0.045   0.485  21.515  0.00  0.00    +0.123 HD
BRANCH   6  18
ATOM     18  C   UNL     1       1.252  -0.663  22.680  0.00  0.00    +0.136 C 
BRANCH  18  20
ATOM      8  N   UNL     1       3.394  -1.366  23.587  0.00  0.00    -0.259 NA
ATOM     20  C   UNL     1       2.697  -0.381  22.977  0.00  0.00    +0.055 A 
ATOM     21  C   UNL     1       3.236   0.845  22.621  0.00  0.00    +0.024 A 
ATOM     23  C   UNL     1       4.577   1.074  22.908  0.00  0.00    +0.003 A 
ATOM     24  C   UNL     1       4.694  -1.107  23.850  0.00  0.00    +0.111 A 
ATOM     26  C   UNL     1       5.328   0.085  23.534  0.00  0.00    +0.020 A 
ENDBRANCH  18  20
ENDBRANCH   6  18
ENDBRANCH  10   6
BRANCH  11  16
ATOM     16  C   UNL     1      -3.593   3.840  24.004  0.00  0.00    +0.029 C 
BRANCH  16  17
ATOM     17  C   UNL     1      -4.942   4.011  24.688  0.00  0.00    +0.097 C 
BRANCH  17  19
ATOM      3  O   UNL     1      -5.962   2.685  26.439  0.00  0.00    -0.276 OA
ATOM      7  N   UNL     1      -5.173   1.622  24.532  0.00  0.00    -0.311 N 
ATOM     19  C   UNL     1      -5.422   2.724  25.336  0.00  0.00    +0.213 C 
ATOM     34  H   UNL     1      -4.695   1.739  23.643  0.00  0.00    +0.149 HD
BRANCH   7  22
ATOM     22  C   UNL     1      -5.537   0.282  24.926  0.00  0.00    +0.139 C 
BRANCH  22  25
ATOM      1  F   UNL     1      -1.099  -3.184  24.945  0.00  0.00    -0.205 F 
ATOM     25  C   UNL     1      -4.353  -0.642  24.932  0.00  0.00    -0.030 A 
ATOM     27  C   UNL     1      -4.193  -1.576  23.908  0.00  0.00    +0.008 A 
ATOM     28  C   UNL     1      -3.414  -0.568  25.960  0.00  0.00    +0.008 A 
ATOM     29  C   UNL     1      -3.095  -2.435  23.912  0.00  0.00    +0.038 A 
ATOM     30  C   UNL     1      -2.315  -1.427  25.964  0.00  0.00    +0.038 A 
ATOM     31  C   UNL     1      -2.155  -2.360  24.940  0.00  0.00    +0.123 A 
ENDBRANCH  22  25
ENDBRANCH   7  22
ENDBRANCH  17  19
ENDBRANCH  16  17
ENDBRANCH  11  16
TORSDOF 8
ENDMDL
MODEL 2
REMARK VINA RESULT:      -3.3      1.618      2.150
REMARK  Name = 45360649
REMARK  8 active torsions:
REMARK  status: ('A' for Active; 'I' for Inactive)
REMARK    1  A    between atoms: N_6  and  C_10
REMARK    2  A    between atoms: N_6  and  C_18
REMARK    3  A    between atoms: N_7  and  C_22
REMARK    4  A    between atoms: C_11  and  C_16
REMARK    5  A    between atoms: C_16  and  C_17
REMARK    6  A    between atoms: C_17  and  C_19
REMARK    7  A    between atoms: C_18  and  C_20
REMARK    8  A    between atoms: C_22  and  C_25
REMARK                            x       y       z     vdW  Elec       q    Type
REMARK                         _______ _______ _______ _____ _____    ______ ____
ROOT
ATOM      2  O   UNL     1      -0.547  -1.525  26.104  0.00  0.00    -0.274 OA
ATOM      4  N   UNL     1      -0.790   1.507  24.084  0.00  0.00    -0.286 NA
ATOM      5  N   UNL     1      -0.332   0.655  26.718  0.00  0.00    -0.313 N 
ATOM      9  C   UNL     1      -1.030   0.092  24.396  0.00  0.00    +0.145 C 
ATOM     10  C   UNL     1       0.450   0.406  22.496  0.00  0.00    +0.070 C 
ATOM     11  C   UNL     1      -1.072   2.420  25.185  0.00  0.00    +0.075 C 
ATOM     12  C   UNL     1      -0.237  -0.678  23.328  0.00  0.00    +0.048 C 
ATOM     13  C   UNL     1       0.524   1.591  23.450  0.00  0.00    +0.104 C 
ATOM     14  C   UNL     1      -0.246   2.063  26.411  0.00  0.00    +0.123 C 
ATOM     15  C   UNL     1      -0.595  -0.330  25.797  0.00  0.00    +0.230 C 
ATOM     32  H   UNL     1      -0.064   0.361  27.654  0.00  0.00    +0.149 HD
ENDROOT
BRANCH  10   6
ATOM      6  N   UNL     1       1.746  -0.005  21.981  0.00  0.00    -0.307 NA
ATOM     33  H   UNL     1       1.955  -0.943  22.322  0.00  0.00    +0.123 HD
BRANCH   6  18
ATOM     18  C   UNL     1       2.796   0.905  22.419  0.00  0.00    +0.136 C 
BRANCH  18  20
ATOM      8  N   UNL     1       3.710  -1.125  23.392  0.00  0.00    -0.259 NA
ATOM     20  C   UNL     1       3.917   0.180  23.107  0.00  0.00    +0.055 A 
ATOM     21  C   UNL     1       5.082   0.866  23.409  0.00  0.00    +0.024 A 
ATOM     23  C   UNL     1       6.102   0.167  24.045  0.00  0.00    +0.003 A 
ATOM     24  C   UNL     1       4.724  -1.771  24.010  0.00  0.00    +0.111 A 
ATOM     26  C   UNL     1       5.928  -1.178  24.354  0.00  0.00    +0.020 A 
ENDBRANCH  18  20
ENDBRANCH   6  18
ENDBRANCH  10   6
BRANCH  11  16
ATOM     16  C   UNL     1      -0.879   3.888  24.803  0.00  0.00    +0.029 C 
BRANCH  16  17
ATOM     17  C   UNL     1      -2.218   4.581  24.584  0.00  0.00    +0.097 C 
BRANCH  17  19
ATOM      3  O   UNL     1      -3.803   3.969  26.309  0.00  0.00    -0.276 OA
ATOM      7  N   UNL     1      -3.868   2.859  24.271  0.00  0.00    -0.311 N 
ATOM     19  C   UNL     1      -3.374   3.790  25.172  0.00  0.00    +0.213 C 
ATOM     34  H   UNL     1      -3.435   2.756  23.358  0.00  0.00    +0.149 HD
BRANCH   7  22
ATOM     22  C   UNL     1      -4.969   1.983  24.594  0.00  0.00    +0.139 C 
BRANCH  22  25
ATOM      1  F   UNL     1      -3.316  -3.376  25.105  0.00  0.00    -0.205 F 
ATOM     25  C   UNL     1      -4.528   0.554  24.731  0.00  0.00    -0.030 A 
ATOM     27  C   UNL     1      -4.453  -0.263  23.603  0.00  0.00    +0.008 A 
ATOM     28  C   UNL     1      -4.194   0.043  25.985  0.00  0.00    +0.008 A 
ATOM     29  C   UNL     1      -4.044  -1.590  23.729  0.00  0.00    +0.038 A 
ATOM     30  C   UNL     1      -3.785  -1.284  26.111  0.00  0.00    +0.038 A 
ATOM     31  C   UNL     1      -3.710  -2.101  24.983  0.00  0.00    +0.123 A 
ENDBRANCH  22  25
ENDBRANCH   7  22
ENDBRANCH  17  19
ENDBRANCH  16  17
ENDBRANCH  11  16
TORSDOF 8
ENDMDL
MODEL 3
REMARK VINA RESULT:      -2.5      2.152      6.038
REMARK  Name = 45360649
REMARK  8 active torsions:
REMARK  status: ('A' for Active; 'I' for Inactive)
REMARK    1  A    between atoms: N_6  and  C_10
REMARK    2  A    between atoms: N_6  and  C_18
REMARK    3  A    between atoms: N_7  and  C_22
REMARK    4  A    between atoms: C_11  and  C_16
REMARK    5  A    between atoms: C_16  and  C_17
REMARK    6  A    between atoms: C_17  and  C_19
REMARK    7  A    between atoms: C_18  and  C_20
REMARK    8  A    between atoms: C_22  and  C_25
REMARK                            x       y       z     vdW  Elec       q    Type
REMARK                         _______ _______ _______ _____ _____    ______ ____
ROOT
ATOM      2  O   UNL     1      -6.245   4.550  25.770  0.00  0.00    -0.274 OA
ATOM      4  N   UNL     1      -3.090   3.211  24.511  0.00  0.00    -0.286 NA
ATOM      5  N   UNL     1      -4.139   4.757  26.605  0.00  0.00    -0.313 N 
ATOM      9  C   UNL     1      -4.489   3.646  24.405  0.00  0.00    +0.145 C 
ATOM     10  C   UNL     1      -4.216   1.250  24.116  0.00  0.00    +0.070 C 
ATOM     11  C   UNL     1      -2.219   4.154  25.203  0.00  0.00    +0.075 C 
ATOM     12  C   UNL     1      -5.272   2.357  24.107  0.00  0.00    +0.048 C 
ATOM     13  C   UNL     1      -3.104   1.827  24.981  0.00  0.00    +0.104 C 
ATOM     14  C   UNL     1      -2.732   4.436  26.607  0.00  0.00    +0.123 C 
ATOM     15  C   UNL     1      -5.035   4.331  25.654  0.00  0.00    +0.230 C 
ATOM     32  H   UNL     1      -4.514   5.231  27.422  0.00  0.00    +0.149 HD
ENDROOT
BRANCH  10   6
ATOM      6  N   UNL     1      -4.728  -0.022  24.602  0.00  0.00    -0.307 NA
ATOM     33  H   UNL     1      -5.708   0.092  24.857  0.00  0.00    +0.123 HD
BRANCH   6  18
ATOM     18  C   UNL     1      -3.982  -0.474  25.769  0.00  0.00    +0.136 C 
BRANCH  18  20
ATOM      8  N   UNL     1      -1.611  -0.961  25.990  0.00  0.00    -0.259 NA
ATOM     20  C   UNL     1      -2.777  -1.285  25.386  0.00  0.00    +0.055 A 
ATOM     21  C   UNL     1      -2.912  -2.302  24.455  0.00  0.00    +0.024 A 
ATOM     23  C   UNL     1      -1.779  -3.035  24.123  0.00  0.00    +0.003 A 
ATOM     24  C   UNL     1      -0.531  -1.695  25.641  0.00  0.00    +0.111 A 
ATOM     26  C   UNL     1      -0.561  -2.733  24.723  0.00  0.00    +0.020 A 
ENDBRANCH  18  20
ENDBRANCH   6  18
ENDBRANCH  10   6
BRANCH  11  16
ATOM     16  C   UNL     1      -0.759   3.702  25.232  0.00  0.00    +0.029 C 
BRANCH  16  17
ATOM     17  C   UNL     1      -0.352   3.068  23.908  0.00  0.00    +0.097 C 
BRANCH  17  19
ATOM      3  O   UNL     1       0.371   1.148  25.194  0.00  0.00    -0.276 OA
ATOM      7  N   UNL     1       0.603   1.113  22.884  0.00  0.00    -0.311 N 
ATOM     19  C   UNL     1       0.239   1.682  24.095  0.00  0.00    +0.213 C 
ATOM     34  H   UNL     1       0.486   1.636  22.021  0.00  0.00    +0.149 HD
BRANCH   7  22
ATOM     22  C   UNL     1       1.190  -0.203  22.795  0.00  0.00    +0.139 C 
BRANCH  22  25
ATOM      1  F   UNL     1       6.745  -0.098  23.706  0.00  0.00    -0.205 F 
ATOM     25  C   UNL     1       2.672  -0.175  23.038  0.00  0.00    -0.030 A 
ATOM     27  C   UNL     1       3.307  -1.282  23.599  0.00  0.00    +0.008 A 
ATOM     28  C   UNL     1       3.412   0.959  22.703  0.00  0.00    +0.008 A 
ATOM     29  C   UNL     1       4.683  -1.257  23.825  0.00  0.00    +0.038 A 
ATOM     30  C   UNL     1       4.788   0.984  22.929  0.00  0.00    +0.038 A 
ATOM     31  C   UNL     1       5.424  -0.124  23.491  0.00  0.00    +0.123 A 
ENDBRANCH  22  25
ENDBRANCH   7  22
ENDBRANCH  17  19
ENDBRANCH  16  17
ENDBRANCH  11  16
TORSDOF 8
ENDMDL
MODEL 4
REMARK VINA RESULT:      -1.5      2.443      7.021
REMARK  Name = 45360649
REMARK  8 active torsions:
REMARK  status: ('A' for Active; 'I' for Inactive)
REMARK    1  A    between atoms: N_6  and  C_10
REMARK    2  A    between atoms: N_6  and  C_18
REMARK    3  A    between atoms: N_7  and  C_22
REMARK    4  A    between atoms: C_11  and  C_16
REMARK    5  A    between atoms: C_16  and  C_17
REMARK    6  A    between atoms: C_17  and  C_19
REMARK    7  A    between atoms: C_18  and  C_20
REMARK    8  A    between atoms: C_22  and  C_25
REMARK                            x       y       z     vdW  Elec       q    Type
REMARK                         _______ _______ _______ _____ _____    ______ ____
ROOT
ATOM      2  O   UNL     1      -4.460  -3.266  23.710  0.00  0.00    -0.274 OA
ATOM      4  N   UNL     1      -2.873  -0.660  25.713  0.00  0.00    -0.286 NA
ATOM      5  N   UNL     1      -2.262  -2.712  23.900  0.00  0.00    -0.313 N 
ATOM      9  C   UNL     1      -3.944  -1.599  25.358  0.00  0.00    +0.145 C 
ATOM     10  C   UNL     1      -4.578   0.725  25.049  0.00  0.00    +0.070 C 
ATOM     11  C   UNL     1      -1.539  -1.251  25.732  0.00  0.00    +0.075 C 
ATOM     12  C   UNL     1      -5.119  -0.701  24.937  0.00  0.00    +0.048 C 
ATOM     13  C   UNL     1      -3.072   0.545  24.912  0.00  0.00    +0.104 C 
ATOM     14  C   UNL     1      -1.199  -1.862  24.381  0.00  0.00    +0.123 C 
ATOM     15  C   UNL     1      -3.586  -2.575  24.242  0.00  0.00    +0.230 C 
ATOM     32  H   UNL     1      -2.034  -3.382  23.170  0.00  0.00    +0.149 HD
ENDROOT
BRANCH  10   6
ATOM      6  N   UNL     1      -5.146   1.630  24.062  0.00  0.00    -0.307 NA
ATOM     33  H   UNL     1      -4.535   1.654  23.246  0.00  0.00    +0.123 HD
BRANCH   6  18
ATOM     18  C   UNL     1      -5.274   2.977  24.601  0.00  0.00    +0.136 C 
BRANCH  18  20
ATOM      8  N   UNL     1      -3.127   3.785  23.800  0.00  0.00    -0.259 NA
ATOM     20  C   UNL     1      -3.936   3.605  24.868  0.00  0.00    +0.055 A 
ATOM     21  C   UNL     1      -3.602   3.963  26.164  0.00  0.00    +0.024 A 
ATOM     23  C   UNL     1      -2.357   4.543  26.378  0.00  0.00    +0.003 A 
ATOM     24  C   UNL     1      -1.925   4.352  24.047  0.00  0.00    +0.111 A 
ATOM     26  C   UNL     1      -1.496   4.745  25.304  0.00  0.00    +0.020 A 
ENDBRANCH  18  20
ENDBRANCH   6  18
ENDBRANCH  10   6
BRANCH  11  16
ATOM     16  C   UNL     1      -0.459  -0.263  26.174  0.00  0.00    +0.029 C 
BRANCH  16  17
ATOM     17  C   UNL     1      -0.633   1.086  25.491  0.00  0.00    +0.097 C 
BRANCH  17  19
ATOM      3  O   UNL     1       0.933   2.358  24.152  0.00  0.00    -0.276 OA
ATOM      7  N   UNL     1       0.537   0.133  23.619  0.00  0.00    -0.311 N 
ATOM     19  C   UNL     1       0.363   1.290  24.363  0.00  0.00    +0.213 C 
ATOM     34  H   UNL     1       0.004  -0.702  23.844  0.00  0.00    +0.149 HD
BRANCH   7  22
ATOM     22  C   UNL     1       1.434   0.071  22.489  0.00  0.00    +0.139 C 
BRANCH  22  25
ATOM      1  F   UNL     1       6.815  -0.343  24.094  0.00  0.00    -0.205 F 
ATOM     25  C   UNL     1       2.869  -0.039  22.917  0.00  0.00    -0.030 A 
ATOM     27  C   UNL     1       3.336  -1.220  23.494  0.00  0.00    +0.008 A 
ATOM     28  C   UNL     1       3.736   1.039  22.738  0.00  0.00    +0.008 A 
ATOM     29  C   UNL     1       4.668  -1.323  23.892  0.00  0.00    +0.038 A 
ATOM     30  C   UNL     1       5.068   0.936  23.135  0.00  0.00    +0.038 A 
ATOM     31  C   UNL     1       5.535  -0.244  23.713  0.00  0.00    +0.123 A 
ENDBRANCH  22  25
ENDBRANCH   7  22
ENDBRANCH  17  19
ENDBRANCH  16  17
ENDBRANCH  11  16
TORSDOF 8
ENDMDL
MODEL 5
REMARK VINA RESULT:      -1.5      2.304      3.901
REMARK  Name = 45360649
REMARK  8 active torsions:
REMARK  status: ('A' for Active; 'I' for Inactive)
REMARK    1  A    between atoms: N_6  and  C_10
REMARK    2  A    between atoms: N_6  and  C_18
REMARK    3  A    between atoms: N_7  and  C_22
REMARK    4  A    between atoms: C_11  and  C_16
REMARK    5  A    between atoms: C_16  and  C_17
REMARK    6  A    between atoms: C_17  and  C_19
REMARK    7  A    between atoms: C_18  and  C_20
REMARK    8  A    between atoms: C_22  and  C_25
REMARK                            x       y       z     vdW  Elec       q    Type
REMARK                         _______ _______ _______ _____ _____    ______ ____
ROOT
ATOM      2  O   UNL     1      -2.281  -2.231  24.733  0.00  0.00    -0.274 OA
ATOM      4  N   UNL     1      -0.642   1.015  24.406  0.00  0.00    -0.286 NA
ATOM      5  N   UNL     1      -1.372  -0.892  26.331  0.00  0.00    -0.313 N 
ATOM      9  C   UNL     1      -1.527  -0.078  23.984  0.00  0.00    +0.145 C 
ATOM     10  C   UNL     1       0.434   0.155  22.571  0.00  0.00    +0.070 C 
ATOM     11  C   UNL     1      -0.829   1.438  25.789  0.00  0.00    +0.075 C 
ATOM     12  C   UNL     1      -0.851  -0.659  22.732  0.00  0.00    +0.048 C 
ATOM     13  C   UNL     1       0.710   0.665  23.979  0.00  0.00    +0.104 C 
ATOM     14  C   UNL     1      -0.624   0.272  26.745  0.00  0.00    +0.123 C 
ATOM     15  C   UNL     1      -1.737  -1.164  25.035  0.00  0.00    +0.230 C 
ATOM     32  H   UNL     1      -1.537  -1.615  27.026  0.00  0.00    +0.149 HD
ENDROOT
BRANCH  10   6
ATOM      6  N   UNL     1       1.531  -0.616  22.008  0.00  0.00    -0.307 NA
ATOM     33  H   UNL     1       1.783  -1.358  22.661  0.00  0.00    +0.123 HD
BRANCH   6  18
ATOM     18  C   UNL     1       2.697   0.227  21.773  0.00  0.00    +0.136 C 
BRANCH  18  20
ATOM      8  N   UNL     1       3.849  -1.320  23.251  0.00  0.00    -0.259 NA
ATOM     20  C   UNL     1       3.808  -0.070  22.740  0.00  0.00    +0.055 A 
ATOM     21  C   UNL     1       4.716   0.928  23.054  0.00  0.00    +0.024 A 
ATOM     23  C   UNL     1       5.734   0.622  23.950  0.00  0.00    +0.003 A 
ATOM     24  C   UNL     1       4.852  -1.580  24.119  0.00  0.00    +0.111 A 
ATOM     26  C   UNL     1       5.811  -0.654  24.498  0.00  0.00    +0.020 A 
ENDBRANCH  18  20
ENDBRANCH   6  18
ENDBRANCH  10   6
BRANCH  11  16
ATOM     16  C   UNL     1       0.057   2.624  26.173  0.00  0.00    +0.029 C 
BRANCH  16  17
ATOM     17  C   UNL     1      -0.120   3.781  25.199  0.00  0.00    +0.097 C 
BRANCH  17  19
ATOM      3  O   UNL     1      -2.181   4.945  25.710  0.00  0.00    -0.276 OA
ATOM      7  N   UNL     1      -2.136   3.456  23.929  0.00  0.00    -0.311 N 
ATOM     19  C   UNL     1      -1.581   4.142  24.999  0.00  0.00    +0.213 C 
ATOM     34  H   UNL     1      -1.577   2.787  23.409  0.00  0.00    +0.149 HD
BRANCH   7  22
ATOM     22  C   UNL     1      -3.515   3.626  23.536  0.00  0.00    +0.139 C 
BRANCH  22  25
ATOM      1  F   UNL     1      -7.052   1.084  27.103  0.00  0.00    -0.205 F 
ATOM     25  C   UNL     1      -4.458   2.948  24.487  0.00  0.00    -0.030 A 
ATOM     27  C   UNL     1      -5.266   3.711  25.330  0.00  0.00    +0.008 A 
ATOM     28  C   UNL     1      -4.526   1.555  24.529  0.00  0.00    +0.008 A 
ATOM     29  C   UNL     1      -6.142   3.082  26.214  0.00  0.00    +0.038 A 
ATOM     30  C   UNL     1      -5.402   0.926  25.412  0.00  0.00    +0.038 A 
ATOM     31  C   UNL     1      -6.210   1.689  26.255  0.00  0.00    +0.123 A 
ENDBRANCH  22  25
ENDBRANCH   7  22
ENDBRANCH  17  19
ENDBRANCH  16  17
ENDBRANCH  11  16
TORSDOF 8
ENDMDL
MODEL 6
REMARK VINA RESULT:      -1.1      2.134      6.586
REMARK  Name = 45360649
REMARK  8 active torsions:
REMARK  status: ('A' for Active; 'I' for Inactive)
REMARK    1  A    between atoms: N_6  and  C_10
REMARK    2  A    between atoms: N_6  and  C_18
REMARK    3  A    between atoms: N_7  and  C_22
REMARK    4  A    between atoms: C_11  and  C_16
REMARK    5  A    between atoms: C_16  and  C_17
REMARK    6  A    between atoms: C_17  and  C_19
REMARK    7  A    between atoms: C_18  and  C_20
REMARK    8  A    between atoms: C_22  and  C_25
REMARK                            x       y       z     vdW  Elec       q    Type
REMARK                         _______ _______ _______ _____ _____    ______ ____
ROOT
ATOM      2  O   UNL     1      -3.614   4.944  27.317  0.00  0.00    -0.274 OA
ATOM      4  N   UNL     1      -2.693   3.236  24.225  0.00  0.00    -0.286 NA
ATOM      5  N   UNL     1      -1.700   3.840  26.778  0.00  0.00    -0.313 N 
ATOM      9  C   UNL     1      -3.448   4.195  25.042  0.00  0.00    +0.145 C 
ATOM     10  C   UNL     1      -4.820   2.372  24.208  0.00  0.00    +0.070 C 
ATOM     11  C   UNL     1      -1.251   3.274  24.434  0.00  0.00    +0.075 C 
ATOM     12  C   UNL     1      -4.890   3.662  25.027  0.00  0.00    +0.048 C 
ATOM     13  C   UNL     1      -3.365   1.944  24.344  0.00  0.00    +0.104 C 
ATOM     14  C   UNL     1      -0.909   3.017  25.894  0.00  0.00    +0.123 C 
ATOM     15  C   UNL     1      -2.943   4.339  26.475  0.00  0.00    +0.230 C 
ATOM     32  H   UNL     1      -1.366   3.962  27.730  0.00  0.00    +0.149 HD
ENDROOT
BRANCH  10   6
ATOM      6  N   UNL     1      -5.766   1.362  24.653  0.00  0.00    -0.307 NA
ATOM     33  H   UNL     1      -6.620   1.823  24.964  0.00  0.00    +0.123 HD
BRANCH   6  18
ATOM     18  C   UNL     1      -5.218   0.582  25.756  0.00  0.00    +0.136 C 
BRANCH  18  20
ATOM      8  N   UNL     1      -4.785  -1.108  24.065  0.00  0.00    -0.259 NA
ATOM     20  C   UNL     1      -4.436  -0.605  25.270  0.00  0.00    +0.055 A 
ATOM     21  C   UNL     1      -3.419  -1.116  26.060  0.00  0.00    +0.024 A 
ATOM     23  C   UNL     1      -2.714  -2.214  25.582  0.00  0.00    +0.003 A 
ATOM     24  C   UNL     1      -4.077  -2.176  23.634  0.00  0.00    +0.111 A 
ATOM     26  C   UNL     1      -3.042  -2.761  24.346  0.00  0.00    +0.020 A 
ENDBRANCH  18  20
ENDBRANCH   6  18
ENDBRANCH  10   6
BRANCH  11  16
ATOM     16  C   UNL     1      -0.492   2.315  23.516  0.00  0.00    +0.029 C 
BRANCH  16  17
ATOM     17  C   UNL     1      -0.991   0.886  23.680  0.00  0.00    +0.097 C 
BRANCH  17  19
ATOM      3  O   UNL     1       0.272  -1.149  24.037  0.00  0.00    -0.276 OA
ATOM      7  N   UNL     1       0.820   0.220  22.244  0.00  0.00    -0.311 N 
ATOM     19  C   UNL     1       0.087  -0.137  23.366  0.00  0.00    +0.213 C 
ATOM     34  H   UNL     1       0.619   1.091  21.761  0.00  0.00    +0.149 HD
BRANCH   7  22
ATOM     22  C   UNL     1       1.904  -0.590  21.741  0.00  0.00    +0.139 C 
BRANCH  22  25
ATOM      1  F   UNL     1       6.660   0.224  24.641  0.00  0.00    -0.205 F 
ATOM     25  C   UNL     1       3.172  -0.374  22.515  0.00  0.00    -0.030 A 
ATOM     27  C   UNL     1       3.809   0.867  22.476  0.00  0.00    +0.008 A 
ATOM     28  C   UNL     1       3.715  -1.412  23.271  0.00  0.00    +0.008 A 
ATOM     29  C   UNL     1       4.986   1.069  23.194  0.00  0.00    +0.038 A 
ATOM     30  C   UNL     1       4.893  -1.210  23.989  0.00  0.00    +0.038 A 
ATOM     31  C   UNL     1       5.529   0.031  23.950  0.00  0.00    +0.123 A 
ENDBRANCH  22  25
ENDBRANCH   7  22
ENDBRANCH  17  19
ENDBRANCH  16  17
ENDBRANCH  11  16
TORSDOF 8
ENDMDL
