MODEL 1
REMARK VINA RESULT:      -2.2      0.000      0.000
REMARK  Name = 38026982
REMARK  13 active torsions:
REMARK  status: ('A' for Active; 'I' for Inactive)
REMARK    1  A    between atoms: S_1  and  N_6
REMARK    2  A    between atoms: S_1  and  C_24
REMARK    3  A    between atoms: N_6  and  C_16
REMARK    4  A    between atoms: N_7  and  C_22
REMARK    5  A    between atoms: N_8  and  C_23
REMARK    6  A    between atoms: C_9  and  C_13
REMARK    7  A    between atoms: C_10  and  C_16
REMARK    8  A    between atoms: C_12  and  C_17
REMARK    9  A    between atoms: C_13  and  C_18
REMARK   10  A    between atoms: C_13  and  C_19
REMARK   11  A    between atoms: C_14  and  C_20
REMARK   12  A    between atoms: C_17  and  C_21
REMARK   13  A    between atoms: C_22  and  C_23
REMARK                            x       y       z     vdW  Elec       q    Type
REMARK                         _______ _______ _______ _____ _____    ______ ____
ROOT
ATOM      9  C   UNL     1      -2.763  -1.414  24.670  0.00  0.00    +0.000 C 
ATOM     10  C   UNL     1      -1.661  -0.601  23.946  0.00  0.00    +0.030 C 
ATOM     11  C   UNL     1      -4.126  -1.184  24.000  0.00  0.00    +0.012 C 
ATOM     12  C   UNL     1      -4.534   0.302  24.003  0.00  0.00    +0.023 C 
ATOM     14  C   UNL     1      -3.398   1.198  23.551  0.00  0.00    -0.073 C 
ATOM     15  C   UNL     1      -2.122   0.774  23.520  0.00  0.00    -0.023 C 
ATOM     20  C   UNL     1      -3.768   2.581  23.093  0.00  0.00    +0.039 C 
ENDROOT
BRANCH   9  13
ATOM     13  C   UNL     1      -2.442  -2.911  24.694  0.00  0.00    -0.013 C 
ATOM     18  C   UNL     1      -3.724  -3.732  24.599  0.00  0.00    +0.007 C 
ATOM     19  C   UNL     1      -1.485  -3.268  23.560  0.00  0.00    +0.007 C 
ENDBRANCH   9  13
BRANCH  10  16
ATOM     16  C   UNL     1      -0.407  -0.470  24.819  0.00  0.00    +0.113 C 
BRANCH  16   6
ATOM      6  N   UNL     1       0.764  -0.925  24.053  0.00  0.00    -0.189 NA
ATOM     34  H   UNL     1       1.352  -1.645  24.491  0.00  0.00    +0.148 HD
BRANCH   6   1
ATOM      1  S   UNL     1       1.491   0.102  22.906  0.00  0.00    +0.058 S 
ATOM      3  O   UNL     1       1.162   1.480  23.221  0.00  0.00    -0.153 OA
ATOM      4  O   UNL     1       1.244  -0.420  21.576  0.00  0.00    -0.153 OA
BRANCH   1  24
ATOM     24  C   UNL     1       3.208  -0.138  23.245  0.00  0.00    +0.105 A 
ATOM     29  C   UNL     1       3.663  -1.374  23.704  0.00  0.00    +0.028 A 
ATOM     30  C   UNL     1       4.110   0.910  23.057  0.00  0.00    +0.028 A 
ATOM     31  C   UNL     1       5.018  -1.563  23.975  0.00  0.00    +0.002 A 
ATOM     32  C   UNL     1       5.465   0.721  23.328  0.00  0.00    +0.002 A 
ATOM     33  C   UNL     1       5.919  -0.516  23.788  0.00  0.00    +0.000 A 
ENDBRANCH   1  24
ENDBRANCH   6   1
ENDBRANCH  16   6
ENDBRANCH  10  16
BRANCH  12  17
ATOM     17  C   UNL     1      -5.056   0.729  25.378  0.00  0.00    +0.103 C 
BRANCH  17  21
ATOM      2  O   UNL     1      -6.649   2.492  24.918  0.00  0.00    -0.276 OA
ATOM      7  N   UNL     1      -4.635   3.011  25.956  0.00  0.00    -0.314 N 
ATOM     21  C   UNL     1      -5.561   2.156  25.377  0.00  0.00    +0.214 C 
ATOM     35  H   UNL     1      -3.759   2.638  26.311  0.00  0.00    +0.149 HD
BRANCH   7  22
ATOM     22  C   UNL     1      -4.851   4.434  26.088  0.00  0.00    +0.119 C 
BRANCH  22  23
ATOM     23  C   UNL     1      -3.532   5.191  26.102  0.00  0.00    +0.103 C 
BRANCH  23   8
ATOM      5  O   UNL     1       0.247   3.462  25.518  0.00  0.00    -0.377 OA
ATOM      8  N   UNL     1      -2.456   4.348  25.582  0.00  0.00    -0.297 NA
ATOM     25  C   UNL     1      -1.393   5.167  24.985  0.00  0.00    +0.112 C 
ATOM     26  C   UNL     1      -1.901   3.499  26.645  0.00  0.00    +0.112 C 
ATOM     27  C   UNL     1      -0.277   4.266  24.462  0.00  0.00    +0.175 C 
ATOM     28  C   UNL     1      -0.773   2.637  26.084  0.00  0.00    +0.175 C 
ENDBRANCH  23   8
ENDBRANCH  22  23
ENDBRANCH   7  22
ENDBRANCH  17  21
ENDBRANCH  12  17
TORSDOF 10
ENDMDL
MODEL 2
REMARK VINA RESULT:      -1.8      2.128      6.627
REMARK  Name = 38026982
REMARK  13 active torsions:
REMARK  status: ('A' for Active; 'I' for Inactive)
REMARK    1  A    between atoms: S_1  and  N_6
REMARK    2  A    between atoms: S_1  and  C_24
REMARK    3  A    between atoms: N_6  and  C_16
REMARK    4  A    between atoms: N_7  and  C_22
REMARK    5  A    between atoms: N_8  and  C_23
REMARK    6  A    between atoms: C_9  and  C_13
REMARK    7  A    between atoms: C_10  and  C_16
REMARK    8  A    between atoms: C_12  and  C_17
REMARK    9  A    between atoms: C_13  and  C_18
REMARK   10  A    between atoms: C_13  and  C_19
REMARK   11  A    between atoms: C_14  and  C_20
REMARK   12  A    between atoms: C_17  and  C_21
REMARK   13  A    between atoms: C_22  and  C_23
REMARK                            x       y       z     vdW  Elec       q    Type
REMARK                         _______ _______ _______ _____ _____    ______ ____
ROOT
ATOM      9  C   UNL     1      -3.096   1.095  23.735  0.00  0.00    +0.000 C 
ATOM     10  C   UNL     1      -4.577   0.680  23.927  0.00  0.00    +0.030 C 
ATOM     11  C   UNL     1      -2.301  -0.046  23.082  0.00  0.00    +0.012 C 
ATOM     12  C   UNL     1      -2.341  -1.338  23.920  0.00  0.00    +0.023 C 
ATOM     14  C   UNL     1      -3.747  -1.670  24.376  0.00  0.00    -0.073 C 
ATOM     15  C   UNL     1      -4.737  -0.759  24.361  0.00  0.00    -0.023 C 
ATOM     20  C   UNL     1      -4.002  -3.086  24.810  0.00  0.00    +0.039 C 
ENDROOT
BRANCH   9  13
ATOM     13  C   UNL     1      -2.967   2.367  22.892  0.00  0.00    -0.013 C 
ATOM     18  C   UNL     1      -2.392   2.038  21.518  0.00  0.00    +0.007 C 
ATOM     19  C   UNL     1      -4.322   3.057  22.761  0.00  0.00    +0.007 C 
ENDBRANCH   9  13
BRANCH  10  16
ATOM     16  C   UNL     1      -5.281   1.597  24.934  0.00  0.00    +0.113 C 
BRANCH  16   6
ATOM      6  N   UNL     1      -4.306   2.050  25.938  0.00  0.00    -0.189 NA
ATOM     34  H   UNL     1      -4.004   1.359  26.636  0.00  0.00    +0.148 HD
BRANCH   6   1
ATOM      1  S   UNL     1      -4.216   3.697  26.363  0.00  0.00    +0.058 S 
ATOM      3  O   UNL     1      -4.144   3.815  27.808  0.00  0.00    -0.153 OA
ATOM      4  O   UNL     1      -5.220   4.435  25.621  0.00  0.00    -0.153 OA
BRANCH   1  24
ATOM     24  C   UNL     1      -2.644   4.155  25.700  0.00  0.00    +0.105 A 
ATOM     29  C   UNL     1      -1.561   3.281  25.803  0.00  0.00    +0.028 A 
ATOM     30  C   UNL     1      -2.483   5.393  25.076  0.00  0.00    +0.028 A 
ATOM     31  C   UNL     1      -0.319   3.644  25.283  0.00  0.00    +0.002 A 
ATOM     32  C   UNL     1      -1.241   5.756  24.557  0.00  0.00    +0.002 A 
ATOM     33  C   UNL     1      -0.158   4.882  24.660  0.00  0.00    +0.000 A 
ENDBRANCH   1  24
ENDBRANCH   6   1
ENDBRANCH  16   6
ENDBRANCH  10  16
BRANCH  12  17
ATOM     17  C   UNL     1      -1.382  -1.255  25.112  0.00  0.00    +0.103 C 
BRANCH  17  21
ATOM      2  O   UNL     1      -0.227   0.771  25.755  0.00  0.00    -0.276 OA
ATOM      7  N   UNL     1       0.364  -0.305  23.782  0.00  0.00    -0.314 N 
ATOM     21  C   UNL     1      -0.368  -0.144  24.949  0.00  0.00    +0.214 C 
ATOM     35  H   UNL     1       0.175  -1.100  23.177  0.00  0.00    +0.149 HD
BRANCH   7  22
ATOM     22  C   UNL     1       1.402   0.610  23.369  0.00  0.00    +0.119 C 
BRANCH  22  23
ATOM     23  C   UNL     1       2.179   0.062  22.181  0.00  0.00    +0.103 C 
BRANCH  23   8
ATOM      5  O   UNL     1       5.640  -0.464  24.496  0.00  0.00    -0.377 OA
ATOM      8  N   UNL     1       3.547  -0.267  22.577  0.00  0.00    -0.297 NA
ATOM     25  C   UNL     1       4.247   0.925  23.076  0.00  0.00    +0.112 C 
ATOM     26  C   UNL     1       3.554  -1.321  23.601  0.00  0.00    +0.112 C 
ATOM     27  C   UNL     1       5.667   0.554  23.495  0.00  0.00    +0.175 C 
ATOM     28  C   UNL     1       4.990  -1.639  24.008  0.00  0.00    +0.175 C 
ENDBRANCH  23   8
ENDBRANCH  22  23
ENDBRANCH   7  22
ENDBRANCH  17  21
ENDBRANCH  12  17
TORSDOF 10
ENDMDL
MODEL 3
REMARK VINA RESULT:      -1.3      2.168      6.302
REMARK  Name = 38026982
REMARK  13 active torsions:
REMARK  status: ('A' for Active; 'I' for Inactive)
REMARK    1  A    between atoms: S_1  and  N_6
REMARK    2  A    between atoms: S_1  and  C_24
REMARK    3  A    between atoms: N_6  and  C_16
REMARK    4  A    between atoms: N_7  and  C_22
REMARK    5  A    between atoms: N_8  and  C_23
REMARK    6  A    between atoms: C_9  and  C_13
REMARK    7  A    between atoms: C_10  and  C_16
REMARK    8  A    between atoms: C_12  and  C_17
REMARK    9  A    between atoms: C_13  and  C_18
REMARK   10  A    between atoms: C_13  and  C_19
REMARK   11  A    between atoms: C_14  and  C_20
REMARK   12  A    between atoms: C_17  and  C_21
REMARK   13  A    between atoms: C_22  and  C_23
REMARK                            x       y       z     vdW  Elec       q    Type
REMARK                         _______ _______ _______ _____ _____    ______ ____
ROOT
ATOM      9  C   UNL     1      -3.101   0.175  23.909  0.00  0.00    +0.000 C 
ATOM     10  C   UNL     1      -3.421   0.342  25.416  0.00  0.00    +0.030 C 
ATOM     11  C   UNL     1      -3.737  -1.114  23.367  0.00  0.00    +0.012 C 
ATOM     12  C   UNL     1      -3.241  -2.367  24.113  0.00  0.00    +0.023 C 
ATOM     14  C   UNL     1      -3.275  -2.177  25.616  0.00  0.00    -0.073 C 
ATOM     15  C   UNL     1      -3.369  -0.960  26.180  0.00  0.00    -0.023 C 
ATOM     20  C   UNL     1      -3.243  -3.423  26.457  0.00  0.00    +0.039 C 
ENDROOT
BRANCH   9  13
ATOM     13  C   UNL     1      -3.582   1.376  23.089  0.00  0.00    -0.013 C 
ATOM     18  C   UNL     1      -4.458   2.288  23.944  0.00  0.00    +0.007 C 
ATOM     19  C   UNL     1      -2.391   2.144  22.524  0.00  0.00    +0.007 C 
ENDBRANCH   9  13
BRANCH  10  16
ATOM     16  C   UNL     1      -2.477   1.357  26.072  0.00  0.00    +0.113 C 
BRANCH  16   6
ATOM      6  N   UNL     1      -1.096   1.067  25.660  0.00  0.00    -0.189 NA
ATOM     34  H   UNL     1      -0.773   0.098  25.772  0.00  0.00    +0.148 HD
BRANCH   6   1
ATOM      1  S   UNL     1       0.079   2.299  25.670  0.00  0.00    +0.058 S 
ATOM      3  O   UNL     1       0.919   2.170  24.493  0.00  0.00    -0.153 OA
ATOM      4  O   UNL     1       0.679   2.374  26.989  0.00  0.00    -0.153 OA
BRANCH   1  24
ATOM     24  C   UNL     1      -0.916   3.747  25.473  0.00  0.00    +0.105 A 
ATOM     29  C   UNL     1      -2.161   3.827  26.094  0.00  0.00    +0.028 A 
ATOM     30  C   UNL     1      -0.456   4.808  24.692  0.00  0.00    +0.028 A 
ATOM     31  C   UNL     1      -2.948   4.968  25.935  0.00  0.00    +0.002 A 
ATOM     32  C   UNL     1      -1.243   5.948  24.533  0.00  0.00    +0.002 A 
ATOM     33  C   UNL     1      -2.490   6.029  25.155  0.00  0.00    +0.000 A 
ENDBRANCH   1  24
ENDBRANCH   6   1
ENDBRANCH  16   6
ENDBRANCH  10  16
BRANCH  12  17
ATOM     17  C   UNL     1      -1.841  -2.773  23.643  0.00  0.00    +0.103 C 
BRANCH  17  21
ATOM      2  O   UNL     1      -0.503  -1.684  25.339  0.00  0.00    -0.276 OA
ATOM      7  N   UNL     1      -0.159  -1.162  23.101  0.00  0.00    -0.314 N 
ATOM     21  C   UNL     1      -0.774  -1.828  24.151  0.00  0.00    +0.214 C 
ATOM     35  H   UNL     1      -0.451  -1.351  22.146  0.00  0.00    +0.149 HD
BRANCH   7  22
ATOM     22  C   UNL     1       0.898  -0.195  23.292  0.00  0.00    +0.119 C 
BRANCH  22  23
ATOM     23  C   UNL     1       1.809  -0.128  22.075  0.00  0.00    +0.103 C 
BRANCH  23   8
ATOM      5  O   UNL     1       5.313  -0.230  24.382  0.00  0.00    -0.377 OA
ATOM      8  N   UNL     1       3.203  -0.313  22.474  0.00  0.00    -0.297 NA
ATOM     25  C   UNL     1       3.793   0.959  22.912  0.00  0.00    +0.112 C 
ATOM     26  C   UNL     1       3.310  -1.314  23.545  0.00  0.00    +0.112 C 
ATOM     27  C   UNL     1       5.243   0.738  23.335  0.00  0.00    +0.175 C 
ATOM     28  C   UNL     1       4.771  -1.481  23.954  0.00  0.00    +0.175 C 
ENDBRANCH  23   8
ENDBRANCH  22  23
ENDBRANCH   7  22
ENDBRANCH  17  21
ENDBRANCH  12  17
TORSDOF 10
ENDMDL
MODEL 4
REMARK VINA RESULT:      -0.8      2.242      6.733
REMARK  Name = 38026982
REMARK  13 active torsions:
REMARK  status: ('A' for Active; 'I' for Inactive)
REMARK    1  A    between atoms: S_1  and  N_6
REMARK    2  A    between atoms: S_1  and  C_24
REMARK    3  A    between atoms: N_6  and  C_16
REMARK    4  A    between atoms: N_7  and  C_22
REMARK    5  A    between atoms: N_8  and  C_23
REMARK    6  A    between atoms: C_9  and  C_13
REMARK    7  A    between atoms: C_10  and  C_16
REMARK    8  A    between atoms: C_12  and  C_17
REMARK    9  A    between atoms: C_13  and  C_18
REMARK   10  A    between atoms: C_13  and  C_19
REMARK   11  A    between atoms: C_14  and  C_20
REMARK   12  A    between atoms: C_17  and  C_21
REMARK   13  A    between atoms: C_22  and  C_23
REMARK                            x       y       z     vdW  Elec       q    Type
REMARK                         _______ _______ _______ _____ _____    ______ ____
ROOT
ATOM      9  C   UNL     1      -2.860  -1.547  24.542  0.00  0.00    +0.000 C 
ATOM     10  C   UNL     1      -3.284  -0.851  25.860  0.00  0.00    +0.030 C 
ATOM     11  C   UNL     1      -1.341  -1.773  24.520  0.00  0.00    +0.012 C 
ATOM     12  C   UNL     1      -0.554  -0.455  24.651  0.00  0.00    +0.023 C 
ATOM     14  C   UNL     1      -1.093   0.414  25.770  0.00  0.00    -0.073 C 
ATOM     15  C   UNL     1      -2.310   0.214  26.307  0.00  0.00    -0.023 C 
ATOM     20  C   UNL     1      -0.182   1.491  26.289  0.00  0.00    +0.039 C 
ENDROOT
BRANCH   9  13
ATOM     13  C   UNL     1      -3.586  -2.882  24.345  0.00  0.00    -0.013 C 
ATOM     18  C   UNL     1      -4.819  -2.692  23.466  0.00  0.00    +0.007 C 
ATOM     19  C   UNL     1      -2.642  -3.916  23.738  0.00  0.00    +0.007 C 
ENDBRANCH   9  13
BRANCH  10  16
ATOM     16  C   UNL     1      -4.686  -0.241  25.736  0.00  0.00    +0.113 C 
BRANCH  16   6
ATOM      6  N   UNL     1      -4.663   0.815  24.712  0.00  0.00    -0.189 NA
ATOM     34  H   UNL     1      -4.023   0.678  23.920  0.00  0.00    +0.148 HD
BRANCH   6   1
ATOM      1  S   UNL     1      -5.090   2.412  25.119  0.00  0.00    +0.058 S 
ATOM      3  O   UNL     1      -5.508   2.458  26.507  0.00  0.00    -0.153 OA
ATOM      4  O   UNL     1      -5.948   2.954  24.081  0.00  0.00    -0.153 OA
BRANCH   1  24
ATOM     24  C   UNL     1      -3.537   3.245  24.990  0.00  0.00    +0.105 A 
ATOM     29  C   UNL     1      -3.159   4.171  25.961  0.00  0.00    +0.028 A 
ATOM     30  C   UNL     1      -2.689   2.977  23.914  0.00  0.00    +0.028 A 
ATOM     31  C   UNL     1      -1.935   4.832  25.857  0.00  0.00    +0.002 A 
ATOM     32  C   UNL     1      -1.465   3.638  23.810  0.00  0.00    +0.002 A 
ATOM     33  C   UNL     1      -1.087   4.565  24.782  0.00  0.00    +0.000 A 
ENDBRANCH   1  24
ENDBRANCH   6   1
ENDBRANCH  16   6
ENDBRANCH  10  16
BRANCH  12  17
ATOM     17  C   UNL     1      -0.533   0.311  23.324  0.00  0.00    +0.103 C 
BRANCH  17  21
ATOM      2  O   UNL     1       1.264  -0.299  21.823  0.00  0.00    -0.276 OA
ATOM      7  N   UNL     1       1.604   1.383  23.391  0.00  0.00    -0.314 N 
ATOM     21  C   UNL     1       0.861   0.406  22.744  0.00  0.00    +0.214 C 
ATOM     35  H   UNL     1       1.181   1.919  24.144  0.00  0.00    +0.149 HD
BRANCH   7  22
ATOM     22  C   UNL     1       2.972   1.691  23.046  0.00  0.00    +0.119 C 
BRANCH  22  23
ATOM     23  C   UNL     1       3.519   0.702  22.027  0.00  0.00    +0.103 C 
BRANCH  23   8
ATOM      5  O   UNL     1       5.941  -1.207  24.875  0.00  0.00    -0.377 OA
ATOM      8  N   UNL     1       4.563  -0.125  22.632  0.00  0.00    -0.297 NA
ATOM     25  C   UNL     1       5.473   0.695  23.443  0.00  0.00    +0.112 C 
ATOM     26  C   UNL     1       3.972  -1.188  23.457  0.00  0.00    +0.112 C 
ATOM     27  C   UNL     1       6.545  -0.191  24.074  0.00  0.00    +0.175 C 
ATOM     28  C   UNL     1       5.078  -2.030  24.088  0.00  0.00    +0.175 C 
ENDBRANCH  23   8
ENDBRANCH  22  23
ENDBRANCH   7  22
ENDBRANCH  17  21
ENDBRANCH  12  17
TORSDOF 10
ENDMDL
MODEL 5
REMARK VINA RESULT:      -0.8      2.043      6.513
REMARK  Name = 38026982
REMARK  13 active torsions:
REMARK  status: ('A' for Active; 'I' for Inactive)
REMARK    1  A    between atoms: S_1  and  N_6
REMARK    2  A    between atoms: S_1  and  C_24
REMARK    3  A    between atoms: N_6  and  C_16
REMARK    4  A    between atoms: N_7  and  C_22
REMARK    5  A    between atoms: N_8  and  C_23
REMARK    6  A    between atoms: C_9  and  C_13
REMARK    7  A    between atoms: C_10  and  C_16
REMARK    8  A    between atoms: C_12  and  C_17
REMARK    9  A    between atoms: C_13  and  C_18
REMARK   10  A    between atoms: C_13  and  C_19
REMARK   11  A    between atoms: C_14  and  C_20
REMARK   12  A    between atoms: C_17  and  C_21
REMARK   13  A    between atoms: C_22  and  C_23
REMARK                            x       y       z     vdW  Elec       q    Type
REMARK                         _______ _______ _______ _____ _____    ______ ____
ROOT
ATOM      9  C   UNL     1      -4.062   3.217  25.517  0.00  0.00    +0.000 C 
ATOM     10  C   UNL     1      -3.850   4.256  24.387  0.00  0.00    +0.030 C 
ATOM     11  C   UNL     1      -3.216   3.582  26.746  0.00  0.00    +0.012 C 
ATOM     12  C   UNL     1      -1.712   3.647  26.419  0.00  0.00    +0.023 C 
ATOM     14  C   UNL     1      -1.444   4.438  25.154  0.00  0.00    -0.073 C 
ATOM     15  C   UNL     1      -2.414   4.711  24.264  0.00  0.00    -0.023 C 
ATOM     20  C   UNL     1      -0.043   4.947  24.958  0.00  0.00    +0.039 C 
ENDROOT
BRANCH   9  13
ATOM     13  C   UNL     1      -5.537   3.105  25.916  0.00  0.00    -0.013 C 
ATOM     18  C   UNL     1      -6.280   4.392  25.571  0.00  0.00    +0.007 C 
ATOM     19  C   UNL     1      -6.184   1.906  25.230  0.00  0.00    +0.007 C 
ENDBRANCH   9  13
BRANCH  10  16
ATOM     16  C   UNL     1      -4.328   3.708  23.036  0.00  0.00    +0.113 C 
BRANCH  16   6
ATOM      6  N   UNL     1      -4.195   2.244  23.035  0.00  0.00    -0.189 NA
ATOM     34  H   UNL     1      -4.827   1.720  23.654  0.00  0.00    +0.148 HD
BRANCH   6   1
ATOM      1  S   UNL     1      -2.710   1.519  22.624  0.00  0.00    +0.058 S 
ATOM      3  O   UNL     1      -1.623   2.315  23.162  0.00  0.00    -0.153 OA
ATOM      4  O   UNL     1      -2.727   1.164  21.217  0.00  0.00    -0.153 OA
BRANCH   1  24
ATOM     24  C   UNL     1      -2.782   0.007  23.537  0.00  0.00    +0.105 A 
ATOM     29  C   UNL     1      -1.609  -0.575  24.017  0.00  0.00    +0.028 A 
ATOM     30  C   UNL     1      -4.013  -0.606  23.775  0.00  0.00    +0.028 A 
ATOM     31  C   UNL     1      -1.665  -1.770  24.734  0.00  0.00    +0.002 A 
ATOM     32  C   UNL     1      -4.069  -1.801  24.492  0.00  0.00    +0.002 A 
ATOM     33  C   UNL     1      -2.895  -2.383  24.972  0.00  0.00    +0.000 A 
ENDBRANCH   1  24
ENDBRANCH   6   1
ENDBRANCH  16   6
ENDBRANCH  10  16
BRANCH  12  17
ATOM     17  C   UNL     1      -1.105   2.243  26.327  0.00  0.00    +0.103 C 
BRANCH  17  21
ATOM      2  O   UNL     1       1.258   2.735  26.505  0.00  0.00    -0.276 OA
ATOM      7  N   UNL     1       0.443   1.719  24.581  0.00  0.00    -0.314 N 
ATOM     21  C   UNL     1       0.330   2.274  25.847  0.00  0.00    +0.214 C 
ATOM     35  H   UNL     1      -0.386   1.360  24.114  0.00  0.00    +0.149 HD
BRANCH   7  22
ATOM     22  C   UNL     1       1.698   1.618  23.873  0.00  0.00    +0.119 C 
BRANCH  22  23
ATOM     23  C   UNL     1       1.718   0.400  22.960  0.00  0.00    +0.103 C 
BRANCH  23   8
ATOM      5  O   UNL     1       5.597  -0.789  24.034  0.00  0.00    -0.377 OA
ATOM      8  N   UNL     1       3.067  -0.161  22.893  0.00  0.00    -0.297 NA
ATOM     25  C   UNL     1       4.077   0.877  23.140  0.00  0.00    +0.112 C 
ATOM     26  C   UNL     1       3.223  -1.257  23.860  0.00  0.00    +0.112 C 
ATOM     27  C   UNL     1       5.474   0.265  23.078  0.00  0.00    +0.175 C 
ATOM     28  C   UNL     1       4.640  -1.818  23.781  0.00  0.00    +0.175 C 
ENDBRANCH  23   8
ENDBRANCH  22  23
ENDBRANCH   7  22
ENDBRANCH  17  21
ENDBRANCH  12  17
TORSDOF 10
ENDMDL
MODEL 6
REMARK VINA RESULT:      -0.7      1.200      2.376
REMARK  Name = 38026982
REMARK  13 active torsions:
REMARK  status: ('A' for Active; 'I' for Inactive)
REMARK    1  A    between atoms: S_1  and  N_6
REMARK    2  A    between atoms: S_1  and  C_24
REMARK    3  A    between atoms: N_6  and  C_16
REMARK    4  A    between atoms: N_7  and  C_22
REMARK    5  A    between atoms: N_8  and  C_23
REMARK    6  A    between atoms: C_9  and  C_13
REMARK    7  A    between atoms: C_10  and  C_16
REMARK    8  A    between atoms: C_12  and  C_17
REMARK    9  A    between atoms: C_13  and  C_18
REMARK   10  A    between atoms: C_13  and  C_19
REMARK   11  A    between atoms: C_14  and  C_20
REMARK   12  A    between atoms: C_17  and  C_21
REMARK   13  A    between atoms: C_22  and  C_23
REMARK                            x       y       z     vdW  Elec       q    Type
REMARK                         _______ _______ _______ _____ _____    ______ ____
ROOT
ATOM      9  C   UNL     1      -1.713  -0.550  25.200  0.00  0.00    +0.000 C 
ATOM     10  C   UNL     1      -1.359  -1.889  24.507  0.00  0.00    +0.030 C 
ATOM     11  C   UNL     1      -3.017  -0.689  26.000  0.00  0.00    +0.012 C 
ATOM     12  C   UNL     1      -4.204  -1.108  25.112  0.00  0.00    +0.023 C 
ATOM     14  C   UNL     1      -3.844  -2.263  24.199  0.00  0.00    -0.073 C 
ATOM     15  C   UNL     1      -2.567  -2.606  23.950  0.00  0.00    -0.023 C 
ATOM     20  C   UNL     1      -4.986  -3.044  23.612  0.00  0.00    +0.039 C 
ENDROOT
BRANCH   9  13
ATOM     13  C   UNL     1      -0.587  -0.071  26.122  0.00  0.00    -0.013 C 
ATOM     18  C   UNL     1      -0.627   1.447  26.266  0.00  0.00    +0.007 C 
ATOM     19  C   UNL     1      -0.693  -0.747  27.486  0.00  0.00    +0.007 C 
ENDBRANCH   9  13
BRANCH  10  16
ATOM     16  C   UNL     1      -0.331  -1.677  23.388  0.00  0.00    +0.113 C 
BRANCH  16   6
ATOM      6  N   UNL     1       0.793  -0.885  23.910  0.00  0.00    -0.189 NA
ATOM     34  H   UNL     1       0.800  -0.701  24.921  0.00  0.00    +0.148 HD
BRANCH   6   1
ATOM      1  S   UNL     1       1.609   0.215  22.899  0.00  0.00    +0.058 S 
ATOM      3  O   UNL     1       1.324   1.569  23.335  0.00  0.00    -0.153 OA
ATOM      4  O   UNL     1       1.397  -0.165  21.514  0.00  0.00    -0.153 OA
BRANCH   1  24
ATOM     24  C   UNL     1       3.300  -0.135  23.276  0.00  0.00    +0.105 A 
ATOM     29  C   UNL     1       3.668  -1.407  23.714  0.00  0.00    +0.028 A 
ATOM     30  C   UNL     1       4.266   0.862  23.140  0.00  0.00    +0.028 A 
ATOM     31  C   UNL     1       5.002  -1.682  24.016  0.00  0.00    +0.002 A 
ATOM     32  C   UNL     1       5.599   0.587  23.442  0.00  0.00    +0.002 A 
ATOM     33  C   UNL     1       5.968  -0.686  23.880  0.00  0.00    +0.000 A 
ENDBRANCH   1  24
ENDBRANCH   6   1
ENDBRANCH  16   6
ENDBRANCH  10  16
BRANCH  12  17
ATOM     17  C   UNL     1      -4.740   0.081  24.308  0.00  0.00    +0.103 C 
BRANCH  17  21
ATOM      2  O   UNL     1      -6.025   0.903  26.185  0.00  0.00    -0.276 OA
ATOM      7  N   UNL     1      -5.001   2.416  24.750  0.00  0.00    -0.314 N 
ATOM     21  C   UNL     1      -5.337   1.147  25.199  0.00  0.00    +0.214 C 
ATOM     35  H   UNL     1      -4.421   2.519  23.921  0.00  0.00    +0.149 HD
BRANCH   7  22
ATOM     22  C   UNL     1      -5.436   3.627  25.408  0.00  0.00    +0.119 C 
BRANCH  22  23
ATOM     23  C   UNL     1      -4.303   4.638  25.504  0.00  0.00    +0.103 C 
BRANCH  23   8
ATOM      5  O   UNL     1      -0.636   3.766  23.657  0.00  0.00    -0.377 OA
ATOM      8  N   UNL     1      -3.026   4.002  25.185  0.00  0.00    -0.297 NA
ATOM     25  C   UNL     1      -3.038   3.463  23.819  0.00  0.00    +0.112 C 
ATOM     26  C   UNL     1      -1.917   4.953  25.342  0.00  0.00    +0.112 C 
ATOM     27  C   UNL     1      -1.691   2.816  23.505  0.00  0.00    +0.175 C 
ATOM     28  C   UNL     1      -0.597   4.272  24.993  0.00  0.00    +0.175 C 
ENDBRANCH  23   8
ENDBRANCH  22  23
ENDBRANCH   7  22
ENDBRANCH  17  21
ENDBRANCH  12  17
TORSDOF 10
ENDMDL
MODEL 7
REMARK VINA RESULT:      -0.6      1.989      2.553
REMARK  Name = 38026982
REMARK  13 active torsions:
REMARK  status: ('A' for Active; 'I' for Inactive)
REMARK    1  A    between atoms: S_1  and  N_6
REMARK    2  A    between atoms: S_1  and  C_24
REMARK    3  A    between atoms: N_6  and  C_16
REMARK    4  A    between atoms: N_7  and  C_22
REMARK    5  A    between atoms: N_8  and  C_23
REMARK    6  A    between atoms: C_9  and  C_13
REMARK    7  A    between atoms: C_10  and  C_16
REMARK    8  A    between atoms: C_12  and  C_17
REMARK    9  A    between atoms: C_13  and  C_18
REMARK   10  A    between atoms: C_13  and  C_19
REMARK   11  A    between atoms: C_14  and  C_20
REMARK   12  A    between atoms: C_17  and  C_21
REMARK   13  A    between atoms: C_22  and  C_23
REMARK                            x       y       z     vdW  Elec       q    Type
REMARK                         _______ _______ _______ _____ _____    ______ ____
ROOT
ATOM      9  C   UNL     1      -2.946  -0.676  24.920  0.00  0.00    +0.000 C 
ATOM     10  C   UNL     1      -1.771  -0.331  23.972  0.00  0.00    +0.030 C 
ATOM     11  C   UNL     1      -4.280  -0.224  24.307  0.00  0.00    +0.012 C 
ATOM     12  C   UNL     1      -4.309   1.291  24.026  0.00  0.00    +0.023 C 
ATOM     14  C   UNL     1      -3.049   1.756  23.324  0.00  0.00    -0.073 C 
ATOM     15  C   UNL     1      -1.928   1.013  23.299  0.00  0.00    -0.023 C 
ATOM     20  C   UNL     1      -3.120   3.078  22.612  0.00  0.00    +0.039 C 
ENDROOT
BRANCH   9  13
ATOM     13  C   UNL     1      -3.001  -2.174  25.236  0.00  0.00    -0.013 C 
ATOM     18  C   UNL     1      -3.955  -2.884  24.280  0.00  0.00    +0.007 C 
ATOM     19  C   UNL     1      -1.605  -2.785  25.161  0.00  0.00    +0.007 C 
ENDBRANCH   9  13
BRANCH  10  16
ATOM     16  C   UNL     1      -0.430  -0.375  24.715  0.00  0.00    +0.113 C 
BRANCH  16   6
ATOM      6  N   UNL     1       0.605  -0.898  23.811  0.00  0.00    -0.189 NA
ATOM     34  H   UNL     1       1.094  -1.751  24.110  0.00  0.00    +0.148 HD
BRANCH   6   1
ATOM      1  S   UNL     1       1.421   0.150  22.745  0.00  0.00    +0.058 S 
ATOM      3  O   UNL     1       1.096   1.523  23.081  0.00  0.00    -0.153 OA
ATOM      4  O   UNL     1       1.251  -0.328  21.386  0.00  0.00    -0.153 OA
BRANCH   1  24
ATOM     24  C   UNL     1       3.109  -0.133  23.184  0.00  0.00    +0.105 A 
ATOM     29  C   UNL     1       3.512  -1.390  23.637  0.00  0.00    +0.028 A 
ATOM     30  C   UNL     1       4.040   0.901  23.080  0.00  0.00    +0.028 A 
ATOM     31  C   UNL     1       4.843  -1.612  23.987  0.00  0.00    +0.002 A 
ATOM     32  C   UNL     1       5.372   0.679  23.431  0.00  0.00    +0.002 A 
ATOM     33  C   UNL     1       5.774  -0.578  23.884  0.00  0.00    +0.000 A 
ENDBRANCH   1  24
ENDBRANCH   6   1
ENDBRANCH  16   6
ENDBRANCH  10  16
BRANCH  12  17
ATOM     17  C   UNL     1      -4.547   2.088  25.312  0.00  0.00    +0.103 C 
BRANCH  17  21
ATOM      2  O   UNL     1      -3.720   4.361  25.365  0.00  0.00    -0.276 OA
ATOM      7  N   UNL     1      -2.286   2.610  25.891  0.00  0.00    -0.314 N 
ATOM     21  C   UNL     1      -3.502   3.163  25.516  0.00  0.00    +0.214 C 
ATOM     35  H   UNL     1      -2.203   1.602  25.994  0.00  0.00    +0.149 HD
BRANCH   7  22
ATOM     22  C   UNL     1      -1.106   3.402  26.152  0.00  0.00    +0.119 C 
BRANCH  22  23
ATOM     23  C   UNL     1       0.106   2.518  26.404  0.00  0.00    +0.103 C 
BRANCH  23   8
ATOM      5  O   UNL     1       2.385   2.322  29.923  0.00  0.00    -0.377 OA
ATOM      8  N   UNL     1       0.753   2.890  27.662  0.00  0.00    -0.297 NA
ATOM     25  C   UNL     1       0.271   2.048  28.765  0.00  0.00    +0.112 C 
ATOM     26  C   UNL     1       2.214   2.782  27.547  0.00  0.00    +0.112 C 
ATOM     27  C   UNL     1       0.969   2.446  30.063  0.00  0.00    +0.175 C 
ATOM     28  C   UNL     1       2.867   3.162  28.873  0.00  0.00    +0.175 C 
ENDBRANCH  23   8
ENDBRANCH  22  23
ENDBRANCH   7  22
ENDBRANCH  17  21
ENDBRANCH  12  17
TORSDOF 10
ENDMDL
MODEL 8
REMARK VINA RESULT:      -0.2      2.408      6.325
REMARK  Name = 38026982
REMARK  13 active torsions:
REMARK  status: ('A' for Active; 'I' for Inactive)
REMARK    1  A    between atoms: S_1  and  N_6
REMARK    2  A    between atoms: S_1  and  C_24
REMARK    3  A    between atoms: N_6  and  C_16
REMARK    4  A    between atoms: N_7  and  C_22
REMARK    5  A    between atoms: N_8  and  C_23
REMARK    6  A    between atoms: C_9  and  C_13
REMARK    7  A    between atoms: C_10  and  C_16
REMARK    8  A    between atoms: C_12  and  C_17
REMARK    9  A    between atoms: C_13  and  C_18
REMARK   10  A    between atoms: C_13  and  C_19
REMARK   11  A    between atoms: C_14  and  C_20
REMARK   12  A    between atoms: C_17  and  C_21
REMARK   13  A    between atoms: C_22  and  C_23
REMARK                            x       y       z     vdW  Elec       q    Type
REMARK                         _______ _______ _______ _____ _____    ______ ____
ROOT
ATOM      9  C   UNL     1      -4.448   2.577  25.625  0.00  0.00    +0.000 C 
ATOM     10  C   UNL     1      -4.954   2.167  24.219  0.00  0.00    +0.030 C 
ATOM     11  C   UNL     1      -3.289   3.578  25.507  0.00  0.00    +0.012 C 
ATOM     12  C   UNL     1      -2.102   3.004  24.709  0.00  0.00    +0.023 C 
ATOM     14  C   UNL     1      -2.556   2.339  23.425  0.00  0.00    -0.073 C 
ATOM     15  C   UNL     1      -3.837   1.984  23.218  0.00  0.00    -0.023 C 
ATOM     20  C   UNL     1      -1.512   2.133  22.364  0.00  0.00    +0.039 C 
ENDROOT
BRANCH   9  13
ATOM     13  C   UNL     1      -5.569   3.178  26.480  0.00  0.00    -0.013 C 
ATOM     18  C   UNL     1      -6.259   4.313  25.729  0.00  0.00    +0.007 C 
ATOM     19  C   UNL     1      -6.574   2.100  26.874  0.00  0.00    +0.007 C 
ENDBRANCH   9  13
BRANCH  10  16
ATOM     16  C   UNL     1      -5.794   0.886  24.286  0.00  0.00    +0.113 C 
BRANCH  16   6
ATOM      6  N   UNL     1      -4.994  -0.183  24.903  0.00  0.00    -0.189 NA
ATOM     34  H   UNL     1      -4.607   0.007  25.835  0.00  0.00    +0.148 HD
BRANCH   6   1
ATOM      1  S   UNL     1      -4.186  -1.321  23.927  0.00  0.00    +0.058 S 
ATOM      3  O   UNL     1      -4.008  -0.770  22.596  0.00  0.00    -0.153 OA
ATOM      4  O   UNL     1      -4.805  -2.622  24.101  0.00  0.00    -0.153 OA
BRANCH   1  24
ATOM     24  C   UNL     1      -2.599  -1.397  24.702  0.00  0.00    +0.105 A 
ATOM     29  C   UNL     1      -1.498  -1.877  23.992  0.00  0.00    +0.028 A 
ATOM     30  C   UNL     1      -2.448  -0.980  26.024  0.00  0.00    +0.028 A 
ATOM     31  C   UNL     1      -0.247  -1.941  24.605  0.00  0.00    +0.002 A 
ATOM     32  C   UNL     1      -1.196  -1.044  26.637  0.00  0.00    +0.002 A 
ATOM     33  C   UNL     1      -0.095  -1.525  25.927  0.00  0.00    +0.000 A 
ENDBRANCH   1  24
ENDBRANCH   6   1
ENDBRANCH  16   6
ENDBRANCH  10  16
BRANCH  12  17
ATOM     17  C   UNL     1      -1.277   2.038  25.565  0.00  0.00    +0.103 C 
BRANCH  17  21
ATOM      2  O   UNL     1       1.004   2.722  25.993  0.00  0.00    -0.276 OA
ATOM      7  N   UNL     1       0.519   1.490  24.083  0.00  0.00    -0.314 N 
ATOM     21  C   UNL     1       0.203   2.138  25.268  0.00  0.00    +0.214 C 
ATOM     35  H   UNL     1      -0.215   1.031  23.551  0.00  0.00    +0.149 HD
BRANCH   7  22
ATOM     22  C   UNL     1       1.861   1.427  23.552  0.00  0.00    +0.119 C 
BRANCH  22  23
ATOM     23  C   UNL     1       2.053   0.189  22.688  0.00  0.00    +0.103 C 
BRANCH  23   8
ATOM      5  O   UNL     1       5.805  -0.817  24.277  0.00  0.00    -0.377 OA
ATOM      8  N   UNL     1       3.425  -0.302  22.803  0.00  0.00    -0.297 NA
ATOM     25  C   UNL     1       4.336   0.782  23.195  0.00  0.00    +0.112 C 
ATOM     26  C   UNL     1       3.505  -1.402  23.774  0.00  0.00    +0.112 C 
ATOM     27  C   UNL     1       5.759   0.242  23.321  0.00  0.00    +0.175 C 
ATOM     28  C   UNL     1       4.946  -1.891  23.888  0.00  0.00    +0.175 C 
ENDBRANCH  23   8
ENDBRANCH  22  23
ENDBRANCH   7  22
ENDBRANCH  17  21
ENDBRANCH  12  17
TORSDOF 10
ENDMDL
MODEL 9
REMARK VINA RESULT:       0.1      2.211      3.037
REMARK  Name = 38026982
REMARK  13 active torsions:
REMARK  status: ('A' for Active; 'I' for Inactive)
REMARK    1  A    between atoms: S_1  and  N_6
REMARK    2  A    between atoms: S_1  and  C_24
REMARK    3  A    between atoms: N_6  and  C_16
REMARK    4  A    between atoms: N_7  and  C_22
REMARK    5  A    between atoms: N_8  and  C_23
REMARK    6  A    between atoms: C_9  and  C_13
REMARK    7  A    between atoms: C_10  and  C_16
REMARK    8  A    between atoms: C_12  and  C_17
REMARK    9  A    between atoms: C_13  and  C_18
REMARK   10  A    between atoms: C_13  and  C_19
REMARK   11  A    between atoms: C_14  and  C_20
REMARK   12  A    between atoms: C_17  and  C_21
REMARK   13  A    between atoms: C_22  and  C_23
REMARK                            x       y       z     vdW  Elec       q    Type
REMARK                         _______ _______ _______ _____ _____    ______ ____
ROOT
ATOM      9  C   UNL     1      -2.806   0.265  24.866  0.00  0.00    +0.000 C 
ATOM     10  C   UNL     1      -1.926   0.767  23.695  0.00  0.00    +0.030 C 
ATOM     11  C   UNL     1      -4.288   0.555  24.585  0.00  0.00    +0.012 C 
ATOM     12  C   UNL     1      -4.559   2.058  24.380  0.00  0.00    +0.023 C 
ATOM     14  C   UNL     1      -3.555   2.687  23.434  0.00  0.00    -0.073 C 
ATOM     15  C   UNL     1      -2.390   2.089  23.130  0.00  0.00    -0.023 C 
ATOM     20  C   UNL     1      -3.942   3.999  22.811  0.00  0.00    +0.039 C 
ENDROOT
BRANCH   9  13
ATOM     13  C   UNL     1      -2.610  -1.232  25.124  0.00  0.00    -0.013 C 
ATOM     18  C   UNL     1      -2.953  -1.572  26.572  0.00  0.00    +0.007 C 
ATOM     19  C   UNL     1      -3.460  -2.054  24.159  0.00  0.00    +0.007 C 
ENDBRANCH   9  13
BRANCH  10  16
ATOM     16  C   UNL     1      -0.456   0.880  24.118  0.00  0.00    +0.113 C 
BRANCH  16   6
ATOM      6  N   UNL     1       0.392   0.896  22.916  0.00  0.00    -0.189 NA
ATOM     34  H   UNL     1       0.187   1.618  22.213  0.00  0.00    +0.148 HD
BRANCH   6   1
ATOM      1  S   UNL     1       1.153  -0.531  22.385  0.00  0.00    +0.058 S 
ATOM      3  O   UNL     1       1.137  -0.572  20.934  0.00  0.00    -0.153 OA
ATOM      4  O   UNL     1       0.646  -1.654  23.151  0.00  0.00    -0.153 OA
BRANCH   1  24
ATOM     24  C   UNL     1       2.821  -0.264  22.903  0.00  0.00    +0.105 A 
ATOM     29  C   UNL     1       3.436   0.966  22.669  0.00  0.00    +0.028 A 
ATOM     30  C   UNL     1       3.525  -1.285  23.544  0.00  0.00    +0.028 A 
ATOM     31  C   UNL     1       4.754   1.175  23.075  0.00  0.00    +0.002 A 
ATOM     32  C   UNL     1       4.843  -1.075  23.949  0.00  0.00    +0.002 A 
ATOM     33  C   UNL     1       5.458   0.155  23.715  0.00  0.00    +0.000 A 
ENDBRANCH   1  24
ENDBRANCH   6   1
ENDBRANCH  16   6
ENDBRANCH  10  16
BRANCH  12  17
ATOM     17  C   UNL     1      -4.592   2.802  25.719  0.00  0.00    +0.103 C 
BRANCH  17  21
ATOM      2  O   UNL     1      -3.500   4.957  25.838  0.00  0.00    -0.276 OA
ATOM      7  N   UNL     1      -2.239   3.020  26.081  0.00  0.00    -0.314 N 
ATOM     21  C   UNL     1      -3.412   3.733  25.881  0.00  0.00    +0.214 C 
ATOM     35  H   UNL     1      -2.266   2.004  26.104  0.00  0.00    +0.149 HD
BRANCH   7  22
ATOM     22  C   UNL     1      -0.953   3.653  26.265  0.00  0.00    +0.119 C 
BRANCH  22  23
ATOM     23  C   UNL     1       0.132   2.622  26.540  0.00  0.00    +0.103 C 
BRANCH  23   8
ATOM      5  O   UNL     1       2.413   2.207  30.039  0.00  0.00    -0.377 OA
ATOM      8  N   UNL     1       0.814   2.927  27.798  0.00  0.00    -0.297 NA
ATOM     25  C   UNL     1       0.277   2.109  28.894  0.00  0.00    +0.112 C 
ATOM     26  C   UNL     1       2.262   2.712  27.671  0.00  0.00    +0.112 C 
ATOM     27  C   UNL     1       1.012   2.434  30.191  0.00  0.00    +0.175 C 
ATOM     28  C   UNL     1       2.950   3.023  28.997  0.00  0.00    +0.175 C 
ENDBRANCH  23   8
ENDBRANCH  22  23
ENDBRANCH   7  22
ENDBRANCH  17  21
ENDBRANCH  12  17
TORSDOF 10
ENDMDL
MODEL 10
REMARK VINA RESULT:       0.2      1.415      2.852
REMARK  Name = 38026982
REMARK  13 active torsions:
REMARK  status: ('A' for Active; 'I' for Inactive)
REMARK    1  A    between atoms: S_1  and  N_6
REMARK    2  A    between atoms: S_1  and  C_24
REMARK    3  A    between atoms: N_6  and  C_16
REMARK    4  A    between atoms: N_7  and  C_22
REMARK    5  A    between atoms: N_8  and  C_23
REMARK    6  A    between atoms: C_9  and  C_13
REMARK    7  A    between atoms: C_10  and  C_16
REMARK    8  A    between atoms: C_12  and  C_17
REMARK    9  A    between atoms: C_13  and  C_18
REMARK   10  A    between atoms: C_13  and  C_19
REMARK   11  A    between atoms: C_14  and  C_20
REMARK   12  A    between atoms: C_17  and  C_21
REMARK   13  A    between atoms: C_22  and  C_23
REMARK                            x       y       z     vdW  Elec       q    Type
REMARK                         _______ _______ _______ _____ _____    ______ ____
ROOT
ATOM      9  C   UNL     1      -1.839   0.334  24.799  0.00  0.00    +0.000 C 
ATOM     10  C   UNL     1      -0.833  -0.808  24.511  0.00  0.00    +0.030 C 
ATOM     11  C   UNL     1      -2.877  -0.116  25.838  0.00  0.00    +0.012 C 
ATOM     12  C   UNL     1      -3.666  -1.356  25.374  0.00  0.00    +0.023 C 
ATOM     14  C   UNL     1      -2.751  -2.431  24.822  0.00  0.00    -0.073 C 
ATOM     15  C   UNL     1      -1.484  -2.170  24.453  0.00  0.00    -0.023 C 
ATOM     20  C   UNL     1      -3.312  -3.823  24.744  0.00  0.00    +0.039 C 
ENDROOT
BRANCH   9  13
ATOM     13  C   UNL     1      -1.134   1.604  25.287  0.00  0.00    -0.013 C 
ATOM     18  C   UNL     1      -0.135   1.267  26.390  0.00  0.00    +0.007 C 
ATOM     19  C   UNL     1      -0.439   2.306  24.124  0.00  0.00    +0.007 C 
ENDBRANCH   9  13
BRANCH  10  16
ATOM     16  C   UNL     1      -0.067  -0.553  23.207  0.00  0.00    +0.113 C 
BRANCH  16   6
ATOM      6  N   UNL     1       1.378  -0.615  23.476  0.00  0.00    -0.189 NA
ATOM     34  H   UNL     1       1.662  -0.927  24.413  0.00  0.00    +0.148 HD
BRANCH   6   1
ATOM      1  S   UNL     1       2.453   0.386  22.615  0.00  0.00    +0.058 S 
ATOM      3  O   UNL     1       2.249   1.765  23.015  0.00  0.00    -0.153 OA
ATOM      4  O   UNL     1       2.421   0.022  21.211  0.00  0.00    -0.153 OA
BRANCH   1  24
ATOM     24  C   UNL     1       4.018  -0.139  23.248  0.00  0.00    +0.105 A 
ATOM     29  C   UNL     1       4.181  -1.444  23.710  0.00  0.00    +0.028 A 
ATOM     30  C   UNL     1       5.089   0.754  23.288  0.00  0.00    +0.028 A 
ATOM     31  C   UNL     1       5.415  -1.857  24.214  0.00  0.00    +0.002 A 
ATOM     32  C   UNL     1       6.322   0.342  23.792  0.00  0.00    +0.002 A 
ATOM     33  C   UNL     1       6.486  -0.965  24.255  0.00  0.00    +0.000 A 
ENDBRANCH   1  24
ENDBRANCH   6   1
ENDBRANCH  16   6
ENDBRANCH  10  16
BRANCH  12  17
ATOM     17  C   UNL     1      -4.744  -0.976  24.354  0.00  0.00    +0.103 C 
BRANCH  17  21
ATOM      2  O   UNL     1      -4.172   1.183  23.424  0.00  0.00    -0.276 OA
ATOM      7  N   UNL     1      -5.861   1.033  25.014  0.00  0.00    -0.314 N 
ATOM     21  C   UNL     1      -4.868   0.523  24.190  0.00  0.00    +0.214 C 
ATOM     35  H   UNL     1      -6.388   0.404  25.614  0.00  0.00    +0.149 HD
BRANCH   7  22
ATOM     22  C   UNL     1      -6.198   2.437  25.066  0.00  0.00    +0.119 C 
BRANCH  22  23
ATOM     23  C   UNL     1      -5.392   3.157  26.138  0.00  0.00    +0.103 C 
BRANCH  23   8
ATOM      5  O   UNL     1      -2.047   5.356  24.879  0.00  0.00    -0.377 OA
ATOM      8  N   UNL     1      -4.062   3.493  25.633  0.00  0.00    -0.297 NA
ATOM     25  C   UNL     1      -4.157   4.266  24.387  0.00  0.00    +0.112 C 
ATOM     26  C   UNL     1      -3.299   4.248  26.637  0.00  0.00    +0.112 C 
ATOM     27  C   UNL     1      -2.758   4.616  23.887  0.00  0.00    +0.175 C 
ATOM     28  C   UNL     1      -1.921   4.599  26.084  0.00  0.00    +0.175 C 
ENDBRANCH  23   8
ENDBRANCH  22  23
ENDBRANCH   7  22
ENDBRANCH  17  21
ENDBRANCH  12  17
TORSDOF 10
ENDMDL
