MODEL 1
REMARK VINA RESULT:      -3.7      0.000      0.000
REMARK  Name = 26745347
REMARK  7 active torsions:
REMARK  status: ('A' for Active; 'I' for Inactive)
REMARK    1  A    between atoms: O_3  and  C_26
REMARK    2  A    between atoms: N_5  and  C_14
REMARK    3  A    between atoms: N_8  and  C_20
REMARK    4  A    between atoms: C_9  and  C_15
REMARK    5  A    between atoms: C_14  and  C_16
REMARK    6  A    between atoms: C_20  and  C_23
REMARK    7  A    between atoms: C_24  and  C_26
REMARK                            x       y       z     vdW  Elec       q    Type
REMARK                         _______ _______ _______ _____ _____    ______ ____
ROOT
ATOM      5  N   UNL     1      -1.410   0.727  23.507  0.00  0.00    -0.281 NA
ATOM      6  N   UNL     1      -3.772  -2.012  24.480  0.00  0.00    -0.347 N 
ATOM      7  N   UNL     1      -1.918  -3.238  24.726  0.00  0.00    -0.240 NA
ATOM      9  C   UNL     1      -0.285   0.176  24.315  0.00  0.00    +0.150 C 
ATOM     10  C   UNL     1      -0.238  -1.383  24.318  0.00  0.00    +0.085 C 
ATOM     11  C   UNL     1      -2.737   0.285  24.023  0.00  0.00    +0.140 C 
ATOM     12  C   UNL     1      -2.720  -1.166  24.299  0.00  0.00    +0.053 A 
ATOM     13  C   UNL     1      -1.598  -1.938  24.460  0.00  0.00    +0.065 A 
ATOM     17  C   UNL     1      -3.237  -3.251  24.734  0.00  0.00    +0.197 A 
ATOM     29  H   UNL     1      -4.755  -1.777  24.441  0.00  0.00    +0.167 HD
ENDROOT
BRANCH   9  15
ATOM      1  O   UNL     1       1.552   1.684  24.097  0.00  0.00    -0.274 OA
ATOM      8  N   UNL     1       1.482  -0.209  22.745  0.00  0.00    -0.307 N 
ATOM     15  C   UNL     1       1.012   0.645  23.728  0.00  0.00    +0.231 C 
ATOM     30  H   UNL     1       0.967  -1.056  22.525  0.00  0.00    +0.149 HD
BRANCH   8  20
ATOM     20  C   UNL     1       2.702   0.029  22.009  0.00  0.00    +0.178 C 
BRANCH  20  23
ATOM      2  O   UNL     1       4.107  -1.270  23.508  0.00  0.00    -0.466 OA
ATOM     23  C   UNL     1       3.917  -0.077  22.886  0.00  0.00    +0.122 A 
ATOM     25  C   UNL     1       4.921   0.804  23.212  0.00  0.00    +0.046 A 
ATOM     27  C   UNL     1       5.785   0.107  24.091  0.00  0.00    +0.041 A 
ATOM     28  C   UNL     1       5.246  -1.150  24.238  0.00  0.00    +0.195 A 
ENDBRANCH  20  23
ENDBRANCH   8  20
ENDBRANCH   9  15
BRANCH   5  14
ATOM     14  C   UNL     1      -1.395   2.194  23.456  0.00  0.00    +0.120 C 
BRANCH  14  16
ATOM     16  C   UNL     1      -2.624   2.792  24.079  0.00  0.00    -0.033 A 
ATOM     18  C   UNL     1      -3.842   2.742  23.402  0.00  0.00    +0.006 A 
ATOM     19  C   UNL     1      -2.546   3.394  25.334  0.00  0.00    +0.006 A 
ATOM     21  C   UNL     1      -4.984   3.297  23.981  0.00  0.00    +0.015 A 
ATOM     22  C   UNL     1      -3.688   3.949  25.913  0.00  0.00    +0.015 A 
ATOM     24  C   UNL     1      -4.907   3.899  25.236  0.00  0.00    +0.059 A 
BRANCH  24  26
ATOM      4  O   UNL     1      -6.445   5.659  25.750  0.00  0.00    -0.245 OA
ATOM     26  C   UNL     1      -6.097   4.477  25.841  0.00  0.00    +0.337 C 
BRANCH  26   3
ATOM      3  O   UNL     1      -6.822   3.562  26.541  0.00  0.00    -0.477 OA
ATOM     31  H   UNL     1      -6.265   3.063  27.176  0.00  0.00    +0.295 HD
ENDBRANCH  26   3
ENDBRANCH  24  26
ENDBRANCH  14  16
ENDBRANCH   5  14
TORSDOF 7
ENDMDL
MODEL 2
REMARK VINA RESULT:       0.0      2.391      5.347
REMARK  Name = 26745347
REMARK  7 active torsions:
REMARK  status: ('A' for Active; 'I' for Inactive)
REMARK    1  A    between atoms: O_3  and  C_26
REMARK    2  A    between atoms: N_5  and  C_14
REMARK    3  A    between atoms: N_8  and  C_20
REMARK    4  A    between atoms: C_9  and  C_15
REMARK    5  A    between atoms: C_14  and  C_16
REMARK    6  A    between atoms: C_20  and  C_23
REMARK    7  A    between atoms: C_24  and  C_26
REMARK                            x       y       z     vdW  Elec       q    Type
REMARK                         _______ _______ _______ _____ _____    ______ ____
ROOT
ATOM      5  N   UNL     1      -0.463  -0.212  23.238  0.00  0.00    -0.281 NA
ATOM      6  N   UNL     1       2.508  -0.158  20.958  0.00  0.00    -0.347 N 
ATOM      7  N   UNL     1       3.551   0.812  22.682  0.00  0.00    -0.240 NA
ATOM      9  C   UNL     1       0.367  -0.253  24.476  0.00  0.00    +0.150 C 
ATOM     10  C   UNL     1       1.670   0.596  24.370  0.00  0.00    +0.085 C 
ATOM     11  C   UNL     1       0.271  -0.748  22.057  0.00  0.00    +0.140 C 
ATOM     12  C   UNL     1       1.635  -0.182  22.003  0.00  0.00    +0.053 A 
ATOM     13  C   UNL     1       2.298   0.411  23.047  0.00  0.00    +0.065 A 
ATOM     17  C   UNL     1       3.649   0.452  21.416  0.00  0.00    +0.197 A 
ATOM     29  H   UNL     1       2.352  -0.521  20.027  0.00  0.00    +0.167 HD
ENDROOT
BRANCH   9  15
ATOM      1  O   UNL     1      -1.156  -0.385  26.309  0.00  0.00    -0.274 OA
ATOM      8  N   UNL     1      -0.244   1.681  25.749  0.00  0.00    -0.307 N 
ATOM     15  C   UNL     1      -0.427   0.316  25.614  0.00  0.00    +0.231 C 
ATOM     30  H   UNL     1       0.399   2.167  25.130  0.00  0.00    +0.149 HD
BRANCH   8  20
ATOM     20  C   UNL     1      -0.913   2.472  26.756  0.00  0.00    +0.178 C 
BRANCH  20  23
ATOM      2  O   UNL     1      -0.815   4.450  25.347  0.00  0.00    -0.466 OA
ATOM     23  C   UNL     1      -1.579   3.683  26.169  0.00  0.00    +0.122 A 
ATOM     25  C   UNL     1      -2.844   4.210  26.285  0.00  0.00    +0.046 A 
ATOM     27  C   UNL     1      -2.859   5.375  25.482  0.00  0.00    +0.041 A 
ATOM     28  C   UNL     1      -1.602   5.477  24.933  0.00  0.00    +0.195 A 
ENDBRANCH  20  23
ENDBRANCH   8  20
ENDBRANCH   9  15
BRANCH   5  14
ATOM     14  C   UNL     1      -1.720  -0.957  23.383  0.00  0.00    +0.120 C 
BRANCH  14  16
ATOM     16  C   UNL     1      -2.843  -0.078  23.855  0.00  0.00    -0.033 A 
ATOM     18  C   UNL     1      -2.943   1.233  23.390  0.00  0.00    +0.006 A 
ATOM     19  C   UNL     1      -3.785  -0.573  24.756  0.00  0.00    +0.006 A 
ATOM     21  C   UNL     1      -3.986   2.050  23.827  0.00  0.00    +0.015 A 
ATOM     22  C   UNL     1      -4.828   0.243  25.194  0.00  0.00    +0.015 A 
ATOM     24  C   UNL     1      -4.928   1.555  24.728  0.00  0.00    +0.059 A 
BRANCH  24  26
ATOM      4  O   UNL     1      -5.886   3.449  25.832  0.00  0.00    -0.245 OA
ATOM     26  C   UNL     1      -6.016   2.406  25.185  0.00  0.00    +0.337 C 
BRANCH  26   3
ATOM      3  O   UNL     1      -7.238   1.930  24.818  0.00  0.00    -0.477 OA
ATOM     31  H   UNL     1      -7.257   1.661  23.875  0.00  0.00    +0.295 HD
ENDBRANCH  26   3
ENDBRANCH  24  26
ENDBRANCH  14  16
ENDBRANCH   5  14
TORSDOF 7
ENDMDL
MODEL 3
REMARK VINA RESULT:       0.2      2.907      7.013
REMARK  Name = 26745347
REMARK  7 active torsions:
REMARK  status: ('A' for Active; 'I' for Inactive)
REMARK    1  A    between atoms: O_3  and  C_26
REMARK    2  A    between atoms: N_5  and  C_14
REMARK    3  A    between atoms: N_8  and  C_20
REMARK    4  A    between atoms: C_9  and  C_15
REMARK    5  A    between atoms: C_14  and  C_16
REMARK    6  A    between atoms: C_20  and  C_23
REMARK    7  A    between atoms: C_24  and  C_26
REMARK                            x       y       z     vdW  Elec       q    Type
REMARK                         _______ _______ _______ _____ _____    ______ ____
ROOT
ATOM      5  N   UNL     1      -0.248  -0.012  23.804  0.00  0.00    -0.281 NA
ATOM      6  N   UNL     1      -2.527  -2.898  24.513  0.00  0.00    -0.347 N 
ATOM      7  N   UNL     1      -3.424  -1.542  26.048  0.00  0.00    -0.240 NA
ATOM      9  C   UNL     1      -1.240   1.007  24.253  0.00  0.00    +0.150 C 
ATOM     10  C   UNL     1      -2.092   0.538  25.471  0.00  0.00    +0.085 C 
ATOM     11  C   UNL     1      -0.905  -1.278  23.372  0.00  0.00    +0.140 C 
ATOM     12  C   UNL     1      -1.927  -1.684  24.358  0.00  0.00    +0.053 A 
ATOM     13  C   UNL     1      -2.497  -0.871  25.304  0.00  0.00    +0.065 A 
ATOM     17  C   UNL     1      -3.421  -2.761  25.546  0.00  0.00    +0.197 A 
ATOM     29  H   UNL     1      -2.354  -3.735  23.973  0.00  0.00    +0.167 HD
ENDROOT
BRANCH   9  15
ATOM      1  O   UNL     1      -0.418   3.229  23.965  0.00  0.00    -0.274 OA
ATOM      8  N   UNL     1       0.041   2.107  25.951  0.00  0.00    -0.307 N 
ATOM     15  C   UNL     1      -0.508   2.241  24.687  0.00  0.00    +0.231 C 
ATOM     30  H   UNL     1      -0.107   1.250  26.476  0.00  0.00    +0.149 HD
BRANCH   8  20
ATOM     20  C   UNL     1       0.814   3.146  26.591  0.00  0.00    +0.178 C 
BRANCH  20  23
ATOM      2  O   UNL     1       2.546   2.853  28.271  0.00  0.00    -0.466 OA
ATOM     23  C   UNL     1       1.220   2.766  27.986  0.00  0.00    +0.122 A 
ATOM     25  C   UNL     1       0.517   2.331  29.085  0.00  0.00    +0.046 A 
ATOM     27  C   UNL     1       1.472   2.138  30.111  0.00  0.00    +0.041 A 
ATOM     28  C   UNL     1       2.691   2.470  29.567  0.00  0.00    +0.195 A 
ENDBRANCH  20  23
ENDBRANCH   8  20
ENDBRANCH   9  15
BRANCH   5  14
ATOM     14  C   UNL     1       0.595   0.475  22.704  0.00  0.00    +0.120 C 
BRANCH  14  16
ATOM     16  C   UNL     1       2.052   0.214  22.954  0.00  0.00    -0.033 A 
ATOM     18  C   UNL     1       2.469  -1.045  23.387  0.00  0.00    +0.006 A 
ATOM     19  C   UNL     1       2.987   1.228  22.753  0.00  0.00    +0.006 A 
ATOM     21  C   UNL     1       3.823  -1.290  23.619  0.00  0.00    +0.015 A 
ATOM     22  C   UNL     1       4.342   0.985  22.985  0.00  0.00    +0.015 A 
ATOM     24  C   UNL     1       4.759  -0.275  23.418  0.00  0.00    +0.059 A 
BRANCH  24  26
ATOM      4  O   UNL     1       7.091  -0.242  22.887  0.00  0.00    -0.245 OA
ATOM     26  C   UNL     1       6.171  -0.528  23.659  0.00  0.00    +0.337 C 
BRANCH  26   3
ATOM      3  O   UNL     1       6.395  -1.132  24.859  0.00  0.00    -0.477 OA
ATOM     31  H   UNL     1       7.056  -1.853  24.787  0.00  0.00    +0.295 HD
ENDBRANCH  26   3
ENDBRANCH  24  26
ENDBRANCH  14  16
ENDBRANCH   5  14
TORSDOF 7
ENDMDL
