MODEL 1
REMARK VINA RESULT:      -4.3      0.000      0.000
REMARK  Name = 45360468
REMARK  6 active torsions:
REMARK  status: ('A' for Active; 'I' for Inactive)
REMARK    1  A    between atoms: N_3  and  C_13
REMARK    2  A    between atoms: N_3  and  C_15
REMARK    3  A    between atoms: C_7  and  C_13
REMARK    4  A    between atoms: C_8  and  C_14
REMARK    5  A    between atoms: C_22  and  C_24
REMARK    6  A    between atoms: C_23  and  C_25
REMARK                            x       y       z     vdW  Elec       q    Type
REMARK                         _______ _______ _______ _____ _____    ______ ____
ROOT
ATOM      2  N   UNL     1      -3.136   3.837  24.174  0.00  0.00    -0.298 NA
ATOM      6  C   UNL     1      -0.789   3.697  25.295  0.00  0.00    +0.002 C 
ATOM      7  C   UNL     1      -3.267   3.326  25.564  0.00  0.00    +0.071 C 
ATOM      8  C   UNL     1      -0.768   3.008  23.903  0.00  0.00    +0.055 C 
ATOM      9  C   UNL     1      -1.876   3.041  26.172  0.00  0.00    +0.024 C 
ATOM     10  C   UNL     1      -1.218   5.161  25.061  0.00  0.00    +0.019 C 
ATOM     11  C   UNL     1      -2.236   2.953  23.389  0.00  0.00    +0.094 C 
ATOM     12  C   UNL     1      -2.519   5.183  24.240  0.00  0.00    +0.085 C 
ENDROOT
BRANCH   8  14
ATOM      4  N   UNL     1      -0.841   0.565  23.806  0.00  0.00    -0.237 NA
ATOM      5  N   UNL     1       1.148  -0.770  23.549  0.00  0.00    -0.229 NA
ATOM     14  C   UNL     1      -0.062   1.666  23.775  0.00  0.00    +0.050 A 
ATOM     18  C   UNL     1       1.310   1.630  23.635  0.00  0.00    +0.055 A 
ATOM     22  C   UNL     1       1.867   0.371  23.525  0.00  0.00    +0.110 A 
ATOM     23  C   UNL     1      -0.180  -0.603  23.690  0.00  0.00    +0.127 A 
ATOM     25  C   UNL     1      -1.009  -1.843  23.719  0.00  0.00    +0.088 C 
BRANCH  22  24
ATOM      1  O   UNL     1       3.763  -1.019  23.779  0.00  0.00    -0.461 OA
ATOM     24  C   UNL     1       3.286   0.188  23.377  0.00  0.00    +0.153 A 
ATOM     26  C   UNL     1       4.308   0.979  22.904  0.00  0.00    +0.051 A 
ATOM     27  C   UNL     1       5.489   0.209  23.025  0.00  0.00    +0.042 A 
ATOM     28  C   UNL     1       5.105  -0.999  23.562  0.00  0.00    +0.196 A 
ENDBRANCH  22  24
ENDBRANCH   8  14
BRANCH   7  13
ATOM     13  C   UNL     1      -4.188   2.109  25.654  0.00  0.00    +0.100 C 
BRANCH  13   3
ATOM      3  N   UNL     1      -4.046   1.266  24.477  0.00  0.00    -0.312 NA
ATOM     29  H   UNL     1      -3.101   1.370  24.110  0.00  0.00    +0.122 HD
BRANCH   3  15
ATOM     15  C   UNL     1      -4.297  -0.137  24.804  0.00  0.00    +0.054 C 
ATOM     16  C   UNL     1      -3.272  -0.622  25.835  0.00  0.00    +0.019 C 
ATOM     17  C   UNL     1      -4.241  -0.985  23.528  0.00  0.00    +0.019 C 
ATOM     19  C   UNL     1      -3.456  -2.107  26.143  0.00  0.00    +0.002 C 
ATOM     20  C   UNL     1      -4.422  -2.470  23.840  0.00  0.00    +0.002 C 
ATOM     21  C   UNL     1      -3.412  -2.955  24.875  0.00  0.00    +0.000 C 
ENDBRANCH   3  15
ENDBRANCH  13   3
ENDBRANCH   7  13
TORSDOF 5
ENDMDL
MODEL 2
REMARK VINA RESULT:      -3.4      2.099      5.436
REMARK  Name = 45360468
REMARK  6 active torsions:
REMARK  status: ('A' for Active; 'I' for Inactive)
REMARK    1  A    between atoms: N_3  and  C_13
REMARK    2  A    between atoms: N_3  and  C_15
REMARK    3  A    between atoms: C_7  and  C_13
REMARK    4  A    between atoms: C_8  and  C_14
REMARK    5  A    between atoms: C_22  and  C_24
REMARK    6  A    between atoms: C_23  and  C_25
REMARK                            x       y       z     vdW  Elec       q    Type
REMARK                         _______ _______ _______ _____ _____    ______ ____
ROOT
ATOM      2  N   UNL     1      -3.334  -1.886  26.012  0.00  0.00    -0.298 NA
ATOM      6  C   UNL     1      -2.300  -1.953  23.623  0.00  0.00    +0.002 C 
ATOM      7  C   UNL     1      -4.232  -1.193  25.050  0.00  0.00    +0.071 C 
ATOM      8  C   UNL     1      -1.252  -1.452  24.655  0.00  0.00    +0.055 C 
ATOM      9  C   UNL     1      -3.544  -1.041  23.676  0.00  0.00    +0.024 C 
ATOM     10  C   UNL     1      -2.746  -3.357  24.086  0.00  0.00    +0.019 C 
ATOM     11  C   UNL     1      -1.994  -1.247  26.007  0.00  0.00    +0.094 C 
ATOM     12  C   UNL     1      -3.179  -3.289  25.560  0.00  0.00    +0.085 C 
ENDROOT
BRANCH   8  14
ATOM      4  N   UNL     1       0.787  -0.518  23.680  0.00  0.00    -0.237 NA
ATOM      5  N   UNL     1       1.198   1.854  23.588  0.00  0.00    -0.229 NA
ATOM     14  C   UNL     1      -0.391  -0.254  24.282  0.00  0.00    +0.050 A 
ATOM     18  C   UNL     1      -0.837   1.020  24.566  0.00  0.00    +0.055 A 
ATOM     22  C   UNL     1       0.007   2.047  24.193  0.00  0.00    +0.110 A 
ATOM     23  C   UNL     1       1.521   0.566  23.366  0.00  0.00    +0.127 A 
ATOM     25  C   UNL     1       2.830   0.314  22.697  0.00  0.00    +0.088 C 
BRANCH  22  24
ATOM      1  O   UNL     1      -1.035   3.662  25.570  0.00  0.00    -0.461 OA
ATOM     24  C   UNL     1      -0.334   3.424  24.431  0.00  0.00    +0.153 A 
ATOM     26  C   UNL     1      -0.105   4.597  23.749  0.00  0.00    +0.051 A 
ATOM     27  C   UNL     1      -0.706   5.622  24.519  0.00  0.00    +0.042 A 
ATOM     28  C   UNL     1      -1.258   5.002  25.616  0.00  0.00    +0.196 A 
ENDBRANCH  22  24
ENDBRANCH   8  14
BRANCH   7  13
ATOM     13  C   UNL     1      -4.737   0.147  25.586  0.00  0.00    +0.100 C 
BRANCH  13   3
ATOM      3  N   UNL     1      -5.803   0.669  24.746  0.00  0.00    -0.312 NA
ATOM     29  H   UNL     1      -6.698   0.488  25.199  0.00  0.00    +0.122 HD
BRANCH   3  15
ATOM     15  C   UNL     1      -5.643   2.106  24.527  0.00  0.00    +0.054 C 
ATOM     16  C   UNL     1      -4.237   2.397  23.990  0.00  0.00    +0.019 C 
ATOM     17  C   UNL     1      -5.903   2.863  25.835  0.00  0.00    +0.019 C 
ATOM     19  C   UNL     1      -4.007   3.898  23.821  0.00  0.00    +0.002 C 
ATOM     20  C   UNL     1      -5.669   4.364  25.663  0.00  0.00    +0.002 C 
ATOM     21  C   UNL     1      -4.275   4.658  25.117  0.00  0.00    +0.000 C 
ENDBRANCH   3  15
ENDBRANCH  13   3
ENDBRANCH   7  13
TORSDOF 5
ENDMDL
MODEL 3
REMARK VINA RESULT:      -3.2      1.212      4.511
REMARK  Name = 45360468
REMARK  6 active torsions:
REMARK  status: ('A' for Active; 'I' for Inactive)
REMARK    1  A    between atoms: N_3  and  C_13
REMARK    2  A    between atoms: N_3  and  C_15
REMARK    3  A    between atoms: C_7  and  C_13
REMARK    4  A    between atoms: C_8  and  C_14
REMARK    5  A    between atoms: C_22  and  C_24
REMARK    6  A    between atoms: C_23  and  C_25
REMARK                            x       y       z     vdW  Elec       q    Type
REMARK                         _______ _______ _______ _____ _____    ______ ____
ROOT
ATOM      2  N   UNL     1      -3.607  -1.499  25.915  0.00  0.00    -0.298 NA
ATOM      6  C   UNL     1      -2.593  -1.545  23.516  0.00  0.00    +0.002 C 
ATOM      7  C   UNL     1      -4.389  -0.610  25.016  0.00  0.00    +0.071 C 
ATOM      8  C   UNL     1      -1.482  -1.285  24.571  0.00  0.00    +0.055 C 
ATOM      9  C   UNL     1      -3.685  -0.463  23.649  0.00  0.00    +0.024 C 
ATOM     10  C   UNL     1      -3.246  -2.896  23.881  0.00  0.00    +0.019 C 
ATOM     11  C   UNL     1      -2.185  -1.071  25.942  0.00  0.00    +0.094 C 
ATOM     12  C   UNL     1      -3.665  -2.872  25.360  0.00  0.00    +0.085 C 
ENDROOT
BRANCH   8  14
ATOM      4  N   UNL     1      -0.871   1.073  24.353  0.00  0.00    -0.237 NA
ATOM      5  N   UNL     1       1.357   1.773  23.761  0.00  0.00    -0.229 NA
ATOM     14  C   UNL     1      -0.450  -0.206  24.277  0.00  0.00    +0.050 A 
ATOM     18  C   UNL     1       0.841  -0.571  23.953  0.00  0.00    +0.055 A 
ATOM     22  C   UNL     1       1.711   0.472  23.703  0.00  0.00    +0.110 A 
ATOM     23  C   UNL     1       0.071   1.999  24.087  0.00  0.00    +0.127 A 
ATOM     25  C   UNL     1      -0.357   3.425  24.162  0.00  0.00    +0.088 C 
BRANCH  22  24
ATOM      1  O   UNL     1       3.598  -0.952  23.772  0.00  0.00    -0.461 OA
ATOM     24  C   UNL     1       3.086   0.235  23.353  0.00  0.00    +0.153 A 
ATOM     26  C   UNL     1       4.036   0.957  22.666  0.00  0.00    +0.051 A 
ATOM     27  C   UNL     1       5.207   0.162  22.665  0.00  0.00    +0.042 A 
ATOM     28  C   UNL     1       4.890  -0.988  23.350  0.00  0.00    +0.196 A 
ENDBRANCH  22  24
ENDBRANCH   8  14
BRANCH   7  13
ATOM     13  C   UNL     1      -4.686   0.748  25.653  0.00  0.00    +0.100 C 
BRANCH  13   3
ATOM      3  N   UNL     1      -5.221   1.674  24.667  0.00  0.00    -0.312 NA
ATOM     29  H   UNL     1      -6.239   1.663  24.724  0.00  0.00    +0.122 HD
BRANCH   3  15
ATOM     15  C   UNL     1      -4.728   3.031  24.900  0.00  0.00    +0.054 C 
ATOM     16  C   UNL     1      -3.996   3.540  23.654  0.00  0.00    +0.019 C 
ATOM     17  C   UNL     1      -3.809   3.046  26.127  0.00  0.00    +0.019 C 
ATOM     19  C   UNL     1      -3.400   4.927  23.888  0.00  0.00    +0.002 C 
ATOM     20  C   UNL     1      -3.213   4.434  26.356  0.00  0.00    +0.002 C 
ATOM     21  C   UNL     1      -2.493   4.951  25.114  0.00  0.00    +0.000 C 
ENDBRANCH   3  15
ENDBRANCH  13   3
ENDBRANCH   7  13
TORSDOF 5
ENDMDL
MODEL 4
REMARK VINA RESULT:      -3.2      1.754      3.029
REMARK  Name = 45360468
REMARK  6 active torsions:
REMARK  status: ('A' for Active; 'I' for Inactive)
REMARK    1  A    between atoms: N_3  and  C_13
REMARK    2  A    between atoms: N_3  and  C_15
REMARK    3  A    between atoms: C_7  and  C_13
REMARK    4  A    between atoms: C_8  and  C_14
REMARK    5  A    between atoms: C_22  and  C_24
REMARK    6  A    between atoms: C_23  and  C_25
REMARK                            x       y       z     vdW  Elec       q    Type
REMARK                         _______ _______ _______ _____ _____    ______ ____
ROOT
ATOM      2  N   UNL     1      -5.017   2.853  23.896  0.00  0.00    -0.298 NA
ATOM      6  C   UNL     1      -3.799   3.673  26.047  0.00  0.00    +0.002 C 
ATOM      7  C   UNL     1      -5.342   1.957  25.037  0.00  0.00    +0.071 C 
ATOM      8  C   UNL     1      -2.799   3.570  24.861  0.00  0.00    +0.055 C 
ATOM      9  C   UNL     1      -4.472   2.302  26.265  0.00  0.00    +0.024 C 
ATOM     10  C   UNL     1      -4.905   4.658  25.613  0.00  0.00    +0.019 C 
ATOM     11  C   UNL     1      -3.548   2.889  23.680  0.00  0.00    +0.094 C 
ATOM     12  C   UNL     1      -5.466   4.221  24.249  0.00  0.00    +0.085 C 
ENDROOT
BRANCH   8  14
ATOM      4  N   UNL     1      -0.934   3.079  26.364  0.00  0.00    -0.237 NA
ATOM      5  N   UNL     1       1.002   1.836  25.646  0.00  0.00    -0.229 NA
ATOM     14  C   UNL     1      -1.438   2.942  25.121  0.00  0.00    +0.050 A 
ATOM     18  C   UNL     1      -0.790   2.276  24.100  0.00  0.00    +0.055 A 
ATOM     22  C   UNL     1       0.439   1.737  24.424  0.00  0.00    +0.110 A 
ATOM     23  C   UNL     1       0.272   2.511  26.555  0.00  0.00    +0.127 A 
ATOM     25  C   UNL     1       0.862   2.640  27.919  0.00  0.00    +0.088 C 
BRANCH  22  24
ATOM      1  O   UNL     1       2.545   1.328  23.429  0.00  0.00    -0.461 OA
ATOM     24  C   UNL     1       1.222   1.018  23.455  0.00  0.00    +0.153 A 
ATOM     26  C   UNL     1       0.933   0.054  22.516  0.00  0.00    +0.051 A 
ATOM     27  C   UNL     1       2.156  -0.246  21.872  0.00  0.00    +0.042 A 
ATOM     28  C   UNL     1       3.107   0.555  22.463  0.00  0.00    +0.196 A 
ENDBRANCH  22  24
ENDBRANCH   8  14
BRANCH   7  13
ATOM     13  C   UNL     1      -5.241   0.477  24.664  0.00  0.00    +0.100 C 
BRANCH  13   3
ATOM      3  N   UNL     1      -4.435  -0.245  25.635  0.00  0.00    -0.312 NA
ATOM     29  H   UNL     1      -4.993  -1.003  26.027  0.00  0.00    +0.122 HD
BRANCH   3  15
ATOM     15  C   UNL     1      -3.229  -0.791  25.014  0.00  0.00    +0.054 C 
ATOM     16  C   UNL     1      -3.452  -2.263  24.650  0.00  0.00    +0.019 C 
ATOM     17  C   UNL     1      -2.037  -0.631  25.964  0.00  0.00    +0.019 C 
ATOM     19  C   UNL     1      -2.185  -2.889  24.067  0.00  0.00    +0.002 C 
ATOM     20  C   UNL     1      -0.773  -1.260  25.380  0.00  0.00    +0.002 C 
ATOM     21  C   UNL     1      -0.993  -2.722  25.005  0.00  0.00    +0.000 C 
ENDBRANCH   3  15
ENDBRANCH  13   3
ENDBRANCH   7  13
TORSDOF 5
ENDMDL
MODEL 5
REMARK VINA RESULT:      -2.9      1.866      6.722
REMARK  Name = 45360468
REMARK  6 active torsions:
REMARK  status: ('A' for Active; 'I' for Inactive)
REMARK    1  A    between atoms: N_3  and  C_13
REMARK    2  A    between atoms: N_3  and  C_15
REMARK    3  A    between atoms: C_7  and  C_13
REMARK    4  A    between atoms: C_8  and  C_14
REMARK    5  A    between atoms: C_22  and  C_24
REMARK    6  A    between atoms: C_23  and  C_25
REMARK                            x       y       z     vdW  Elec       q    Type
REMARK                         _______ _______ _______ _____ _____    ______ ____
ROOT
ATOM      2  N   UNL     1      -1.597  -1.916  23.774  0.00  0.00    -0.298 NA
ATOM      6  C   UNL     1      -3.045  -1.410  25.879  0.00  0.00    +0.002 C 
ATOM      7  C   UNL     1      -0.718  -1.665  24.946  0.00  0.00    +0.071 C 
ATOM      8  C   UNL     1      -3.502  -0.532  24.681  0.00  0.00    +0.055 C 
ATOM      9  C   UNL     1      -1.546  -1.162  26.149  0.00  0.00    +0.024 C 
ATOM     10  C   UNL     1      -3.189  -2.881  25.434  0.00  0.00    +0.019 C 
ATOM     11  C   UNL     1      -2.472  -0.741  23.533  0.00  0.00    +0.094 C 
ATOM     12  C   UNL     1      -2.461  -3.078  24.093  0.00  0.00    +0.085 C 
ENDROOT
BRANCH   8  14
ATOM      4  N   UNL     1      -5.053   1.258  25.288  0.00  0.00    -0.237 NA
ATOM      5  N   UNL     1      -4.369   3.565  25.409  0.00  0.00    -0.229 NA
ATOM     14  C   UNL     1      -3.790   0.940  24.936  0.00  0.00    +0.050 A 
ATOM     18  C   UNL     1      -2.776   1.866  24.801  0.00  0.00    +0.055 A 
ATOM     22  C   UNL     1      -3.126   3.178  25.053  0.00  0.00    +0.110 A 
ATOM     23  C   UNL     1      -5.270   2.570  25.506  0.00  0.00    +0.127 A 
ATOM     25  C   UNL     1      -6.654   2.960  25.899  0.00  0.00    +0.088 C 
BRANCH  22  24
ATOM      1  O   UNL     1      -0.929   3.876  24.525  0.00  0.00    -0.461 OA
ATOM     24  C   UNL     1      -2.167   4.245  24.948  0.00  0.00    +0.153 A 
ATOM     26  C   UNL     1      -2.215   5.600  25.183  0.00  0.00    +0.051 A 
ATOM     27  C   UNL     1      -0.923   6.095  24.887  0.00  0.00    +0.042 A 
ATOM     28  C   UNL     1      -0.178   5.008  24.491  0.00  0.00    +0.196 A 
ENDBRANCH  22  24
ENDBRANCH   8  14
BRANCH   7  13
ATOM     13  C   UNL     1       0.439  -0.722  24.616  0.00  0.00    +0.100 C 
BRANCH  13   3
ATOM      3  N   UNL     1       0.637  -0.631  23.179  0.00  0.00    -0.312 NA
ATOM     29  H   UNL     1       0.123   0.175  22.826  0.00  0.00    +0.122 HD
BRANCH   3  15
ATOM     15  C   UNL     1       2.056  -0.493  22.852  0.00  0.00    +0.054 C 
ATOM     16  C   UNL     1       2.893  -1.373  23.787  0.00  0.00    +0.019 C 
ATOM     17  C   UNL     1       2.473   0.978  22.958  0.00  0.00    +0.019 C 
ATOM     19  C   UNL     1       4.388  -1.196  23.525  0.00  0.00    +0.002 C 
ATOM     20  C   UNL     1       3.968   1.152  22.698  0.00  0.00    +0.002 C 
ATOM     21  C   UNL     1       4.806   0.268  23.618  0.00  0.00    +0.000 C 
ENDBRANCH   3  15
ENDBRANCH  13   3
ENDBRANCH   7  13
TORSDOF 5
ENDMDL
MODEL 6
REMARK VINA RESULT:      -2.3      2.473      3.906
REMARK  Name = 45360468
REMARK  6 active torsions:
REMARK  status: ('A' for Active; 'I' for Inactive)
REMARK    1  A    between atoms: N_3  and  C_13
REMARK    2  A    between atoms: N_3  and  C_15
REMARK    3  A    between atoms: C_7  and  C_13
REMARK    4  A    between atoms: C_8  and  C_14
REMARK    5  A    between atoms: C_22  and  C_24
REMARK    6  A    between atoms: C_23  and  C_25
REMARK                            x       y       z     vdW  Elec       q    Type
REMARK                         _______ _______ _______ _____ _____    ______ ____
ROOT
ATOM      2  N   UNL     1      -5.082   2.768  23.959  0.00  0.00    -0.298 NA
ATOM      6  C   UNL     1      -3.849   3.770  26.023  0.00  0.00    +0.002 C 
ATOM      7  C   UNL     1      -5.390   1.966  25.173  0.00  0.00    +0.071 C 
ATOM      8  C   UNL     1      -2.860   3.577  24.839  0.00  0.00    +0.055 C 
ATOM      9  C   UNL     1      -4.510   2.417  26.359  0.00  0.00    +0.024 C 
ATOM     10  C   UNL     1      -4.967   4.709  25.521  0.00  0.00    +0.019 C 
ATOM     11  C   UNL     1      -3.616   2.796  23.726  0.00  0.00    +0.094 C 
ATOM     12  C   UNL     1      -5.538   4.157  24.203  0.00  0.00    +0.085 C 
ENDROOT
BRANCH   8  14
ATOM      4  N   UNL     1      -0.861   2.372  24.110  0.00  0.00    -0.237 NA
ATOM      5  N   UNL     1       0.967   1.894  25.605  0.00  0.00    -0.229 NA
ATOM     14  C   UNL     1      -1.492   2.981  25.135  0.00  0.00    +0.050 A 
ATOM     18  C   UNL     1      -0.964   3.085  26.406  0.00  0.00    +0.055 A 
ATOM     22  C   UNL     1       0.281   2.518  26.585  0.00  0.00    +0.110 A 
ATOM     23  C   UNL     1       0.347   1.857  24.411  0.00  0.00    +0.127 A 
ATOM     25  C   UNL     1       1.076   1.177  23.302  0.00  0.00    +0.088 C 
BRANCH  22  24
ATOM      1  O   UNL     1       2.239   2.973  27.832  0.00  0.00    -0.461 OA
ATOM     24  C   UNL     1       0.947   2.553  27.860  0.00  0.00    +0.153 A 
ATOM     26  C   UNL     1       0.565   2.249  29.147  0.00  0.00    +0.051 A 
ATOM     27  C   UNL     1       1.695   2.498  29.961  0.00  0.00    +0.042 A 
ATOM     28  C   UNL     1       2.687   2.937  29.114  0.00  0.00    +0.196 A 
ENDBRANCH  22  24
ENDBRANCH   8  14
BRANCH   7  13
ATOM     13  C   UNL     1      -5.281   0.462  24.922  0.00  0.00    +0.100 C 
BRANCH  13   3
ATOM      3  N   UNL     1      -4.317  -0.144  25.826  0.00  0.00    -0.312 NA
ATOM     29  H   UNL     1      -4.786  -0.866  26.372  0.00  0.00    +0.122 HD
BRANCH   3  15
ATOM     15  C   UNL     1      -3.201  -0.731  25.086  0.00  0.00    +0.054 C 
ATOM     16  C   UNL     1      -3.516  -2.191  24.742  0.00  0.00    +0.019 C 
ATOM     17  C   UNL     1      -1.914  -0.623  25.912  0.00  0.00    +0.019 C 
ATOM     19  C   UNL     1      -2.340  -2.862  24.034  0.00  0.00    +0.002 C 
ATOM     20  C   UNL     1      -0.740  -1.297  25.203  0.00  0.00    +0.002 C 
ATOM     21  C   UNL     1      -1.054  -2.747  24.848  0.00  0.00    +0.000 C 
ENDBRANCH   3  15
ENDBRANCH  13   3
ENDBRANCH   7  13
TORSDOF 5
ENDMDL
MODEL 7
REMARK VINA RESULT:      -2.2      1.962      6.479
REMARK  Name = 45360468
REMARK  6 active torsions:
REMARK  status: ('A' for Active; 'I' for Inactive)
REMARK    1  A    between atoms: N_3  and  C_13
REMARK    2  A    between atoms: N_3  and  C_15
REMARK    3  A    between atoms: C_7  and  C_13
REMARK    4  A    between atoms: C_8  and  C_14
REMARK    5  A    between atoms: C_22  and  C_24
REMARK    6  A    between atoms: C_23  and  C_25
REMARK                            x       y       z     vdW  Elec       q    Type
REMARK                         _______ _______ _______ _____ _____    ______ ____
ROOT
ATOM      2  N   UNL     1       0.460   2.683  25.563  0.00  0.00    -0.298 NA
ATOM      6  C   UNL     1      -1.508   3.686  24.183  0.00  0.00    +0.002 C 
ATOM      7  C   UNL     1       0.629   2.352  24.123  0.00  0.00    +0.071 C 
ATOM      8  C   UNL     1      -2.049   2.892  25.404  0.00  0.00    +0.055 C 
ATOM      9  C   UNL     1      -0.627   2.757  23.322  0.00  0.00    +0.024 C 
ATOM     10  C   UNL     1      -0.588   4.792  24.743  0.00  0.00    +0.019 C 
ATOM     11  C   UNL     1      -0.840   2.162  26.056  0.00  0.00    +0.094 C 
ATOM     12  C   UNL     1       0.445   4.159  25.692  0.00  0.00    +0.085 C 
ENDROOT
BRANCH   8  14
ATOM      4  N   UNL     1      -4.463   2.515  25.295  0.00  0.00    -0.237 NA
ATOM      5  N   UNL     1      -5.405   0.350  24.816  0.00  0.00    -0.229 NA
ATOM     14  C   UNL     1      -3.236   1.964  25.190  0.00  0.00    +0.050 A 
ATOM     18  C   UNL     1      -3.016   0.632  24.905  0.00  0.00    +0.055 A 
ATOM     22  C   UNL     1      -4.150  -0.136  24.726  0.00  0.00    +0.110 A 
ATOM     23  C   UNL     1      -5.488   1.664  25.099  0.00  0.00    +0.127 A 
ATOM     25  C   UNL     1      -6.861   2.237  25.206  0.00  0.00    +0.088 C 
BRANCH  22  24
ATOM      1  O   UNL     1      -3.298  -2.273  25.274  0.00  0.00    -0.461 OA
ATOM     24  C   UNL     1      -4.066  -1.540  24.425  0.00  0.00    +0.153 A 
ATOM     26  C   UNL     1      -4.602  -2.341  23.443  0.00  0.00    +0.051 A 
ATOM     27  C   UNL     1      -4.133  -3.650  23.705  0.00  0.00    +0.042 A 
ATOM     28  C   UNL     1      -3.344  -3.556  24.829  0.00  0.00    +0.196 A 
ENDBRANCH  22  24
ENDBRANCH   8  14
BRANCH   7  13
ATOM     13  C   UNL     1       0.997   0.884  23.902  0.00  0.00    +0.100 C 
BRANCH  13   3
ATOM      3  N   UNL     1       1.531   0.683  22.564  0.00  0.00    -0.312 NA
ATOM     29  H   UNL     1       1.585   1.585  22.092  0.00  0.00    +0.122 HD
BRANCH   3  15
ATOM     15  C   UNL     1       2.858   0.071  22.615  0.00  0.00    +0.054 C 
ATOM     16  C   UNL     1       2.874  -1.052  23.657  0.00  0.00    +0.019 C 
ATOM     17  C   UNL     1       3.910   1.139  22.937  0.00  0.00    +0.019 C 
ATOM     19  C   UNL     1       4.267  -1.664  23.793  0.00  0.00    +0.002 C 
ATOM     20  C   UNL     1       5.302   0.524  23.074  0.00  0.00    +0.002 C 
ATOM     21  C   UNL     1       5.320  -0.604  24.102  0.00  0.00    +0.000 C 
ENDBRANCH   3  15
ENDBRANCH  13   3
ENDBRANCH   7  13
TORSDOF 5
ENDMDL
MODEL 8
REMARK VINA RESULT:      -1.4      2.899      5.388
REMARK  Name = 45360468
REMARK  6 active torsions:
REMARK  status: ('A' for Active; 'I' for Inactive)
REMARK    1  A    between atoms: N_3  and  C_13
REMARK    2  A    between atoms: N_3  and  C_15
REMARK    3  A    between atoms: C_7  and  C_13
REMARK    4  A    between atoms: C_8  and  C_14
REMARK    5  A    between atoms: C_22  and  C_24
REMARK    6  A    between atoms: C_23  and  C_25
REMARK                            x       y       z     vdW  Elec       q    Type
REMARK                         _______ _______ _______ _____ _____    ______ ____
ROOT
ATOM      2  N   UNL     1      -4.034  -1.316  25.700  0.00  0.00    -0.298 NA
ATOM      6  C   UNL     1      -2.346  -0.680  23.822  0.00  0.00    +0.002 C 
ATOM      7  C   UNL     1      -4.675  -0.383  24.736  0.00  0.00    +0.071 C 
ATOM      8  C   UNL     1      -1.699  -0.489  25.222  0.00  0.00    +0.055 C 
ATOM      9  C   UNL     1      -3.634   0.166  23.736  0.00  0.00    +0.024 C 
ATOM     10  C   UNL     1      -2.768  -2.161  23.724  0.00  0.00    +0.019 C 
ATOM     11  C   UNL     1      -2.820  -0.691  26.282  0.00  0.00    +0.094 C 
ATOM     12  C   UNL     1      -3.618  -2.527  24.953  0.00  0.00    +0.085 C 
ENDROOT
BRANCH   8  14
ATOM      4  N   UNL     1      -0.789   1.645  24.449  0.00  0.00    -0.237 NA
ATOM      5  N   UNL     1       0.556   3.056  25.864  0.00  0.00    -0.229 NA
ATOM     14  C   UNL     1      -0.887   0.773  25.473  0.00  0.00    +0.050 A 
ATOM     18  C   UNL     1      -0.299   0.970  26.706  0.00  0.00    +0.055 A 
ATOM     22  C   UNL     1       0.417   2.141  26.846  0.00  0.00    +0.110 A 
ATOM     23  C   UNL     1      -0.063   2.749  24.709  0.00  0.00    +0.127 A 
ATOM     25  C   UNL     1       0.067   3.738  23.600  0.00  0.00    +0.088 C 
BRANCH  22  24
ATOM      1  O   UNL     1       2.334   2.984  27.946  0.00  0.00    -0.461 OA
ATOM     24  C   UNL     1       1.082   2.472  28.078  0.00  0.00    +0.153 A 
ATOM     26  C   UNL     1       0.732   2.388  29.407  0.00  0.00    +0.051 A 
ATOM     27  C   UNL     1       1.840   2.879  30.136  0.00  0.00    +0.042 A 
ATOM     28  C   UNL     1       2.789   3.229  29.203  0.00  0.00    +0.196 A 
ENDBRANCH  22  24
ENDBRANCH   8  14
BRANCH   7  13
ATOM     13  C   UNL     1      -5.442   0.741  25.434  0.00  0.00    +0.100 C 
BRANCH  13   3
ATOM      3  N   UNL     1      -5.753   1.810  24.500  0.00  0.00    -0.312 NA
ATOM     29  H   UNL     1      -6.762   1.954  24.487  0.00  0.00    +0.122 HD
BRANCH   3  15
ATOM     15  C   UNL     1      -5.083   3.052  24.882  0.00  0.00    +0.054 C 
ATOM     16  C   UNL     1      -3.962   3.367  23.886  0.00  0.00    +0.019 C 
ATOM     17  C   UNL     1      -4.537   2.930  26.309  0.00  0.00    +0.019 C 
ATOM     19  C   UNL     1      -3.189   4.619  24.298  0.00  0.00    +0.002 C 
ATOM     20  C   UNL     1      -3.762   4.182  26.717  0.00  0.00    +0.002 C 
ATOM     21  C   UNL     1      -2.652   4.507  25.722  0.00  0.00    +0.000 C 
ENDBRANCH   3  15
ENDBRANCH  13   3
ENDBRANCH   7  13
TORSDOF 5
ENDMDL
MODEL 9
REMARK VINA RESULT:      -0.4      1.823      4.431
REMARK  Name = 45360468
REMARK  6 active torsions:
REMARK  status: ('A' for Active; 'I' for Inactive)
REMARK    1  A    between atoms: N_3  and  C_13
REMARK    2  A    between atoms: N_3  and  C_15
REMARK    3  A    between atoms: C_7  and  C_13
REMARK    4  A    between atoms: C_8  and  C_14
REMARK    5  A    between atoms: C_22  and  C_24
REMARK    6  A    between atoms: C_23  and  C_25
REMARK                            x       y       z     vdW  Elec       q    Type
REMARK                         _______ _______ _______ _____ _____    ______ ____
ROOT
ATOM      2  N   UNL     1      -4.409   3.411  25.698  0.00  0.00    -0.298 NA
ATOM      6  C   UNL     1      -5.480   1.434  24.384  0.00  0.00    +0.002 C 
ATOM      7  C   UNL     1      -4.381   3.697  24.239  0.00  0.00    +0.071 C 
ATOM      8  C   UNL     1      -4.417   0.907  25.389  0.00  0.00    +0.055 C 
ATOM      9  C   UNL     1      -4.820   2.454  23.433  0.00  0.00    +0.024 C 
ATOM     10  C   UNL     1      -6.534   2.200  25.212  0.00  0.00    +0.019 C 
ATOM     11  C   UNL     1      -3.686   2.146  25.983  0.00  0.00    +0.094 C 
ATOM     12  C   UNL     1      -5.825   3.236  26.101  0.00  0.00    +0.085 C 
ENDROOT
BRANCH   8  14
ATOM      4  N   UNL     1      -3.851  -1.444  25.027  0.00  0.00    -0.237 NA
ATOM      5  N   UNL     1      -1.746  -2.128  24.076  0.00  0.00    -0.229 NA
ATOM     14  C   UNL     1      -3.446  -0.163  24.913  0.00  0.00    +0.050 A 
ATOM     18  C   UNL     1      -2.221   0.210  24.397  0.00  0.00    +0.055 A 
ATOM     22  C   UNL     1      -1.404  -0.825  23.990  0.00  0.00    +0.110 A 
ATOM     23  C   UNL     1      -2.965  -2.363  24.597  0.00  0.00    +0.127 A 
ATOM     25  C   UNL     1      -3.379  -3.791  24.706  0.00  0.00    +0.088 C 
BRANCH  22  24
ATOM      1  O   UNL     1       0.945  -1.018  24.184  0.00  0.00    -0.461 OA
ATOM     24  C   UNL     1      -0.100  -0.579  23.435  0.00  0.00    +0.153 A 
ATOM     26  C   UNL     1       0.351   0.018  22.280  0.00  0.00    +0.051 A 
ATOM     27  C   UNL     1       1.763  -0.058  22.323  0.00  0.00    +0.042 A 
ATOM     28  C   UNL     1       2.075  -0.697  23.502  0.00  0.00    +0.196 A 
ENDBRANCH  22  24
ENDBRANCH   8  14
BRANCH   7  13
ATOM     13  C   UNL     1      -3.025   4.228  23.774  0.00  0.00    +0.100 C 
BRANCH  13   3
ATOM      3  N   UNL     1      -2.353   4.938  24.849  0.00  0.00    -0.312 NA
ATOM     29  H   UNL     1      -2.951   4.928  25.675  0.00  0.00    +0.122 HD
BRANCH   3  15
ATOM     15  C   UNL     1      -1.067   4.318  25.165  0.00  0.00    +0.054 C 
ATOM     16  C   UNL     1      -0.610   3.441  23.993  0.00  0.00    +0.019 C 
ATOM     17  C   UNL     1      -1.188   3.498  26.454  0.00  0.00    +0.019 C 
ATOM     19  C   UNL     1       0.694   2.715  24.318  0.00  0.00    +0.002 C 
ATOM     20  C   UNL     1       0.118   2.771  26.775  0.00  0.00    +0.002 C 
ATOM     21  C   UNL     1       0.583   1.906  25.607  0.00  0.00    +0.000 C 
ENDBRANCH   3  15
ENDBRANCH  13   3
ENDBRANCH   7  13
TORSDOF 5
ENDMDL
