MODEL 1
REMARK VINA RESULT:      -6.6      0.000      0.000
REMARK  Name = 75536581
REMARK  10 active torsions:
REMARK  status: ('A' for Active; 'I' for Inactive)
REMARK    1  A    between atoms: O_2  and  C_9
REMARK    2  A    between atoms: O_4  and  C_16
REMARK    3  A    between atoms: O_5  and  C_18
REMARK    4  A    between atoms: O_5  and  C_22
REMARK    5  A    between atoms: N_6  and  C_8
REMARK    6  A    between atoms: N_6  and  C_13
REMARK    7  A    between atoms: N_7  and  C_12
REMARK    8  A    between atoms: C_10  and  C_12
REMARK    9  A    between atoms: C_13  and  C_14
REMARK   10  A    between atoms: C_15  and  C_18
REMARK                            x       y       z     vdW  Elec       q    Type
REMARK                         _______ _______ _______ _____ _____    ______ ____
ROOT
ATOM      1  O   UNL     1      -0.365   0.406  25.285  0.00  0.00    -0.371 OA
ATOM      8  C   UNL     1      -2.258  -0.979  25.659  0.00  0.00    +0.111 C 
ATOM      9  C   UNL     1      -1.670  -1.301  24.297  0.00  0.00    +0.164 C 
ATOM     10  C   UNL     1      -0.255  -0.762  24.454  0.00  0.00    +0.165 C 
ATOM     11  C   UNL     1      -1.647   0.386  25.934  0.00  0.00    +0.181 C 
ENDROOT
BRANCH   9   2
ATOM      2  O   UNL     1      -1.679  -2.687  24.013  0.00  0.00    -0.388 OA
ATOM     24  H   UNL     1      -1.228  -3.150  24.738  0.00  0.00    +0.210 HD
ENDBRANCH   9   2
BRANCH   8   6
ATOM      6  N   UNL     1      -3.712  -0.962  25.678  0.00  0.00    -0.305 NA
ATOM     23  H   UNL     1      -4.028  -0.430  26.490  0.00  0.00    +0.123 HD
BRANCH   6  13
ATOM     13  C   UNL     1      -4.246  -0.341  24.471  0.00  0.00    +0.120 C 
BRANCH  13  14
ATOM     14  C   UNL     1      -4.457   1.139  24.649  0.00  0.00    +0.008 A 
ATOM     16  C   UNL     1      -3.749   2.059  23.875  0.00  0.00    +0.121 A 
ATOM     17  C   UNL     1      -5.373   1.587  25.602  0.00  0.00    +0.008 A 
ATOM     19  C   UNL     1      -3.957   3.427  24.053  0.00  0.00    +0.046 A 
ATOM     20  C   UNL     1      -5.580   2.955  25.779  0.00  0.00    +0.001 A 
ATOM     21  C   UNL     1      -4.872   3.875  25.006  0.00  0.00    +0.004 A 
BRANCH  16   4
ATOM      4  O   UNL     1      -2.851   1.638  22.941  0.00  0.00    -0.506 OA
ATOM     26  H   UNL     1      -1.964   1.621  23.339  0.00  0.00    +0.292 HD
ENDBRANCH  16   4
ENDBRANCH  13  14
ENDBRANCH   6  13
ENDBRANCH   8   6
BRANCH  10  12
ATOM     12  C   UNL     1       0.395  -0.392  23.133  0.00  0.00    +0.138 C 
BRANCH  12   7
ATOM      3  O   UNL     1       2.564  -0.179  21.230  0.00  0.00    -0.273 OA
ATOM      7  N   UNL     1       1.668   0.239  23.336  0.00  0.00    -0.311 N 
ATOM     15  C   UNL     1       2.657   0.294  22.359  0.00  0.00    +0.239 C 
ATOM     25  H   UNL     1       1.851   0.654  24.246  0.00  0.00    +0.149 HD
BRANCH  15  18
ATOM     18  C   UNL     1       3.895   1.019  22.844  0.00  0.00    +0.255 C 
BRANCH  18   5
ATOM      5  O   UNL     1       5.031   0.186  22.745  0.00  0.00    -0.374 OA
ATOM     22  C   UNL     1       5.435  -0.314  24.017  0.00  0.00    +0.194 C 
ENDBRANCH  18   5
ENDBRANCH  15  18
ENDBRANCH  12   7
ENDBRANCH  10  12
TORSDOF 9
ENDMDL
MODEL 2
REMARK VINA RESULT:      -6.5      2.948      6.259
REMARK  Name = 75536581
REMARK  10 active torsions:
REMARK  status: ('A' for Active; 'I' for Inactive)
REMARK    1  A    between atoms: O_2  and  C_9
REMARK    2  A    between atoms: O_4  and  C_16
REMARK    3  A    between atoms: O_5  and  C_18
REMARK    4  A    between atoms: O_5  and  C_22
REMARK    5  A    between atoms: N_6  and  C_8
REMARK    6  A    between atoms: N_6  and  C_13
REMARK    7  A    between atoms: N_7  and  C_12
REMARK    8  A    between atoms: C_10  and  C_12
REMARK    9  A    between atoms: C_13  and  C_14
REMARK   10  A    between atoms: C_15  and  C_18
REMARK                            x       y       z     vdW  Elec       q    Type
REMARK                         _______ _______ _______ _____ _____    ______ ____
ROOT
ATOM      1  O   UNL     1      -0.712   3.108  26.549  0.00  0.00    -0.371 OA
ATOM      8  C   UNL     1       0.112   1.639  24.874  0.00  0.00    +0.111 C 
ATOM      9  C   UNL     1      -0.568   2.821  24.206  0.00  0.00    +0.164 C 
ATOM     10  C   UNL     1      -0.540   3.848  25.329  0.00  0.00    +0.165 C 
ATOM     11  C   UNL     1      -0.462   1.718  26.280  0.00  0.00    +0.181 C 
ENDROOT
BRANCH   9   2
ATOM      2  O   UNL     1       0.126   3.273  23.059  0.00  0.00    -0.388 OA
ATOM     24  H   UNL     1      -0.407   3.964  22.633  0.00  0.00    +0.210 HD
ENDBRANCH   9   2
BRANCH   8   6
ATOM      6  N   UNL     1      -0.157   0.367  24.224  0.00  0.00    -0.305 NA
ATOM     23  H   UNL     1       0.708   0.016  23.809  0.00  0.00    +0.123 HD
BRANCH   6  13
ATOM     13  C   UNL     1      -0.654  -0.616  25.179  0.00  0.00    +0.120 C 
BRANCH  13  14
ATOM     14  C   UNL     1      -1.943  -1.244  24.717  0.00  0.00    +0.008 A 
ATOM     16  C   UNL     1      -3.057  -0.456  24.429  0.00  0.00    +0.121 A 
ATOM     17  C   UNL     1      -2.013  -2.630  24.578  0.00  0.00    +0.008 A 
ATOM     19  C   UNL     1      -4.243  -1.055  24.003  0.00  0.00    +0.046 A 
ATOM     20  C   UNL     1      -3.199  -3.228  24.152  0.00  0.00    +0.001 A 
ATOM     21  C   UNL     1      -4.314  -2.440  23.865  0.00  0.00    +0.004 A 
BRANCH  16   4
ATOM      4  O   UNL     1      -3.005   0.899  24.560  0.00  0.00    -0.506 OA
ATOM     26  H   UNL     1      -3.023   1.127  25.506  0.00  0.00    +0.292 HD
ENDBRANCH  16   4
ENDBRANCH  13  14
ENDBRANCH   6  13
ENDBRANCH   8   6
BRANCH  10  12
ATOM     12  C   UNL     1      -1.630   4.898  25.208  0.00  0.00    +0.138 C 
BRANCH  12   7
ATOM      3  O   UNL     1      -3.855   3.731  23.775  0.00  0.00    -0.273 OA
ATOM      7  N   UNL     1      -2.869   4.431  25.762  0.00  0.00    -0.311 N 
ATOM     15  C   UNL     1      -3.889   3.881  24.993  0.00  0.00    +0.239 C 
ATOM     25  H   UNL     1      -3.002   4.521  26.766  0.00  0.00    +0.149 HD
BRANCH  15  18
ATOM     18  C   UNL     1      -5.079   3.473  25.836  0.00  0.00    +0.255 C 
BRANCH  18   5
ATOM      5  O   UNL     1      -5.277   2.077  25.776  0.00  0.00    -0.374 OA
ATOM     22  C   UNL     1      -6.407   1.733  24.979  0.00  0.00    +0.194 C 
ENDBRANCH  18   5
ENDBRANCH  15  18
ENDBRANCH  12   7
ENDBRANCH  10  12
TORSDOF 9
ENDMDL
MODEL 3
REMARK VINA RESULT:      -6.3      1.905      3.810
REMARK  Name = 75536581
REMARK  10 active torsions:
REMARK  status: ('A' for Active; 'I' for Inactive)
REMARK    1  A    between atoms: O_2  and  C_9
REMARK    2  A    between atoms: O_4  and  C_16
REMARK    3  A    between atoms: O_5  and  C_18
REMARK    4  A    between atoms: O_5  and  C_22
REMARK    5  A    between atoms: N_6  and  C_8
REMARK    6  A    between atoms: N_6  and  C_13
REMARK    7  A    between atoms: N_7  and  C_12
REMARK    8  A    between atoms: C_10  and  C_12
REMARK    9  A    between atoms: C_13  and  C_14
REMARK   10  A    between atoms: C_15  and  C_18
REMARK                            x       y       z     vdW  Elec       q    Type
REMARK                         _______ _______ _______ _____ _____    ______ ____
ROOT
ATOM      1  O   UNL     1      -1.127   1.999  22.911  0.00  0.00    -0.371 OA
ATOM      8  C   UNL     1      -3.243   2.481  23.878  0.00  0.00    +0.111 C 
ATOM      9  C   UNL     1      -2.180   2.536  24.960  0.00  0.00    +0.164 C 
ATOM     10  C   UNL     1      -0.922   2.739  24.125  0.00  0.00    +0.165 C 
ATOM     11  C   UNL     1      -2.527   1.691  22.793  0.00  0.00    +0.181 C 
ENDROOT
BRANCH   9   2
ATOM      2  O   UNL     1      -2.385   3.597  25.873  0.00  0.00    -0.388 OA
ATOM     24  H   UNL     1      -2.464   4.423  25.368  0.00  0.00    +0.210 HD
ENDBRANCH   9   2
BRANCH   8   6
ATOM      6  N   UNL     1      -4.482   1.855  24.308  0.00  0.00    -0.305 NA
ATOM     23  H   UNL     1      -4.877   1.328  23.528  0.00  0.00    +0.123 HD
BRANCH   6  13
ATOM     13  C   UNL     1      -4.251   0.945  25.424  0.00  0.00    +0.120 C 
BRANCH  13  14
ATOM     14  C   UNL     1      -3.859  -0.430  24.953  0.00  0.00    +0.008 A 
ATOM     16  C   UNL     1      -2.643  -0.996  25.338  0.00  0.00    +0.121 A 
ATOM     17  C   UNL     1      -4.727  -1.140  24.124  0.00  0.00    +0.008 A 
ATOM     19  C   UNL     1      -2.295  -2.271  24.893  0.00  0.00    +0.046 A 
ATOM     20  C   UNL     1      -4.379  -2.416  23.679  0.00  0.00    +0.001 A 
ATOM     21  C   UNL     1      -3.163  -2.981  24.063  0.00  0.00    +0.004 A 
BRANCH  16   4
ATOM      4  O   UNL     1      -1.783  -0.316  26.147  0.00  0.00    -0.506 OA
ATOM     26  H   UNL     1      -2.086  -0.395  27.069  0.00  0.00    +0.292 HD
ENDBRANCH  16   4
ENDBRANCH  13  14
ENDBRANCH   6  13
ENDBRANCH   8   6
BRANCH  10  12
ATOM     12  C   UNL     1       0.340   2.255  24.816  0.00  0.00    +0.138 C 
BRANCH  12   7
ATOM      3  O   UNL     1       0.509  -0.479  23.886  0.00  0.00    -0.273 OA
ATOM      7  N   UNL     1       1.278   1.717  23.872  0.00  0.00    -0.311 N 
ATOM     15  C   UNL     1       1.285   0.382  23.480  0.00  0.00    +0.239 C 
ATOM     25  H   UNL     1       1.973   2.348  23.483  0.00  0.00    +0.149 HD
BRANCH  15  18
ATOM     18  C   UNL     1       2.379   0.090  22.475  0.00  0.00    +0.255 C 
BRANCH  18   5
ATOM      5  O   UNL     1       3.466   0.974  22.651  0.00  0.00    -0.374 OA
ATOM     22  C   UNL     1       4.648   0.288  23.055  0.00  0.00    +0.194 C 
ENDBRANCH  18   5
ENDBRANCH  15  18
ENDBRANCH  12   7
ENDBRANCH  10  12
TORSDOF 9
ENDMDL
MODEL 4
REMARK VINA RESULT:      -5.9      2.507      4.645
REMARK  Name = 75536581
REMARK  10 active torsions:
REMARK  status: ('A' for Active; 'I' for Inactive)
REMARK    1  A    between atoms: O_2  and  C_9
REMARK    2  A    between atoms: O_4  and  C_16
REMARK    3  A    between atoms: O_5  and  C_18
REMARK    4  A    between atoms: O_5  and  C_22
REMARK    5  A    between atoms: N_6  and  C_8
REMARK    6  A    between atoms: N_6  and  C_13
REMARK    7  A    between atoms: N_7  and  C_12
REMARK    8  A    between atoms: C_10  and  C_12
REMARK    9  A    between atoms: C_13  and  C_14
REMARK   10  A    between atoms: C_15  and  C_18
REMARK                            x       y       z     vdW  Elec       q    Type
REMARK                         _______ _______ _______ _____ _____    ______ ____
ROOT
ATOM      1  O   UNL     1       0.231   2.879  23.431  0.00  0.00    -0.371 OA
ATOM      8  C   UNL     1      -0.766   3.829  25.366  0.00  0.00    +0.111 C 
ATOM      9  C   UNL     1      -0.652   2.327  25.555  0.00  0.00    +0.164 C 
ATOM     10  C   UNL     1       0.430   1.986  24.540  0.00  0.00    +0.165 C 
ATOM     11  C   UNL     1      -0.622   3.954  23.857  0.00  0.00    +0.181 C 
ENDROOT
BRANCH   9   2
ATOM      2  O   UNL     1      -0.274   1.970  26.870  0.00  0.00    -0.388 OA
ATOM     24  H   UNL     1      -0.447   1.021  26.990  0.00  0.00    +0.210 HD
ENDBRANCH   9   2
BRANCH   8   6
ATOM      6  N   UNL     1      -2.013   4.387  25.863  0.00  0.00    -0.305 NA
ATOM     23  H   UNL     1      -1.849   5.346  26.171  0.00  0.00    +0.123 HD
BRANCH   6  13
ATOM     13  C   UNL     1      -3.036   4.393  24.825  0.00  0.00    +0.120 C 
BRANCH  13  14
ATOM     14  C   UNL     1      -4.032   3.280  25.013  0.00  0.00    +0.008 A 
ATOM     16  C   UNL     1      -3.954   2.116  24.247  0.00  0.00    +0.121 A 
ATOM     17  C   UNL     1      -5.041   3.421  25.966  0.00  0.00    +0.008 A 
ATOM     19  C   UNL     1      -4.886   1.095  24.434  0.00  0.00    +0.046 A 
ATOM     20  C   UNL     1      -5.972   2.399  26.152  0.00  0.00    +0.001 A 
ATOM     21  C   UNL     1      -5.894   1.236  25.386  0.00  0.00    +0.004 A 
BRANCH  16   4
ATOM      4  O   UNL     1      -2.975   1.962  23.312  0.00  0.00    -0.506 OA
ATOM     26  H   UNL     1      -2.709   1.027  23.283  0.00  0.00    +0.292 HD
ENDBRANCH  16   4
ENDBRANCH  13  14
ENDBRANCH   6  13
ENDBRANCH   8   6
BRANCH  10  12
ATOM     12  C   UNL     1       0.368   0.547  24.058  0.00  0.00    +0.138 C 
BRANCH  12   7
ATOM      3  O   UNL     1      -0.161  -1.900  25.506  0.00  0.00    -0.273 OA
ATOM      7  N   UNL     1      -0.913  -0.039  24.330  0.00  0.00    -0.311 N 
ATOM     15  C   UNL     1      -1.074  -1.226  25.039  0.00  0.00    +0.239 C 
ATOM     25  H   UNL     1      -1.737   0.438  23.975  0.00  0.00    +0.149 HD
BRANCH  15  18
ATOM     18  C   UNL     1      -2.531  -1.611  25.179  0.00  0.00    +0.255 C 
BRANCH  18   5
ATOM      5  O   UNL     1      -2.881  -2.592  24.226  0.00  0.00    -0.374 OA
ATOM     22  C   UNL     1      -4.237  -2.466  23.807  0.00  0.00    +0.194 C 
ENDBRANCH  18   5
ENDBRANCH  15  18
ENDBRANCH  12   7
ENDBRANCH  10  12
TORSDOF 9
ENDMDL
MODEL 5
REMARK VINA RESULT:      -5.9      2.454      4.882
REMARK  Name = 75536581
REMARK  10 active torsions:
REMARK  status: ('A' for Active; 'I' for Inactive)
REMARK    1  A    between atoms: O_2  and  C_9
REMARK    2  A    between atoms: O_4  and  C_16
REMARK    3  A    between atoms: O_5  and  C_18
REMARK    4  A    between atoms: O_5  and  C_22
REMARK    5  A    between atoms: N_6  and  C_8
REMARK    6  A    between atoms: N_6  and  C_13
REMARK    7  A    between atoms: N_7  and  C_12
REMARK    8  A    between atoms: C_10  and  C_12
REMARK    9  A    between atoms: C_13  and  C_14
REMARK   10  A    between atoms: C_15  and  C_18
REMARK                            x       y       z     vdW  Elec       q    Type
REMARK                         _______ _______ _______ _____ _____    ______ ____
ROOT
ATOM      1  O   UNL     1      -3.044   3.536  23.304  0.00  0.00    -0.371 OA
ATOM      8  C   UNL     1      -4.778   2.486  24.542  0.00  0.00    +0.111 C 
ATOM      9  C   UNL     1      -3.789   3.113  25.508  0.00  0.00    +0.164 C 
ATOM     10  C   UNL     1      -3.108   4.135  24.609  0.00  0.00    +0.165 C 
ATOM     11  C   UNL     1      -3.953   2.422  23.266  0.00  0.00    +0.181 C 
ENDROOT
BRANCH   9   2
ATOM      2  O   UNL     1      -4.421   3.723  26.617  0.00  0.00    -0.388 OA
ATOM     24  H   UNL     1      -4.179   4.664  26.626  0.00  0.00    +0.210 HD
ENDBRANCH   9   2
BRANCH   8   6
ATOM      6  N   UNL     1      -5.265   1.184  24.967  0.00  0.00    -0.305 NA
ATOM     23  H   UNL     1      -5.456   0.615  24.142  0.00  0.00    +0.123 HD
BRANCH   6  13
ATOM     13  C   UNL     1      -4.278   0.499  25.793  0.00  0.00    +0.120 C 
BRANCH  13  14
ATOM     14  C   UNL     1      -3.738  -0.733  25.117  0.00  0.00    +0.008 A 
ATOM     16  C   UNL     1      -2.427  -1.155  25.342  0.00  0.00    +0.121 A 
ATOM     17  C   UNL     1      -4.565  -1.456  24.257  0.00  0.00    +0.008 A 
ATOM     19  C   UNL     1      -1.944  -2.298  24.707  0.00  0.00    +0.046 A 
ATOM     20  C   UNL     1      -4.081  -2.599  23.621  0.00  0.00    +0.001 A 
ATOM     21  C   UNL     1      -2.770  -3.020  23.846  0.00  0.00    +0.004 A 
BRANCH  16   4
ATOM      4  O   UNL     1      -1.607  -0.460  26.179  0.00  0.00    -0.506 OA
ATOM     26  H   UNL     1      -1.230   0.297  25.698  0.00  0.00    +0.292 HD
ENDBRANCH  16   4
ENDBRANCH  13  14
ENDBRANCH   6  13
ENDBRANCH   8   6
BRANCH  10  12
ATOM     12  C   UNL     1      -1.710   4.505  25.073  0.00  0.00    +0.138 C 
BRANCH  12   7
ATOM      3  O   UNL     1      -0.571   2.141  26.289  0.00  0.00    -0.273 OA
ATOM      7  N   UNL     1      -0.724   3.629  24.508  0.00  0.00    -0.311 N 
ATOM     15  C   UNL     1      -0.231   2.508  25.168  0.00  0.00    +0.239 C 
ATOM     25  H   UNL     1      -0.366   3.854  23.583  0.00  0.00    +0.149 HD
BRANCH  15  18
ATOM     18  C   UNL     1       0.798   1.768  24.340  0.00  0.00    +0.255 C 
BRANCH  18   5
ATOM      5  O   UNL     1       0.272   0.545  23.869  0.00  0.00    -0.374 OA
ATOM     22  C   UNL     1       1.091  -0.031  22.856  0.00  0.00    +0.194 C 
ENDBRANCH  18   5
ENDBRANCH  15  18
ENDBRANCH  12   7
ENDBRANCH  10  12
TORSDOF 9
ENDMDL
MODEL 6
REMARK VINA RESULT:      -5.6      2.893      5.257
REMARK  Name = 75536581
REMARK  10 active torsions:
REMARK  status: ('A' for Active; 'I' for Inactive)
REMARK    1  A    between atoms: O_2  and  C_9
REMARK    2  A    between atoms: O_4  and  C_16
REMARK    3  A    between atoms: O_5  and  C_18
REMARK    4  A    between atoms: O_5  and  C_22
REMARK    5  A    between atoms: N_6  and  C_8
REMARK    6  A    between atoms: N_6  and  C_13
REMARK    7  A    between atoms: N_7  and  C_12
REMARK    8  A    between atoms: C_10  and  C_12
REMARK    9  A    between atoms: C_13  and  C_14
REMARK   10  A    between atoms: C_15  and  C_18
REMARK                            x       y       z     vdW  Elec       q    Type
REMARK                         _______ _______ _______ _____ _____    ______ ____
ROOT
ATOM      1  O   UNL     1      -3.493   3.585  23.805  0.00  0.00    -0.371 OA
ATOM      8  C   UNL     1      -5.092   1.893  24.277  0.00  0.00    +0.111 C 
ATOM      9  C   UNL     1      -4.683   2.565  25.575  0.00  0.00    +0.164 C 
ATOM     10  C   UNL     1      -4.125   3.884  25.060  0.00  0.00    +0.165 C 
ATOM     11  C   UNL     1      -3.950   2.297  23.357  0.00  0.00    +0.181 C 
ENDROOT
BRANCH   9   2
ATOM      2  O   UNL     1      -5.773   2.760  26.455  0.00  0.00    -0.388 OA
ATOM     24  H   UNL     1      -5.831   1.990  27.045  0.00  0.00    +0.210 HD
ENDBRANCH   9   2
BRANCH   8   6
ATOM      6  N   UNL     1      -5.246   0.452  24.388  0.00  0.00    -0.305 NA
ATOM     23  H   UNL     1      -4.809   0.008  23.580  0.00  0.00    +0.123 HD
BRANCH   6  13
ATOM     13  C   UNL     1      -4.613  -0.051  25.601  0.00  0.00    +0.120 C 
BRANCH  13  14
ATOM     14  C   UNL     1      -3.382  -0.864  25.296  0.00  0.00    +0.008 A 
ATOM     16  C   UNL     1      -3.436  -1.928  24.396  0.00  0.00    +0.121 A 
ATOM     17  C   UNL     1      -2.180  -0.541  25.925  0.00  0.00    +0.008 A 
ATOM     19  C   UNL     1      -2.286  -2.671  24.125  0.00  0.00    +0.046 A 
ATOM     20  C   UNL     1      -1.030  -1.285  25.654  0.00  0.00    +0.001 A 
ATOM     21  C   UNL     1      -1.084  -2.349  24.754  0.00  0.00    +0.004 A 
BRANCH  16   4
ATOM      4  O   UNL     1      -4.602  -2.256  23.773  0.00  0.00    -0.506 OA
ATOM     26  H   UNL     1      -5.335  -1.785  24.205  0.00  0.00    +0.292 HD
ENDBRANCH  16   4
ENDBRANCH  13  14
ENDBRANCH   6  13
ENDBRANCH   8   6
BRANCH  10  12
ATOM     12  C   UNL     1      -3.119   4.519  26.003  0.00  0.00    +0.138 C 
BRANCH  12   7
ATOM      3  O   UNL     1      -0.530   4.542  24.714  0.00  0.00    -0.273 OA
ATOM      7  N   UNL     1      -2.015   3.638  26.259  0.00  0.00    -0.311 N 
ATOM     15  C   UNL     1      -0.800   3.722  25.587  0.00  0.00    +0.239 C 
ATOM     25  H   UNL     1      -2.142   2.912  26.960  0.00  0.00    +0.149 HD
BRANCH  15  18
ATOM     18  C   UNL     1       0.183   2.670  26.057  0.00  0.00    +0.255 C 
BRANCH  18   5
ATOM      5  O   UNL     1       0.872   2.108  24.962  0.00  0.00    -0.374 OA
ATOM     22  C   UNL     1      -0.015   1.474  24.044  0.00  0.00    +0.194 C 
ENDBRANCH  18   5
ENDBRANCH  15  18
ENDBRANCH  12   7
ENDBRANCH  10  12
TORSDOF 9
ENDMDL
MODEL 7
REMARK VINA RESULT:      -4.9      2.313      2.566
REMARK  Name = 75536581
REMARK  10 active torsions:
REMARK  status: ('A' for Active; 'I' for Inactive)
REMARK    1  A    between atoms: O_2  and  C_9
REMARK    2  A    between atoms: O_4  and  C_16
REMARK    3  A    between atoms: O_5  and  C_18
REMARK    4  A    between atoms: O_5  and  C_22
REMARK    5  A    between atoms: N_6  and  C_8
REMARK    6  A    between atoms: N_6  and  C_13
REMARK    7  A    between atoms: N_7  and  C_12
REMARK    8  A    between atoms: C_10  and  C_12
REMARK    9  A    between atoms: C_13  and  C_14
REMARK   10  A    between atoms: C_15  and  C_18
REMARK                            x       y       z     vdW  Elec       q    Type
REMARK                         _______ _______ _______ _____ _____    ______ ____
ROOT
ATOM      1  O   UNL     1      -1.211  -0.944  26.224  0.00  0.00    -0.371 OA
ATOM      8  C   UNL     1      -3.332  -1.617  25.392  0.00  0.00    +0.111 C 
ATOM      9  C   UNL     1      -2.277  -1.882  24.333  0.00  0.00    +0.164 C 
ATOM     10  C   UNL     1      -1.012  -1.911  25.180  0.00  0.00    +0.165 C 
ATOM     11  C   UNL     1      -2.612  -0.624  26.291  0.00  0.00    +0.181 C 
ENDROOT
BRANCH   9   2
ATOM      2  O   UNL     1      -2.484  -3.105  23.651  0.00  0.00    -0.388 OA
ATOM     24  H   UNL     1      -3.120  -2.950  22.933  0.00  0.00    +0.210 HD
ENDBRANCH   9   2
BRANCH   8   6
ATOM      6  N   UNL     1      -4.578  -1.094  24.857  0.00  0.00    -0.305 NA
ATOM     23  H   UNL     1      -5.125  -0.692  25.619  0.00  0.00    +0.123 HD
BRANCH   6  13
ATOM     13  C   UNL     1      -4.328  -0.061  23.859  0.00  0.00    +0.120 C 
BRANCH  13  14
ATOM     14  C   UNL     1      -4.552   1.321  24.415  0.00  0.00    +0.008 A 
ATOM     16  C   UNL     1      -3.881   2.421  23.881  0.00  0.00    +0.121 A 
ATOM     17  C   UNL     1      -5.443   1.492  25.475  0.00  0.00    +0.008 A 
ATOM     19  C   UNL     1      -4.100   3.694  24.409  0.00  0.00    +0.046 A 
ATOM     20  C   UNL     1      -5.661   2.766  26.002  0.00  0.00    +0.001 A 
ATOM     21  C   UNL     1      -4.990   3.866  25.469  0.00  0.00    +0.004 A 
BRANCH  16   4
ATOM      4  O   UNL     1      -3.009   2.271  22.846  0.00  0.00    -0.506 OA
ATOM     26  H   UNL     1      -2.655   3.143  22.601  0.00  0.00    +0.292 HD
ENDBRANCH  16   4
ENDBRANCH  13  14
ENDBRANCH   6  13
ENDBRANCH   8   6
BRANCH  10  12
ATOM     12  C   UNL     1       0.242  -1.569  24.396  0.00  0.00    +0.138 C 
BRANCH  12   7
ATOM      3  O   UNL     1      -0.810   0.715  22.966  0.00  0.00    -0.273 OA
ATOM      7  N   UNL     1       0.608  -0.192  24.571  0.00  0.00    -0.311 N 
ATOM     15  C   UNL     1       0.046   0.846  23.835  0.00  0.00    +0.239 C 
ATOM     25  H   UNL     1       1.321   0.023  25.263  0.00  0.00    +0.149 HD
BRANCH  15  18
ATOM     18  C   UNL     1       0.616   2.193  24.227  0.00  0.00    +0.255 C 
BRANCH  18   5
ATOM      5  O   UNL     1       0.503   2.396  25.619  0.00  0.00    -0.374 OA
ATOM     22  C   UNL     1      -0.821   2.759  25.998  0.00  0.00    +0.194 C 
ENDBRANCH  18   5
ENDBRANCH  15  18
ENDBRANCH  12   7
ENDBRANCH  10  12
TORSDOF 9
ENDMDL
MODEL 8
REMARK VINA RESULT:      -4.7      2.190      5.000
REMARK  Name = 75536581
REMARK  10 active torsions:
REMARK  status: ('A' for Active; 'I' for Inactive)
REMARK    1  A    between atoms: O_2  and  C_9
REMARK    2  A    between atoms: O_4  and  C_16
REMARK    3  A    between atoms: O_5  and  C_18
REMARK    4  A    between atoms: O_5  and  C_22
REMARK    5  A    between atoms: N_6  and  C_8
REMARK    6  A    between atoms: N_6  and  C_13
REMARK    7  A    between atoms: N_7  and  C_12
REMARK    8  A    between atoms: C_10  and  C_12
REMARK    9  A    between atoms: C_13  and  C_14
REMARK   10  A    between atoms: C_15  and  C_18
REMARK                            x       y       z     vdW  Elec       q    Type
REMARK                         _______ _______ _______ _____ _____    ______ ____
ROOT
ATOM      1  O   UNL     1       0.856  -0.894  23.484  0.00  0.00    -0.371 OA
ATOM      8  C   UNL     1       0.254   1.300  24.167  0.00  0.00    +0.111 C 
ATOM      9  C   UNL     1      -0.715   0.306  24.781  0.00  0.00    +0.164 C 
ATOM     10  C   UNL     1       0.093  -0.982  24.698  0.00  0.00    +0.165 C 
ATOM     11  C   UNL     1       0.858   0.474  23.042  0.00  0.00    +0.181 C 
ENDROOT
BRANCH   9   2
ATOM      2  O   UNL     1      -1.058   0.630  26.115  0.00  0.00    -0.388 OA
ATOM     24  H   UNL     1      -2.010   0.479  26.231  0.00  0.00    +0.210 HD
ENDBRANCH   9   2
BRANCH   8   6
ATOM      6  N   UNL     1      -0.381   2.520  23.696  0.00  0.00    -0.305 NA
ATOM     23  H   UNL     1      -1.226   2.276  23.179  0.00  0.00    +0.123 HD
BRANCH   6  13
ATOM     13  C   UNL     1      -0.742   3.388  24.810  0.00  0.00    +0.120 C 
BRANCH  13  14
ATOM     14  C   UNL     1      -2.235   3.474  24.992  0.00  0.00    +0.008 A 
ATOM     16  C   UNL     1      -3.101   3.022  23.997  0.00  0.00    +0.121 A 
ATOM     17  C   UNL     1      -2.747   4.015  26.171  0.00  0.00    +0.008 A 
ATOM     19  C   UNL     1      -4.481   3.111  24.181  0.00  0.00    +0.046 A 
ATOM     20  C   UNL     1      -4.127   4.103  26.355  0.00  0.00    +0.001 A 
ATOM     21  C   UNL     1      -4.994   3.651  25.360  0.00  0.00    +0.004 A 
BRANCH  16   4
ATOM      4  O   UNL     1      -2.617   2.492  22.839  0.00  0.00    -0.506 OA
ATOM     26  H   UNL     1      -1.776   2.039  23.025  0.00  0.00    +0.292 HD
ENDBRANCH  16   4
ENDBRANCH  13  14
ENDBRANCH   6  13
ENDBRANCH   8   6
BRANCH  10  12
ATOM     12  C   UNL     1      -0.770  -2.231  24.674  0.00  0.00    +0.138 C 
BRANCH  12   7
ATOM      3  O   UNL     1      -3.334  -3.057  25.728  0.00  0.00    -0.273 OA
ATOM      7  N   UNL     1      -2.065  -1.960  24.117  0.00  0.00    -0.311 N 
ATOM     15  C   UNL     1      -3.251  -2.399  24.695  0.00  0.00    +0.239 C 
ATOM     25  H   UNL     1      -2.106  -1.429  23.251  0.00  0.00    +0.149 HD
BRANCH  15  18
ATOM     18  C   UNL     1      -4.465  -1.970  23.898  0.00  0.00    +0.255 C 
BRANCH  18   5
ATOM      5  O   UNL     1      -4.642  -0.572  23.973  0.00  0.00    -0.374 OA
ATOM     22  C   UNL     1      -4.430  -0.079  25.293  0.00  0.00    +0.194 C 
ENDBRANCH  18   5
ENDBRANCH  15  18
ENDBRANCH  12   7
ENDBRANCH  10  12
TORSDOF 9
ENDMDL
MODEL 9
REMARK VINA RESULT:      -4.7      2.029      2.882
REMARK  Name = 75536581
REMARK  10 active torsions:
REMARK  status: ('A' for Active; 'I' for Inactive)
REMARK    1  A    between atoms: O_2  and  C_9
REMARK    2  A    between atoms: O_4  and  C_16
REMARK    3  A    between atoms: O_5  and  C_18
REMARK    4  A    between atoms: O_5  and  C_22
REMARK    5  A    between atoms: N_6  and  C_8
REMARK    6  A    between atoms: N_6  and  C_13
REMARK    7  A    between atoms: N_7  and  C_12
REMARK    8  A    between atoms: C_10  and  C_12
REMARK    9  A    between atoms: C_13  and  C_14
REMARK   10  A    between atoms: C_15  and  C_18
REMARK                            x       y       z     vdW  Elec       q    Type
REMARK                         _______ _______ _______ _____ _____    ______ ____
ROOT
ATOM      1  O   UNL     1      -2.774  -1.365  25.304  0.00  0.00    -0.371 OA
ATOM      8  C   UNL     1      -3.860   0.411  24.161  0.00  0.00    +0.111 C 
ATOM      9  C   UNL     1      -2.360   0.639  24.119  0.00  0.00    +0.164 C 
ATOM     10  C   UNL     1      -1.842  -0.767  24.387  0.00  0.00    +0.165 C 
ATOM     11  C   UNL     1      -3.981  -0.584  25.305  0.00  0.00    +0.181 C 
ENDROOT
BRANCH   9   2
ATOM      2  O   UNL     1      -1.919   1.136  22.871  0.00  0.00    -0.388 OA
ATOM     24  H   UNL     1      -2.676   1.147  22.262  0.00  0.00    +0.210 HD
ENDBRANCH   9   2
BRANCH   8   6
ATOM      6  N   UNL     1      -4.630   1.624  24.385  0.00  0.00    -0.305 NA
ATOM     23  H   UNL     1      -5.619   1.383  24.456  0.00  0.00    +0.123 HD
BRANCH   6  13
ATOM     13  C   UNL     1      -4.217   2.288  25.616  0.00  0.00    +0.120 C 
BRANCH  13  14
ATOM     14  C   UNL     1      -3.034   3.194  25.394  0.00  0.00    +0.008 A 
ATOM     16  C   UNL     1      -3.133   4.304  24.555  0.00  0.00    +0.121 A 
ATOM     17  C   UNL     1      -1.830   2.912  26.040  0.00  0.00    +0.008 A 
ATOM     19  C   UNL     1      -2.027   5.131  24.361  0.00  0.00    +0.046 A 
ATOM     20  C   UNL     1      -0.725   3.740  25.846  0.00  0.00    +0.001 A 
ATOM     21  C   UNL     1      -0.823   4.850  25.006  0.00  0.00    +0.004 A 
BRANCH  16   4
ATOM      4  O   UNL     1      -4.301   4.593  23.917  0.00  0.00    -0.506 OA
ATOM     26  H   UNL     1      -4.146   5.316  23.284  0.00  0.00    +0.292 HD
ENDBRANCH  16   4
ENDBRANCH  13  14
ENDBRANCH   6  13
ENDBRANCH   8   6
BRANCH  10  12
ATOM     12  C   UNL     1      -0.447  -0.788  24.986  0.00  0.00    +0.138 C 
BRANCH  12   7
ATOM      3  O   UNL     1       0.957   1.500  23.908  0.00  0.00    -0.273 OA
ATOM      7  N   UNL     1       0.560  -0.792  23.964  0.00  0.00    -0.311 N 
ATOM     15  C   UNL     1       1.185   0.363  23.505  0.00  0.00    +0.239 C 
ATOM     25  H   UNL     1       0.814  -1.686  23.554  0.00  0.00    +0.149 HD
BRANCH  15  18
ATOM     18  C   UNL     1       2.205   0.066  22.425  0.00  0.00    +0.255 C 
BRANCH  18   5
ATOM      5  O   UNL     1       3.303   0.948  22.521  0.00  0.00    -0.374 OA
ATOM     22  C   UNL     1       4.438   0.322  23.111  0.00  0.00    +0.194 C 
ENDBRANCH  18   5
ENDBRANCH  15  18
ENDBRANCH  12   7
ENDBRANCH  10  12
TORSDOF 9
ENDMDL
MODEL 10
REMARK VINA RESULT:      -4.6      1.646      7.416
REMARK  Name = 75536581
REMARK  10 active torsions:
REMARK  status: ('A' for Active; 'I' for Inactive)
REMARK    1  A    between atoms: O_2  and  C_9
REMARK    2  A    between atoms: O_4  and  C_16
REMARK    3  A    between atoms: O_5  and  C_18
REMARK    4  A    between atoms: O_5  and  C_22
REMARK    5  A    between atoms: N_6  and  C_8
REMARK    6  A    between atoms: N_6  and  C_13
REMARK    7  A    between atoms: N_7  and  C_12
REMARK    8  A    between atoms: C_10  and  C_12
REMARK    9  A    between atoms: C_13  and  C_14
REMARK   10  A    between atoms: C_15  and  C_18
REMARK                            x       y       z     vdW  Elec       q    Type
REMARK                         _______ _______ _______ _____ _____    ______ ____
ROOT
ATOM      1  O   UNL     1      -2.028  -1.510  24.264  0.00  0.00    -0.371 OA
ATOM      8  C   UNL     1      -0.030  -0.230  24.368  0.00  0.00    +0.111 C 
ATOM      9  C   UNL     1      -1.169   0.580  24.960  0.00  0.00    +0.164 C 
ATOM     10  C   UNL     1      -2.167  -0.519  25.295  0.00  0.00    +0.165 C 
ATOM     11  C   UNL     1      -0.790  -1.278  23.570  0.00  0.00    +0.181 C 
ENDROOT
BRANCH   9   2
ATOM      2  O   UNL     1      -0.780   1.309  26.109  0.00  0.00    -0.388 OA
ATOM     24  H   UNL     1      -1.467   1.199  26.786  0.00  0.00    +0.210 HD
ENDBRANCH   9   2
BRANCH   8   6
ATOM      6  N   UNL     1       0.880   0.554  23.548  0.00  0.00    -0.305 NA
ATOM     23  H   UNL     1       1.500   1.089  24.158  0.00  0.00    +0.123 HD
BRANCH   6  13
ATOM     13  C   UNL     1       1.688  -0.306  22.691  0.00  0.00    +0.120 C 
BRANCH  13  14
ATOM     14  C   UNL     1       3.126  -0.346  23.135  0.00  0.00    +0.008 A 
ATOM     16  C   UNL     1       3.918   0.802  23.095  0.00  0.00    +0.121 A 
ATOM     17  C   UNL     1       3.665  -1.550  23.590  0.00  0.00    +0.008 A 
ATOM     19  C   UNL     1       5.249   0.746  23.509  0.00  0.00    +0.046 A 
ATOM     20  C   UNL     1       4.996  -1.605  24.005  0.00  0.00    +0.001 A 
ATOM     21  C   UNL     1       5.787  -0.457  23.964  0.00  0.00    +0.004 A 
BRANCH  16   4
ATOM      4  O   UNL     1       3.407   1.985  22.653  0.00  0.00    -0.506 OA
ATOM     26  H   UNL     1       2.873   1.822  21.856  0.00  0.00    +0.292 HD
ENDBRANCH  16   4
ENDBRANCH  13  14
ENDBRANCH   6  13
ENDBRANCH   8   6
BRANCH  10  12
ATOM     12  C   UNL     1      -3.603  -0.029  25.347  0.00  0.00    +0.138 C 
BRANCH  12   7
ATOM      3  O   UNL     1      -5.965   1.594  24.949  0.00  0.00    -0.273 OA
ATOM      7  N   UNL     1      -3.669   1.403  25.275  0.00  0.00    -0.311 N 
ATOM     15  C   UNL     1      -4.856   2.103  25.080  0.00  0.00    +0.239 C 
ATOM     25  H   UNL     1      -2.799   1.921  25.361  0.00  0.00    +0.149 HD
BRANCH  15  18
ATOM     18  C   UNL     1      -4.632   3.601  25.047  0.00  0.00    +0.255 C 
BRANCH  18   5
ATOM      5  O   UNL     1      -3.323   3.899  24.613  0.00  0.00    -0.374 OA
ATOM     22  C   UNL     1      -2.505   4.375  25.679  0.00  0.00    +0.194 C 
ENDBRANCH  18   5
ENDBRANCH  15  18
ENDBRANCH  12   7
ENDBRANCH  10  12
TORSDOF 9
ENDMDL
