MODEL 1
REMARK VINA RESULT:       2.1      0.000      0.000
REMARK  Name = 45783511
REMARK  6 active torsions:
REMARK  status: ('A' for Active; 'I' for Inactive)
REMARK    1  A    between atoms: O_4  and  C_30
REMARK    2  A    between atoms: N_5  and  C_14
REMARK    3  A    between atoms: C_10  and  C_15
REMARK    4  A    between atoms: C_14  and  C_16
REMARK    5  A    between atoms: C_17  and  C_21
REMARK    6  A    between atoms: C_22  and  C_30
REMARK                            x       y       z     vdW  Elec       q    Type
REMARK                         _______ _______ _______ _____ _____    ______ ____
ROOT
ATOM      1  O   UNL     1      -3.301   2.170  22.163  0.00  0.00    -0.336 OA
ATOM      6  N   UNL     1      -2.154   1.705  24.031  0.00  0.00    -0.190 NA
ATOM      8  N   UNL     1      -2.000   1.851  21.753  0.00  0.00    -0.056 NA
ATOM     15  C   UNL     1      -3.305   2.059  23.517  0.00  0.00    +0.245 A 
ATOM     17  C   UNL     1      -1.385   1.590  22.909  0.00  0.00    +0.204 A 
ENDROOT
BRANCH  17  21
ATOM      3  O   UNL     1       6.756  -0.260  23.421  0.00  0.00    -0.377 OA
ATOM      7  N   UNL     1       3.988   0.189  23.241  0.00  0.00    -0.311 N 
ATOM      9  N   UNL     1       2.201   1.598  23.893  0.00  0.00    -0.240 NA
ATOM     19  C   UNL     1       4.821   0.206  22.035  0.00  0.00    +0.134 C 
ATOM     20  C   UNL     1       4.703   0.450  24.499  0.00  0.00    +0.134 C 
ATOM     21  C   UNL     1      -0.003   1.211  22.980  0.00  0.00    +0.041 A 
ATOM     24  C   UNL     1       6.054  -0.665  22.247  0.00  0.00    +0.178 C 
ATOM     25  C   UNL     1       5.941  -0.436  24.580  0.00  0.00    +0.178 C 
ATOM     26  C   UNL     1       2.638   0.548  23.163  0.00  0.00    +0.121 A 
ATOM     27  C   UNL     1       0.484   0.136  22.243  0.00  0.00    +0.016 A 
ATOM     28  C   UNL     1       1.828  -0.209  22.331  0.00  0.00    +0.044 A 
ATOM     29  C   UNL     1       0.889   1.903  23.782  0.00  0.00    +0.124 A 
ENDBRANCH  17  21
BRANCH  15  10
ATOM      5  N   UNL     1      -4.796   1.562  25.447  0.00  0.00    -0.284 NA
ATOM     10  C   UNL     1      -4.616   2.355  24.214  0.00  0.00    +0.146 C 
ATOM     11  C   UNL     1      -4.729   3.822  24.672  0.00  0.00    +0.030 C 
ATOM     12  C   UNL     1      -5.032   3.750  26.162  0.00  0.00    +0.017 C 
ATOM     13  C   UNL     1      -5.629   2.368  26.339  0.00  0.00    +0.085 C 
BRANCH   5  14
ATOM     14  C   UNL     1      -5.369   0.244  25.204  0.00  0.00    +0.159 C 
BRANCH  14  16
ATOM      2  O   UNL     1      -3.091  -0.580  25.433  0.00  0.00    -0.461 OA
ATOM     16  C   UNL     1      -4.313  -0.773  24.869  0.00  0.00    +0.119 A 
ATOM     18  C   UNL     1      -4.309  -1.902  24.083  0.00  0.00    +0.046 A 
ATOM     22  C   UNL     1      -2.299  -1.598  25.004  0.00  0.00    +0.131 A 
ATOM     23  C   UNL     1      -3.001  -2.438  24.171  0.00  0.00    +0.047 A 
BRANCH  22  30
ATOM     30  C   UNL     1      -0.914  -1.596  25.494  0.00  0.00    +0.230 C 
BRANCH  30   4
ATOM      4  O   UNL     1      -0.576  -0.308  26.012  0.00  0.00    -0.387 OA
ATOM     31  H   UNL     1       0.264  -0.047  25.596  0.00  0.00    +0.210 HD
ENDBRANCH  30   4
ENDBRANCH  22  30
ENDBRANCH  14  16
ENDBRANCH   5  14
ENDBRANCH  15  10
TORSDOF 6
ENDMDL
MODEL 2
REMARK VINA RESULT:       3.6     14.503     16.116
REMARK  Name = 45783511
REMARK  6 active torsions:
REMARK  status: ('A' for Active; 'I' for Inactive)
REMARK    1  A    between atoms: O_4  and  C_30
REMARK    2  A    between atoms: N_5  and  C_14
REMARK    3  A    between atoms: C_10  and  C_15
REMARK    4  A    between atoms: C_14  and  C_16
REMARK    5  A    between atoms: C_17  and  C_21
REMARK    6  A    between atoms: C_22  and  C_30
REMARK                            x       y       z     vdW  Elec       q    Type
REMARK                         _______ _______ _______ _____ _____    ______ ____
ROOT
ATOM      1  O   UNL     1      -6.986 -10.781   9.793  0.00  0.00    -0.336 OA
ATOM      6  N   UNL     1      -6.098 -10.076  11.726  0.00  0.00    -0.190 NA
ATOM      8  N   UNL     1      -5.648 -10.471   9.518  0.00  0.00    -0.056 NA
ATOM     15  C   UNL     1      -7.167 -10.520  11.115  0.00  0.00    +0.245 A 
ATOM     17  C   UNL     1      -5.193 -10.062  10.705  0.00  0.00    +0.204 A 
ENDROOT
BRANCH  17  21
ATOM      3  O   UNL     1       2.625  -7.249  11.671  0.00  0.00    -0.377 OA
ATOM      7  N   UNL     1       0.031  -8.314  11.471  0.00  0.00    -0.311 N 
ATOM      9  N   UNL     1      -2.242  -7.823  11.032  0.00  0.00    -0.240 NA
ATOM     19  C   UNL     1       1.095  -8.780  10.575  0.00  0.00    +0.134 C 
ATOM     20  C   UNL     1       0.245  -6.982  12.055  0.00  0.00    +0.134 C 
ATOM     21  C   UNL     1      -3.838  -9.634  10.906  0.00  0.00    +0.041 A 
ATOM     24  C   UNL     1       2.451  -8.601  11.247  0.00  0.00    +0.178 C 
ATOM     25  C   UNL     1       1.647  -6.900  12.650  0.00  0.00    +0.178 C 
ATOM     26  C   UNL     1      -1.285  -8.746  11.277  0.00  0.00    +0.121 A 
ATOM     27  C   UNL     1      -2.826 -10.553  11.161  0.00  0.00    +0.016 A 
ATOM     28  C   UNL     1      -1.522 -10.109  11.352  0.00  0.00    +0.044 A 
ATOM     29  C   UNL     1      -3.496  -8.292  10.852  0.00  0.00    +0.124 A 
ENDBRANCH  17  21
BRANCH  15  10
ATOM      5  N   UNL     1      -8.855  -9.949  12.853  0.00  0.00    -0.284 NA
ATOM     10  C   UNL     1      -8.552 -10.779  11.670  0.00  0.00    +0.146 C 
ATOM     11  C   UNL     1      -9.669 -10.448  10.662  0.00  0.00    +0.030 C 
ATOM     12  C   UNL     1     -10.583  -9.471  11.389  0.00  0.00    +0.017 C 
ATOM     13  C   UNL     1     -10.303  -9.743  12.854  0.00  0.00    +0.085 C 
BRANCH   5  14
ATOM     14  C   UNL     1      -8.383 -10.533  14.102  0.00  0.00    +0.159 C 
BRANCH  14  16
ATOM      2  O   UNL     1      -9.457  -8.561  15.040  0.00  0.00    -0.461 OA
ATOM     16  C   UNL     1      -8.669  -9.643  15.281  0.00  0.00    +0.119 A 
ATOM     18  C   UNL     1      -8.292  -9.682  16.603  0.00  0.00    +0.046 A 
ATOM     22  C   UNL     1      -9.585  -7.904  16.223  0.00  0.00    +0.131 A 
ATOM     23  C   UNL     1      -8.888  -8.552  17.215  0.00  0.00    +0.047 A 
BRANCH  22  30
ATOM     30  C   UNL     1     -10.408  -6.686  16.204  0.00  0.00    +0.230 C 
BRANCH  30   4
ATOM      4  O   UNL     1      -9.943  -5.792  15.190  0.00  0.00    -0.387 OA
ATOM     31  H   UNL     1     -10.566  -5.045  15.164  0.00  0.00    +0.210 HD
ENDBRANCH  30   4
ENDBRANCH  22  30
ENDBRANCH  14  16
ENDBRANCH   5  14
ENDBRANCH  15  10
TORSDOF 6
ENDMDL
MODEL 3
REMARK VINA RESULT:       4.3      1.689      2.969
REMARK  Name = 45783511
REMARK  6 active torsions:
REMARK  status: ('A' for Active; 'I' for Inactive)
REMARK    1  A    between atoms: O_4  and  C_30
REMARK    2  A    between atoms: N_5  and  C_14
REMARK    3  A    between atoms: C_10  and  C_15
REMARK    4  A    between atoms: C_14  and  C_16
REMARK    5  A    between atoms: C_17  and  C_21
REMARK    6  A    between atoms: C_22  and  C_30
REMARK                            x       y       z     vdW  Elec       q    Type
REMARK                         _______ _______ _______ _____ _____    ______ ____
ROOT
ATOM      1  O   UNL     1      -3.476   1.639  23.033  0.00  0.00    -0.336 OA
ATOM      6  N   UNL     1      -2.087   1.143  24.720  0.00  0.00    -0.190 NA
ATOM      8  N   UNL     1      -2.217   1.436  22.454  0.00  0.00    -0.056 NA
ATOM     15  C   UNL     1      -3.311   1.448  24.368  0.00  0.00    +0.245 A 
ATOM     17  C   UNL     1      -1.452   1.149  23.511  0.00  0.00    +0.204 A 
ENDROOT
BRANCH  17  21
ATOM      3  O   UNL     1       6.787  -0.148  22.887  0.00  0.00    -0.377 OA
ATOM      7  N   UNL     1       3.997   0.114  23.110  0.00  0.00    -0.311 N 
ATOM      9  N   UNL     1       2.231   1.472  23.907  0.00  0.00    -0.240 NA
ATOM     19  C   UNL     1       4.633   0.057  21.790  0.00  0.00    +0.134 C 
ATOM     20  C   UNL     1       4.875   0.544  24.209  0.00  0.00    +0.134 C 
ATOM     21  C   UNL     1      -0.051   0.863  23.395  0.00  0.00    +0.041 A 
ATOM     24  C   UNL     1       5.946  -0.712  21.882  0.00  0.00    +0.178 C 
ATOM     25  C   UNL     1       6.174  -0.253  24.172  0.00  0.00    +0.178 C 
ATOM     26  C   UNL     1       2.629   0.381  23.215  0.00  0.00    +0.121 A 
ATOM     27  C   UNL     1       0.397  -0.251  22.691  0.00  0.00    +0.016 A 
ATOM     28  C   UNL     1       1.761  -0.504  22.595  0.00  0.00    +0.044 A 
ATOM     29  C   UNL     1       0.898   1.685  23.979  0.00  0.00    +0.124 A 
ENDBRANCH  17  21
BRANCH  15  10
ATOM      5  N   UNL     1      -5.078   2.987  25.208  0.00  0.00    -0.284 NA
ATOM     10  C   UNL     1      -4.544   1.610  25.231  0.00  0.00    +0.146 C 
ATOM     11  C   UNL     1      -5.717   0.727  24.765  0.00  0.00    +0.030 C 
ATOM     12  C   UNL     1      -6.881   1.688  24.562  0.00  0.00    +0.017 C 
ATOM     13  C   UNL     1      -6.519   2.876  25.431  0.00  0.00    +0.085 C 
BRANCH   5  14
ATOM     14  C   UNL     1      -4.439   3.868  26.177  0.00  0.00    +0.159 C 
BRANCH  14  16
ATOM      2  O   UNL     1      -2.071   3.398  26.482  0.00  0.00    -0.461 OA
ATOM     16  C   UNL     1      -3.001   4.140  25.825  0.00  0.00    +0.119 A 
ATOM     18  C   UNL     1      -2.395   5.011  24.950  0.00  0.00    +0.046 A 
ATOM     22  C   UNL     1      -0.857   3.800  26.020  0.00  0.00    +0.131 A 
ATOM     23  C   UNL     1      -1.002   4.789  25.077  0.00  0.00    +0.047 A 
BRANCH  22  30
ATOM     30  C   UNL     1       0.314   3.124  26.597  0.00  0.00    +0.230 C 
BRANCH  30   4
ATOM      4  O   UNL     1      -0.024   1.789  26.979  0.00  0.00    -0.387 OA
ATOM     31  H   UNL     1       0.693   1.214  26.662  0.00  0.00    +0.210 HD
ENDBRANCH  30   4
ENDBRANCH  22  30
ENDBRANCH  14  16
ENDBRANCH   5  14
ENDBRANCH  15  10
TORSDOF 6
ENDMDL
MODEL 4
REMARK VINA RESULT:       5.5     14.776     16.240
REMARK  Name = 45783511
REMARK  6 active torsions:
REMARK  status: ('A' for Active; 'I' for Inactive)
REMARK    1  A    between atoms: O_4  and  C_30
REMARK    2  A    between atoms: N_5  and  C_14
REMARK    3  A    between atoms: C_10  and  C_15
REMARK    4  A    between atoms: C_14  and  C_16
REMARK    5  A    between atoms: C_17  and  C_21
REMARK    6  A    between atoms: C_22  and  C_30
REMARK                            x       y       z     vdW  Elec       q    Type
REMARK                         _______ _______ _______ _____ _____    ______ ____
ROOT
ATOM      1  O   UNL     1      -7.412  -9.701   9.135  0.00  0.00    -0.336 OA
ATOM      6  N   UNL     1      -6.444  -9.504  11.146  0.00  0.00    -0.190 NA
ATOM      8  N   UNL     1      -6.054  -9.459   8.892  0.00  0.00    -0.056 NA
ATOM     15  C   UNL     1      -7.556  -9.712  10.486  0.00  0.00    +0.245 A 
ATOM     17  C   UNL     1      -5.551  -9.354  10.125  0.00  0.00    +0.204 A 
ENDROOT
BRANCH  17  21
ATOM      3  O   UNL     1       2.566  -8.187  11.774  0.00  0.00    -0.377 OA
ATOM      7  N   UNL     1      -0.149  -8.456  11.094  0.00  0.00    -0.311 N 
ATOM      9  N   UNL     1      -1.973  -9.956  10.939  0.00  0.00    -0.240 NA
ATOM     19  C   UNL     1       0.258  -7.561  12.183  0.00  0.00    +0.134 C 
ATOM     20  C   UNL     1       0.807  -9.527  10.776  0.00  0.00    +0.134 C 
ATOM     21  C   UNL     1      -4.161  -9.099  10.371  0.00  0.00    +0.041 A 
ATOM     24  C   UNL     1       1.684  -7.078  11.948  0.00  0.00    +0.178 C 
ATOM     25  C   UNL     1       2.205  -8.938  10.614  0.00  0.00    +0.178 C 
ATOM     26  C   UNL     1      -1.506  -8.690  10.853  0.00  0.00    +0.121 A 
ATOM     27  C   UNL     1      -3.643  -7.810  10.291  0.00  0.00    +0.016 A 
ATOM     28  C   UNL     1      -2.291  -7.594  10.534  0.00  0.00    +0.044 A 
ATOM     29  C   UNL     1      -3.291 -10.128  10.696  0.00  0.00    +0.124 A 
ENDBRANCH  17  21
BRANCH  15  10
ATOM      5  N   UNL     1      -9.076  -9.662  12.456  0.00  0.00    -0.284 NA
ATOM     10  C   UNL     1      -8.953  -9.959  11.015  0.00  0.00    +0.146 C 
ATOM     11  C   UNL     1     -10.011  -9.069  10.338  0.00  0.00    +0.030 C 
ATOM     12  C   UNL     1     -10.718  -8.354  11.482  0.00  0.00    +0.017 C 
ATOM     13  C   UNL     1     -10.463  -9.252  12.676  0.00  0.00    +0.085 C 
BRANCH   5  14
ATOM     14  C   UNL     1      -8.693 -10.780  13.309  0.00  0.00    +0.159 C 
BRANCH  14  16
ATOM      2  O   UNL     1      -6.946 -10.179  14.892  0.00  0.00    -0.461 OA
ATOM     16  C   UNL     1      -8.281 -10.322  14.682  0.00  0.00    +0.119 A 
ATOM     18  C   UNL     1      -8.987 -10.004  15.819  0.00  0.00    +0.046 A 
ATOM     22  C   UNL     1      -6.798  -9.764  16.179  0.00  0.00    +0.131 A 
ATOM     23  C   UNL     1      -8.023  -9.642  16.791  0.00  0.00    +0.047 A 
BRANCH  22  30
ATOM     30  C   UNL     1      -5.419  -9.540  16.635  0.00  0.00    +0.230 C 
BRANCH  30   4
ATOM      4  O   UNL     1      -4.492 -10.096  15.700  0.00  0.00    -0.387 OA
ATOM     31  H   UNL     1      -4.359 -11.026  15.953  0.00  0.00    +0.210 HD
ENDBRANCH  30   4
ENDBRANCH  22  30
ENDBRANCH  14  16
ENDBRANCH   5  14
ENDBRANCH  15  10
TORSDOF 6
ENDMDL
