MODEL 1
REMARK VINA RESULT:      -6.0      0.000      0.000
REMARK  Name = 75536739
REMARK  10 active torsions:
REMARK  status: ('A' for Active; 'I' for Inactive)
REMARK    1  A    between atoms: O_2  and  C_9
REMARK    2  A    between atoms: N_4  and  C_8
REMARK    3  A    between atoms: N_4  and  C_13
REMARK    4  A    between atoms: N_5  and  C_12
REMARK    5  A    between atoms: N_6  and  C_18
REMARK    6  A    between atoms: C_10  and  C_12
REMARK    7  A    between atoms: C_13  and  C_14
REMARK    8  A    between atoms: C_18  and  C_21
REMARK    9  A    between atoms: C_18  and  C_22
REMARK   10  A    between atoms: C_19  and  C_24
REMARK                            x       y       z     vdW  Elec       q    Type
REMARK                         _______ _______ _______ _____ _____    ______ ____
ROOT
ATOM      1  O   UNL     1      -2.387   2.732  23.151  0.00  0.00    -0.371 OA
ATOM      8  C   UNL     1      -3.541   3.433  25.096  0.00  0.00    +0.111 C 
ATOM      9  C   UNL     1      -2.060   3.687  25.315  0.00  0.00    +0.164 C 
ATOM     10  C   UNL     1      -1.369   3.016  24.128  0.00  0.00    +0.165 C 
ATOM     11  C   UNL     1      -3.618   3.325  23.582  0.00  0.00    +0.181 C 
ENDROOT
BRANCH   9   2
ATOM      2  O   UNL     1      -1.844   5.098  25.242  0.00  0.00    -0.388 OA
ATOM     26  H   UNL     1      -2.258   5.413  24.420  0.00  0.00    +0.210 HD
ENDBRANCH   9   2
BRANCH   8   4
ATOM      4  N   UNL     1      -3.973   2.187  25.727  0.00  0.00    -0.305 NA
ATOM     25  H   UNL     1      -3.154   1.655  26.020  0.00  0.00    +0.123 HD
BRANCH   4  13
ATOM     13  C   UNL     1      -4.749   1.372  24.801  0.00  0.00    +0.116 C 
BRANCH  13  14
ATOM     14  C   UNL     1      -4.157  -0.002  24.631  0.00  0.00    -0.032 A 
ATOM     16  C   UNL     1      -2.865  -0.266  25.083  0.00  0.00    +0.023 A 
ATOM     17  C   UNL     1      -4.903  -1.010  24.020  0.00  0.00    +0.005 A 
ATOM     19  C   UNL     1      -2.318  -1.540  24.927  0.00  0.00    +0.052 A 
ATOM     20  C   UNL     1      -4.356  -2.284  23.863  0.00  0.00    +0.002 A 
ATOM     23  C   UNL     1      -3.064  -2.549  24.316  0.00  0.00    +0.019 A 
BRANCH  19  24
ATOM      7  N   UNL     1       0.081  -2.034  25.768  0.00  0.00    -0.191 NA
ATOM     24  C   UNL     1      -0.994  -1.813  25.391  0.00  0.00    +0.099 C 
ENDBRANCH  19  24
ENDBRANCH  13  14
ENDBRANCH   4  13
ENDBRANCH   8   4
BRANCH  10  12
ATOM     12  C   UNL     1      -0.675   1.710  24.487  0.00  0.00    +0.140 C 
BRANCH  12   5
ATOM      3  O   UNL     1       0.958  -0.244  23.129  0.00  0.00    -0.253 OA
ATOM      5  N   UNL     1       0.736   1.786  24.238  0.00  0.00    -0.297 N 
ATOM      6  N   UNL     1       2.806   1.117  23.466  0.00  0.00    -0.297 N 
ATOM     15  C   UNL     1       1.456   0.790  23.570  0.00  0.00    +0.300 C 
ATOM     27  H   UNL     1       1.241   2.601  24.573  0.00  0.00    +0.150 HD
ATOM     28  H   UNL     1       3.135   1.961  23.924  0.00  0.00    +0.150 HD
BRANCH   6  18
ATOM     18  C   UNL     1       3.771   0.260  22.819  0.00  0.00    +0.068 C 
ATOM     21  C   UNL     1       3.761   0.483  21.312  0.00  0.00    +0.027 C 
ATOM     22  C   UNL     1       5.160   0.492  23.402  0.00  0.00    +0.027 C 
ENDBRANCH   6  18
ENDBRANCH  12   5
ENDBRANCH  10  12
TORSDOF 8
ENDMDL
MODEL 2
REMARK VINA RESULT:      -5.4      1.968      4.215
REMARK  Name = 75536739
REMARK  10 active torsions:
REMARK  status: ('A' for Active; 'I' for Inactive)
REMARK    1  A    between atoms: O_2  and  C_9
REMARK    2  A    between atoms: N_4  and  C_8
REMARK    3  A    between atoms: N_4  and  C_13
REMARK    4  A    between atoms: N_5  and  C_12
REMARK    5  A    between atoms: N_6  and  C_18
REMARK    6  A    between atoms: C_10  and  C_12
REMARK    7  A    between atoms: C_13  and  C_14
REMARK    8  A    between atoms: C_18  and  C_21
REMARK    9  A    between atoms: C_18  and  C_22
REMARK   10  A    between atoms: C_19  and  C_24
REMARK                            x       y       z     vdW  Elec       q    Type
REMARK                         _______ _______ _______ _____ _____    ______ ____
ROOT
ATOM      1  O   UNL     1      -1.573  -0.327  26.046  0.00  0.00    -0.371 OA
ATOM      8  C   UNL     1      -2.930  -1.536  24.529  0.00  0.00    +0.111 C 
ATOM      9  C   UNL     1      -1.537  -1.438  23.933  0.00  0.00    +0.164 C 
ATOM     10  C   UNL     1      -0.788  -0.470  24.848  0.00  0.00    +0.165 C 
ATOM     11  C   UNL     1      -2.660  -1.258  25.999  0.00  0.00    +0.181 C 
ENDROOT
BRANCH   9   2
ATOM      2  O   UNL     1      -0.931  -2.730  24.026  0.00  0.00    -0.388 OA
ATOM     26  H   UNL     1      -0.026  -2.651  23.679  0.00  0.00    +0.210 HD
ENDBRANCH   9   2
BRANCH   8   4
ATOM      4  N   UNL     1      -3.828  -0.529  23.968  0.00  0.00    -0.305 NA
ATOM     25  H   UNL     1      -3.281   0.269  23.645  0.00  0.00    +0.123 HD
BRANCH   4  13
ATOM     13  C   UNL     1      -4.783  -0.064  24.966  0.00  0.00    +0.116 C 
BRANCH  13  14
ATOM     14  C   UNL     1      -4.732   1.431  25.138  0.00  0.00    -0.032 A 
ATOM     16  C   UNL     1      -3.512   2.102  25.058  0.00  0.00    +0.023 A 
ATOM     17  C   UNL     1      -5.907   2.144  25.376  0.00  0.00    +0.005 A 
ATOM     19  C   UNL     1      -3.467   3.488  25.215  0.00  0.00    +0.052 A 
ATOM     20  C   UNL     1      -5.861   3.530  25.534  0.00  0.00    +0.002 A 
ATOM     23  C   UNL     1      -4.641   4.202  25.453  0.00  0.00    +0.019 A 
BRANCH  19  24
ATOM      7  N   UNL     1      -1.202   4.735  25.067  0.00  0.00    -0.191 NA
ATOM     24  C   UNL     1      -2.217   4.176  25.133  0.00  0.00    +0.099 C 
ENDBRANCH  19  24
ENDBRANCH  13  14
ENDBRANCH   4  13
ENDBRANCH   8   4
BRANCH  10  12
ATOM     12  C   UNL     1      -0.588   0.911  24.241  0.00  0.00    +0.140 C 
BRANCH  12   5
ATOM      3  O   UNL     1       1.433  -0.062  22.425  0.00  0.00    -0.253 OA
ATOM      5  N   UNL     1       0.799   1.274  24.217  0.00  0.00    -0.297 N 
ATOM      6  N   UNL     1       2.993   1.275  23.502  0.00  0.00    -0.297 N 
ATOM     15  C   UNL     1       1.718   0.754  23.301  0.00  0.00    +0.300 C 
ATOM     27  H   UNL     1       1.134   1.937  24.910  0.00  0.00    +0.150 HD
ATOM     28  H   UNL     1       3.145   1.889  24.296  0.00  0.00    +0.150 HD
BRANCH   6  18
ATOM     18  C   UNL     1       4.128   0.904  22.690  0.00  0.00    +0.068 C 
ATOM     21  C   UNL     1       5.102   0.047  23.489  0.00  0.00    +0.027 C 
ATOM     22  C   UNL     1       3.664   0.183  21.430  0.00  0.00    +0.027 C 
ENDBRANCH   6  18
ENDBRANCH  12   5
ENDBRANCH  10  12
TORSDOF 8
ENDMDL
MODEL 3
REMARK VINA RESULT:      -4.5      1.530      2.154
REMARK  Name = 75536739
REMARK  10 active torsions:
REMARK  status: ('A' for Active; 'I' for Inactive)
REMARK    1  A    between atoms: O_2  and  C_9
REMARK    2  A    between atoms: N_4  and  C_8
REMARK    3  A    between atoms: N_4  and  C_13
REMARK    4  A    between atoms: N_5  and  C_12
REMARK    5  A    between atoms: N_6  and  C_18
REMARK    6  A    between atoms: C_10  and  C_12
REMARK    7  A    between atoms: C_13  and  C_14
REMARK    8  A    between atoms: C_18  and  C_21
REMARK    9  A    between atoms: C_18  and  C_22
REMARK   10  A    between atoms: C_19  and  C_24
REMARK                            x       y       z     vdW  Elec       q    Type
REMARK                         _______ _______ _______ _____ _____    ______ ____
ROOT
ATOM      1  O   UNL     1      -0.306   4.206  25.410  0.00  0.00    -0.371 OA
ATOM      8  C   UNL     1      -2.519   4.331  24.578  0.00  0.00    +0.111 C 
ATOM      9  C   UNL     1      -2.529   3.422  25.794  0.00  0.00    +0.164 C 
ATOM     10  C   UNL     1      -1.055   3.215  26.138  0.00  0.00    +0.165 C 
ATOM     11  C   UNL     1      -1.225   5.103  24.776  0.00  0.00    +0.181 C 
ENDROOT
BRANCH   9   2
ATOM      2  O   UNL     1      -3.162   4.131  26.862  0.00  0.00    -0.388 OA
ATOM     26  H   UNL     1      -3.480   4.976  26.501  0.00  0.00    +0.210 HD
ENDBRANCH   9   2
BRANCH   8   4
ATOM      4  N   UNL     1      -2.479   3.565  23.333  0.00  0.00    -0.305 NA
ATOM     25  H   UNL     1      -2.261   4.192  22.558  0.00  0.00    +0.123 HD
BRANCH   4  13
ATOM     13  C   UNL     1      -3.763   2.928  23.067  0.00  0.00    +0.116 C 
BRANCH  13  14
ATOM     14  C   UNL     1      -3.954   1.685  23.895  0.00  0.00    -0.032 A 
ATOM     16  C   UNL     1      -3.068   0.616  23.765  0.00  0.00    +0.023 A 
ATOM     17  C   UNL     1      -5.018   1.605  24.793  0.00  0.00    +0.005 A 
ATOM     19  C   UNL     1      -3.246  -0.534  24.535  0.00  0.00    +0.052 A 
ATOM     20  C   UNL     1      -5.196   0.454  25.562  0.00  0.00    +0.002 A 
ATOM     23  C   UNL     1      -4.310  -0.615  25.433  0.00  0.00    +0.019 A 
BRANCH  19  24
ATOM      7  N   UNL     1      -1.601  -2.520  24.296  0.00  0.00    -0.191 NA
ATOM     24  C   UNL     1      -2.338  -1.630  24.402  0.00  0.00    +0.099 C 
ENDBRANCH  19  24
ENDBRANCH  13  14
ENDBRANCH   4  13
ENDBRANCH   8   4
BRANCH  10  12
ATOM     12  C   UNL     1      -0.527   1.840  25.753  0.00  0.00    +0.140 C 
BRANCH  12   5
ATOM      3  O   UNL     1       0.384   0.290  23.497  0.00  0.00    -0.253 OA
ATOM      5  N   UNL     1       0.745   1.936  25.096  0.00  0.00    -0.297 N 
ATOM      6  N   UNL     1       2.396   1.442  23.562  0.00  0.00    -0.297 N 
ATOM     15  C   UNL     1       1.110   1.143  24.004  0.00  0.00    +0.300 C 
ATOM     27  H   UNL     1       1.419   2.609  25.448  0.00  0.00    +0.150 HD
ATOM     28  H   UNL     1       2.945   2.113  24.090  0.00  0.00    +0.150 HD
BRANCH   6  18
ATOM     18  C   UNL     1       3.017   0.768  22.446  0.00  0.00    +0.068 C 
ATOM     21  C   UNL     1       4.373   0.201  22.849  0.00  0.00    +0.027 C 
ATOM     22  C   UNL     1       2.100  -0.325  21.910  0.00  0.00    +0.027 C 
ENDBRANCH   6  18
ENDBRANCH  12   5
ENDBRANCH  10  12
TORSDOF 8
ENDMDL
MODEL 4
REMARK VINA RESULT:      -4.0      2.405      3.286
REMARK  Name = 75536739
REMARK  10 active torsions:
REMARK  status: ('A' for Active; 'I' for Inactive)
REMARK    1  A    between atoms: O_2  and  C_9
REMARK    2  A    between atoms: N_4  and  C_8
REMARK    3  A    between atoms: N_4  and  C_13
REMARK    4  A    between atoms: N_5  and  C_12
REMARK    5  A    between atoms: N_6  and  C_18
REMARK    6  A    between atoms: C_10  and  C_12
REMARK    7  A    between atoms: C_13  and  C_14
REMARK    8  A    between atoms: C_18  and  C_21
REMARK    9  A    between atoms: C_18  and  C_22
REMARK   10  A    between atoms: C_19  and  C_24
REMARK                            x       y       z     vdW  Elec       q    Type
REMARK                         _______ _______ _______ _____ _____    ______ ____
ROOT
ATOM      1  O   UNL     1      -2.188   2.642  23.230  0.00  0.00    -0.371 OA
ATOM      8  C   UNL     1      -3.580   3.137  25.081  0.00  0.00    +0.111 C 
ATOM      9  C   UNL     1      -2.148   3.455  25.476  0.00  0.00    +0.164 C 
ATOM     10  C   UNL     1      -1.297   2.910  24.329  0.00  0.00    +0.165 C 
ATOM     11  C   UNL     1      -3.491   3.135  23.563  0.00  0.00    +0.181 C 
ENDROOT
BRANCH   9   2
ATOM      2  O   UNL     1      -2.014   4.877  25.520  0.00  0.00    -0.388 OA
ATOM     26  H   UNL     1      -2.906   5.255  25.435  0.00  0.00    +0.210 HD
ENDBRANCH   9   2
BRANCH   8   4
ATOM      4  N   UNL     1      -3.997   1.827  25.577  0.00  0.00    -0.305 NA
ATOM     25  H   UNL     1      -3.184   1.326  25.934  0.00  0.00    +0.123 HD
BRANCH   4  13
ATOM     13  C   UNL     1      -4.603   1.032  24.515  0.00  0.00    +0.116 C 
BRANCH  13  14
ATOM     14  C   UNL     1      -4.008  -0.349  24.439  0.00  0.00    -0.032 A 
ATOM     16  C   UNL     1      -2.696  -0.568  24.856  0.00  0.00    +0.023 A 
ATOM     17  C   UNL     1      -4.772  -1.409  23.951  0.00  0.00    +0.005 A 
ATOM     19  C   UNL     1      -2.146  -1.849  24.787  0.00  0.00    +0.052 A 
ATOM     20  C   UNL     1      -4.222  -2.690  23.882  0.00  0.00    +0.002 A 
ATOM     23  C   UNL     1      -2.910  -2.910  24.300  0.00  0.00    +0.019 A 
BRANCH  19  24
ATOM      7  N   UNL     1       0.291  -2.257  25.562  0.00  0.00    -0.191 NA
ATOM     24  C   UNL     1      -0.801  -2.074  25.215  0.00  0.00    +0.099 C 
ENDBRANCH  19  24
ENDBRANCH  13  14
ENDBRANCH   4  13
ENDBRANCH   8   4
BRANCH  10  12
ATOM     12  C   UNL     1      -0.564   1.622  24.674  0.00  0.00    +0.140 C 
BRANCH  12   5
ATOM      3  O   UNL     1       1.052   3.391  26.281  0.00  0.00    -0.253 OA
ATOM      5  N   UNL     1      -0.317   1.524  26.084  0.00  0.00    -0.297 N 
ATOM      6  N   UNL     1       0.555   2.098  28.142  0.00  0.00    -0.297 N 
ATOM     15  C   UNL     1       0.484   2.426  26.790  0.00  0.00    +0.300 C 
ATOM     27  H   UNL     1      -0.737   0.753  26.594  0.00  0.00    +0.150 HD
ATOM     28  H   UNL     1       0.108   1.242  28.455  0.00  0.00    +0.150 HD
BRANCH   6  18
ATOM     18  C   UNL     1       1.316   2.870  29.096  0.00  0.00    +0.068 C 
ATOM     21  C   UNL     1       1.068   2.367  30.513  0.00  0.00    +0.027 C 
ATOM     22  C   UNL     1       2.799   2.828  28.748  0.00  0.00    +0.027 C 
ENDBRANCH   6  18
ENDBRANCH  12   5
ENDBRANCH  10  12
TORSDOF 8
ENDMDL
MODEL 5
REMARK VINA RESULT:      -3.4      2.445      4.960
REMARK  Name = 75536739
REMARK  10 active torsions:
REMARK  status: ('A' for Active; 'I' for Inactive)
REMARK    1  A    between atoms: O_2  and  C_9
REMARK    2  A    between atoms: N_4  and  C_8
REMARK    3  A    between atoms: N_4  and  C_13
REMARK    4  A    between atoms: N_5  and  C_12
REMARK    5  A    between atoms: N_6  and  C_18
REMARK    6  A    between atoms: C_10  and  C_12
REMARK    7  A    between atoms: C_13  and  C_14
REMARK    8  A    between atoms: C_18  and  C_21
REMARK    9  A    between atoms: C_18  and  C_22
REMARK   10  A    between atoms: C_19  and  C_24
REMARK                            x       y       z     vdW  Elec       q    Type
REMARK                         _______ _______ _______ _____ _____    ______ ____
ROOT
ATOM      1  O   UNL     1       0.155  -1.691  24.525  0.00  0.00    -0.371 OA
ATOM      8  C   UNL     1      -1.306  -0.265  25.726  0.00  0.00    +0.111 C 
ATOM      9  C   UNL     1      -1.670  -0.174  24.254  0.00  0.00    +0.164 C 
ATOM     10  C   UNL     1      -0.561  -0.935  23.530  0.00  0.00    +0.165 C 
ATOM     11  C   UNL     1      -0.535  -1.574  25.775  0.00  0.00    +0.181 C 
ENDROOT
BRANCH   9   2
ATOM      2  O   UNL     1      -2.908  -0.864  24.069  0.00  0.00    -0.388 OA
ATOM     26  H   UNL     1      -3.241  -1.105  24.950  0.00  0.00    +0.210 HD
ENDBRANCH   9   2
BRANCH   8   4
ATOM      4  N   UNL     1      -0.457   0.850  26.141  0.00  0.00    -0.305 NA
ATOM     25  H   UNL     1      -0.913   1.357  26.900  0.00  0.00    +0.123 HD
BRANCH   4  13
ATOM     13  C   UNL     1      -0.229   1.775  25.037  0.00  0.00    +0.116 C 
BRANCH  13  14
ATOM     14  C   UNL     1      -1.128   2.980  25.119  0.00  0.00    -0.032 A 
ATOM     16  C   UNL     1      -2.498   2.817  25.319  0.00  0.00    +0.023 A 
ATOM     17  C   UNL     1      -0.587   4.260  24.996  0.00  0.00    +0.005 A 
ATOM     19  C   UNL     1      -3.329   3.935  25.397  0.00  0.00    +0.052 A 
ATOM     20  C   UNL     1      -1.419   5.378  25.074  0.00  0.00    +0.002 A 
ATOM     23  C   UNL     1      -2.790   5.215  25.274  0.00  0.00    +0.019 A 
BRANCH  19  24
ATOM      7  N   UNL     1      -5.874   3.633  25.769  0.00  0.00    -0.191 NA
ATOM     24  C   UNL     1      -4.734   3.768  25.602  0.00  0.00    +0.099 C 
ENDBRANCH  19  24
ENDBRANCH  13  14
ENDBRANCH   4  13
ENDBRANCH   8   4
BRANCH  10  12
ATOM     12  C   UNL     1       0.431  -0.031  22.813  0.00  0.00    +0.140 C 
BRANCH  12   5
ATOM      3  O   UNL     1       2.825   1.561  23.055  0.00  0.00    -0.253 OA
ATOM      5  N   UNL     1       1.775  -0.509  22.964  0.00  0.00    -0.297 N 
ATOM      6  N   UNL     1       4.067  -0.392  23.210  0.00  0.00    -0.297 N 
ATOM     15  C   UNL     1       2.885   0.333  23.074  0.00  0.00    +0.300 C 
ATOM     27  H   UNL     1       1.929  -1.513  22.982  0.00  0.00    +0.150 HD
ATOM     28  H   UNL     1       4.023  -1.404  23.143  0.00  0.00    +0.150 HD
BRANCH   6  18
ATOM     18  C   UNL     1       5.360   0.236  23.343  0.00  0.00    +0.068 C 
ATOM     21  C   UNL     1       5.602   0.663  24.786  0.00  0.00    +0.027 C 
ATOM     22  C   UNL     1       6.457  -0.702  22.854  0.00  0.00    +0.027 C 
ENDBRANCH   6  18
ENDBRANCH  12   5
ENDBRANCH  10  12
TORSDOF 8
ENDMDL
MODEL 6
REMARK VINA RESULT:      -2.9      2.850      6.672
REMARK  Name = 75536739
REMARK  10 active torsions:
REMARK  status: ('A' for Active; 'I' for Inactive)
REMARK    1  A    between atoms: O_2  and  C_9
REMARK    2  A    between atoms: N_4  and  C_8
REMARK    3  A    between atoms: N_4  and  C_13
REMARK    4  A    between atoms: N_5  and  C_12
REMARK    5  A    between atoms: N_6  and  C_18
REMARK    6  A    between atoms: C_10  and  C_12
REMARK    7  A    between atoms: C_13  and  C_14
REMARK    8  A    between atoms: C_18  and  C_21
REMARK    9  A    between atoms: C_18  and  C_22
REMARK   10  A    between atoms: C_19  and  C_24
REMARK                            x       y       z     vdW  Elec       q    Type
REMARK                         _______ _______ _______ _____ _____    ______ ____
ROOT
ATOM      1  O   UNL     1      -1.696  -2.442  23.726  0.00  0.00    -0.371 OA
ATOM      8  C   UNL     1      -0.091  -0.844  24.418  0.00  0.00    +0.111 C 
ATOM      9  C   UNL     1      -0.438  -1.707  25.619  0.00  0.00    +0.164 C 
ATOM     10  C   UNL     1      -1.622  -2.556  25.159  0.00  0.00    +0.165 C 
ATOM     11  C   UNL     1      -0.549  -1.719  23.263  0.00  0.00    +0.181 C 
ENDROOT
BRANCH   9   2
ATOM      2  O   UNL     1       0.677  -2.564  25.876  0.00  0.00    -0.388 OA
ATOM     26  H   UNL     1       0.958  -2.407  26.794  0.00  0.00    +0.210 HD
ENDBRANCH   9   2
BRANCH   8   4
ATOM      4  N   UNL     1      -0.825   0.420  24.433  0.00  0.00    -0.305 NA
ATOM     25  H   UNL     1      -1.603   0.366  23.777  0.00  0.00    +0.123 HD
BRANCH   4  13
ATOM     13  C   UNL     1       0.035   1.531  24.044  0.00  0.00    +0.116 C 
BRANCH  13  14
ATOM     14  C   UNL     1      -0.536   2.857  24.468  0.00  0.00    -0.032 A 
ATOM     16  C   UNL     1      -1.519   2.911  25.455  0.00  0.00    +0.023 A 
ATOM     17  C   UNL     1      -0.080   4.033  23.871  0.00  0.00    +0.005 A 
ATOM     19  C   UNL     1      -2.046   4.142  25.848  0.00  0.00    +0.052 A 
ATOM     20  C   UNL     1      -0.608   5.264  24.264  0.00  0.00    +0.002 A 
ATOM     23  C   UNL     1      -1.591   5.318  25.252  0.00  0.00    +0.019 A 
BRANCH  19  24
ATOM      7  N   UNL     1      -3.871   4.245  27.682  0.00  0.00    -0.191 NA
ATOM     24  C   UNL     1      -3.053   4.199  26.860  0.00  0.00    +0.099 C 
ENDBRANCH  19  24
ENDBRANCH  13  14
ENDBRANCH   4  13
ENDBRANCH   8   4
BRANCH  10  12
ATOM     12  C   UNL     1      -2.955  -2.109  25.742  0.00  0.00    +0.140 C 
BRANCH  12   5
ATOM      3  O   UNL     1      -4.953  -0.689  24.221  0.00  0.00    -0.253 OA
ATOM      5  N   UNL     1      -3.116  -0.687  25.642  0.00  0.00    -0.297 N 
ATOM      6  N   UNL     1      -4.043   1.313  24.959  0.00  0.00    -0.297 N 
ATOM     15  C   UNL     1      -4.115  -0.075  24.879  0.00  0.00    +0.300 C 
ATOM     27  H   UNL     1      -2.464  -0.092  26.145  0.00  0.00    +0.150 HD
ATOM     28  H   UNL     1      -3.271   1.728  25.471  0.00  0.00    +0.150 HD
BRANCH   6  18
ATOM     18  C   UNL     1      -4.960   2.186  24.264  0.00  0.00    +0.068 C 
ATOM     21  C   UNL     1      -5.903   2.866  25.249  0.00  0.00    +0.027 C 
ATOM     22  C   UNL     1      -4.193   3.211  23.438  0.00  0.00    +0.027 C 
ENDBRANCH   6  18
ENDBRANCH  12   5
ENDBRANCH  10  12
TORSDOF 8
ENDMDL
MODEL 7
REMARK VINA RESULT:      -2.8      2.712      6.402
REMARK  Name = 75536739
REMARK  10 active torsions:
REMARK  status: ('A' for Active; 'I' for Inactive)
REMARK    1  A    between atoms: O_2  and  C_9
REMARK    2  A    between atoms: N_4  and  C_8
REMARK    3  A    between atoms: N_4  and  C_13
REMARK    4  A    between atoms: N_5  and  C_12
REMARK    5  A    between atoms: N_6  and  C_18
REMARK    6  A    between atoms: C_10  and  C_12
REMARK    7  A    between atoms: C_13  and  C_14
REMARK    8  A    between atoms: C_18  and  C_21
REMARK    9  A    between atoms: C_18  and  C_22
REMARK   10  A    between atoms: C_19  and  C_24
REMARK                            x       y       z     vdW  Elec       q    Type
REMARK                         _______ _______ _______ _____ _____    ______ ____
ROOT
ATOM      1  O   UNL     1      -2.790  -2.821  24.282  0.00  0.00    -0.371 OA
ATOM      8  C   UNL     1      -1.017  -1.282  24.589  0.00  0.00    +0.111 C 
ATOM      9  C   UNL     1      -2.180  -0.832  25.454  0.00  0.00    +0.164 C 
ATOM     10  C   UNL     1      -3.345  -1.731  25.041  0.00  0.00    +0.165 C 
ATOM     11  C   UNL     1      -1.361  -2.741  24.339  0.00  0.00    +0.181 C 
ENDROOT
BRANCH   9   2
ATOM      2  O   UNL     1      -1.841  -1.105  26.816  0.00  0.00    -0.388 OA
ATOM     26  H   UNL     1      -1.894  -0.264  27.302  0.00  0.00    +0.210 HD
ENDBRANCH   9   2
BRANCH   8   4
ATOM      4  N   UNL     1      -0.963  -0.540  23.330  0.00  0.00    -0.305 NA
ATOM     25  H   UNL     1      -0.887  -1.197  22.554  0.00  0.00    +0.123 HD
BRANCH   4  13
ATOM     13  C   UNL     1       0.189   0.353  23.297  0.00  0.00    +0.116 C 
BRANCH  13  14
ATOM     14  C   UNL     1      -0.006   1.553  24.185  0.00  0.00    -0.032 A 
ATOM     16  C   UNL     1       0.417   1.516  25.512  0.00  0.00    +0.023 A 
ATOM     17  C   UNL     1      -0.610   2.703  23.676  0.00  0.00    +0.005 A 
ATOM     19  C   UNL     1       0.237   2.630  26.333  0.00  0.00    +0.052 A 
ATOM     20  C   UNL     1      -0.790   3.817  24.496  0.00  0.00    +0.002 A 
ATOM     23  C   UNL     1      -0.367   3.781  25.825  0.00  0.00    +0.019 A 
BRANCH  19  24
ATOM      7  N   UNL     1       1.022   2.563  28.800  0.00  0.00    -0.191 NA
ATOM     24  C   UNL     1       0.670   2.594  27.694  0.00  0.00    +0.099 C 
ENDBRANCH  19  24
ENDBRANCH  13  14
ENDBRANCH   4  13
ENDBRANCH   8   4
BRANCH  10  12
ATOM     12  C   UNL     1      -4.381  -1.026  24.178  0.00  0.00    +0.140 C 
BRANCH  12   5
ATOM      3  O   UNL     1      -5.303   1.177  25.798  0.00  0.00    -0.253 OA
ATOM      5  N   UNL     1      -4.063   0.362  24.010  0.00  0.00    -0.297 N 
ATOM      6  N   UNL     1      -4.088   2.627  24.455  0.00  0.00    -0.297 N 
ATOM     15  C   UNL     1      -4.554   1.373  24.842  0.00  0.00    +0.300 C 
ATOM     27  H   UNL     1      -3.456   0.627  23.240  0.00  0.00    +0.150 HD
ATOM     28  H   UNL     1      -3.531   2.695  23.610  0.00  0.00    +0.150 HD
BRANCH   6  18
ATOM     18  C   UNL     1      -4.444   3.842  25.149  0.00  0.00    +0.068 C 
ATOM     21  C   UNL     1      -5.938   3.870  25.449  0.00  0.00    +0.027 C 
ATOM     22  C   UNL     1      -3.622   3.986  26.424  0.00  0.00    +0.027 C 
ENDBRANCH   6  18
ENDBRANCH  12   5
ENDBRANCH  10  12
TORSDOF 8
ENDMDL
MODEL 8
REMARK VINA RESULT:      -2.8      2.137      5.947
REMARK  Name = 75536739
REMARK  10 active torsions:
REMARK  status: ('A' for Active; 'I' for Inactive)
REMARK    1  A    between atoms: O_2  and  C_9
REMARK    2  A    between atoms: N_4  and  C_8
REMARK    3  A    between atoms: N_4  and  C_13
REMARK    4  A    between atoms: N_5  and  C_12
REMARK    5  A    between atoms: N_6  and  C_18
REMARK    6  A    between atoms: C_10  and  C_12
REMARK    7  A    between atoms: C_13  and  C_14
REMARK    8  A    between atoms: C_18  and  C_21
REMARK    9  A    between atoms: C_18  and  C_22
REMARK   10  A    between atoms: C_19  and  C_24
REMARK                            x       y       z     vdW  Elec       q    Type
REMARK                         _______ _______ _______ _____ _____    ______ ____
ROOT
ATOM      1  O   UNL     1      -4.593  -2.159  23.626  0.00  0.00    -0.371 OA
ATOM      8  C   UNL     1      -2.731  -2.407  25.068  0.00  0.00    +0.111 C 
ATOM      9  C   UNL     1      -3.326  -1.031  25.307  0.00  0.00    +0.164 C 
ATOM     10  C   UNL     1      -4.369  -0.860  24.203  0.00  0.00    +0.165 C 
ATOM     11  C   UNL     1      -3.887  -3.135  24.401  0.00  0.00    +0.181 C 
ENDROOT
BRANCH   9   2
ATOM      2  O   UNL     1      -3.989  -1.058  26.573  0.00  0.00    -0.388 OA
ATOM     26  H   UNL     1      -4.061  -1.989  26.844  0.00  0.00    +0.210 HD
ENDBRANCH   9   2
BRANCH   8   4
ATOM      4  N   UNL     1      -1.575  -2.346  24.175  0.00  0.00    -0.305 NA
ATOM     25  H   UNL     1      -1.454  -3.248  23.717  0.00  0.00    +0.123 HD
BRANCH   4  13
ATOM     13  C   UNL     1      -0.357  -2.034  24.915  0.00  0.00    +0.116 C 
BRANCH  13  14
ATOM     14  C   UNL     1       0.229  -0.711  24.499  0.00  0.00    -0.032 A 
ATOM     16  C   UNL     1       1.363  -0.673  23.690  0.00  0.00    +0.023 A 
ATOM     17  C   UNL     1      -0.367   0.476  24.923  0.00  0.00    +0.005 A 
ATOM     19  C   UNL     1       1.904   0.554  23.304  0.00  0.00    +0.052 A 
ATOM     20  C   UNL     1       0.174   1.703  24.537  0.00  0.00    +0.002 A 
ATOM     23  C   UNL     1       1.309   1.742  23.727  0.00  0.00    +0.019 A 
BRANCH  19  24
ATOM      7  N   UNL     1       4.012   0.627  21.802  0.00  0.00    -0.191 NA
ATOM     24  C   UNL     1       3.067   0.594  22.475  0.00  0.00    +0.099 C 
ENDBRANCH  19  24
ENDBRANCH  13  14
ENDBRANCH   4  13
ENDBRANCH   8   4
BRANCH  10  12
ATOM     12  C   UNL     1      -3.932   0.086  23.094  0.00  0.00    +0.140 C 
BRANCH  12   5
ATOM      3  O   UNL     1      -4.739   2.607  24.243  0.00  0.00    -0.253 OA
ATOM      5  N   UNL     1      -3.075   1.120  23.599  0.00  0.00    -0.297 N 
ATOM      6  N   UNL     1      -2.504   3.142  24.554  0.00  0.00    -0.297 N 
ATOM     15  C   UNL     1      -3.548   2.318  24.141  0.00  0.00    +0.300 C 
ATOM     27  H   UNL     1      -2.070   0.978  23.551  0.00  0.00    +0.150 HD
ATOM     28  H   UNL     1      -1.551   2.846  24.363  0.00  0.00    +0.150 HD
BRANCH   6  18
ATOM     18  C   UNL     1      -2.718   4.439  25.151  0.00  0.00    +0.068 C 
ATOM     21  C   UNL     1      -3.239   4.294  26.575  0.00  0.00    +0.027 C 
ATOM     22  C   UNL     1      -1.433   5.258  25.114  0.00  0.00    +0.027 C 
ENDBRANCH   6  18
ENDBRANCH  12   5
ENDBRANCH  10  12
TORSDOF 8
ENDMDL
MODEL 9
REMARK VINA RESULT:      -2.7      2.628      5.801
REMARK  Name = 75536739
REMARK  10 active torsions:
REMARK  status: ('A' for Active; 'I' for Inactive)
REMARK    1  A    between atoms: O_2  and  C_9
REMARK    2  A    between atoms: N_4  and  C_8
REMARK    3  A    between atoms: N_4  and  C_13
REMARK    4  A    between atoms: N_5  and  C_12
REMARK    5  A    between atoms: N_6  and  C_18
REMARK    6  A    between atoms: C_10  and  C_12
REMARK    7  A    between atoms: C_13  and  C_14
REMARK    8  A    between atoms: C_18  and  C_21
REMARK    9  A    between atoms: C_18  and  C_22
REMARK   10  A    between atoms: C_19  and  C_24
REMARK                            x       y       z     vdW  Elec       q    Type
REMARK                         _______ _______ _______ _____ _____    ______ ____
ROOT
ATOM      1  O   UNL     1      -4.694  -2.015  23.500  0.00  0.00    -0.371 OA
ATOM      8  C   UNL     1      -2.915  -2.608  24.945  0.00  0.00    +0.111 C 
ATOM      9  C   UNL     1      -3.267  -1.156  25.211  0.00  0.00    +0.164 C 
ATOM     10  C   UNL     1      -4.255  -0.785  24.106  0.00  0.00    +0.165 C 
ATOM     11  C   UNL     1      -4.173  -3.113  24.258  0.00  0.00    +0.181 C 
ENDROOT
BRANCH   9   2
ATOM      2  O   UNL     1      -3.934  -1.093  26.474  0.00  0.00    -0.388 OA
ATOM     26  H   UNL     1      -4.227  -1.995  26.692  0.00  0.00    +0.210 HD
ENDBRANCH   9   2
BRANCH   8   4
ATOM      4  N   UNL     1      -1.758  -2.729  24.060  0.00  0.00    -0.305 NA
ATOM     25  H   UNL     1      -1.683  -3.692  23.731  0.00  0.00    +0.123 HD
BRANCH   4  13
ATOM     13  C   UNL     1      -0.525  -2.380  24.757  0.00  0.00    +0.116 C 
BRANCH  13  14
ATOM     14  C   UNL     1      -0.120  -0.953  24.498  0.00  0.00    -0.032 A 
ATOM     16  C   UNL     1      -0.273   0.008  25.496  0.00  0.00    +0.023 A 
ATOM     17  C   UNL     1       0.408  -0.595  23.258  0.00  0.00    +0.005 A 
ATOM     19  C   UNL     1       0.104   1.330  25.256  0.00  0.00    +0.052 A 
ATOM     20  C   UNL     1       0.786   0.727  23.018  0.00  0.00    +0.002 A 
ATOM     23  C   UNL     1       0.634   1.689  24.016  0.00  0.00    +0.019 A 
BRANCH  19  24
ATOM      7  N   UNL     1      -0.177   3.116  27.109  0.00  0.00    -0.191 NA
ATOM     24  C   UNL     1      -0.051   2.316  26.278  0.00  0.00    +0.099 C 
ENDBRANCH  19  24
ENDBRANCH  13  14
ENDBRANCH   4  13
ENDBRANCH   8   4
BRANCH  10  12
ATOM     12  C   UNL     1      -3.653   0.094  23.020  0.00  0.00    +0.140 C 
BRANCH  12   5
ATOM      3  O   UNL     1      -4.677   2.585  24.056  0.00  0.00    -0.253 OA
ATOM      5  N   UNL     1      -2.894   1.172  23.584  0.00  0.00    -0.297 N 
ATOM      6  N   UNL     1      -2.505   3.229  24.557  0.00  0.00    -0.297 N 
ATOM     15  C   UNL     1      -3.469   2.352  24.065  0.00  0.00    +0.300 C 
ATOM     27  H   UNL     1      -1.883   1.078  23.627  0.00  0.00    +0.150 HD
ATOM     28  H   UNL     1      -1.527   2.977  24.456  0.00  0.00    +0.150 HD
BRANCH   6  18
ATOM     18  C   UNL     1      -2.833   4.520  25.113  0.00  0.00    +0.068 C 
ATOM     21  C   UNL     1      -3.375   4.371  26.529  0.00  0.00    +0.027 C 
ATOM     22  C   UNL     1      -1.614   5.435  25.083  0.00  0.00    +0.027 C 
ENDBRANCH   6  18
ENDBRANCH  12   5
ENDBRANCH  10  12
TORSDOF 8
ENDMDL
MODEL 10
REMARK VINA RESULT:      -2.6     14.281     16.370
REMARK  Name = 75536739
REMARK  10 active torsions:
REMARK  status: ('A' for Active; 'I' for Inactive)
REMARK    1  A    between atoms: O_2  and  C_9
REMARK    2  A    between atoms: N_4  and  C_8
REMARK    3  A    between atoms: N_4  and  C_13
REMARK    4  A    between atoms: N_5  and  C_12
REMARK    5  A    between atoms: N_6  and  C_18
REMARK    6  A    between atoms: C_10  and  C_12
REMARK    7  A    between atoms: C_13  and  C_14
REMARK    8  A    between atoms: C_18  and  C_21
REMARK    9  A    between atoms: C_18  and  C_22
REMARK   10  A    between atoms: C_19  and  C_24
REMARK                            x       y       z     vdW  Elec       q    Type
REMARK                         _______ _______ _______ _____ _____    ______ ____
ROOT
ATOM      1  O   UNL     1      -7.300  -8.711  15.916  0.00  0.00    -0.371 OA
ATOM      8  C   UNL     1      -8.893  -9.878  14.609  0.00  0.00    +0.111 C 
ATOM      9  C   UNL     1      -8.923 -10.461  16.010  0.00  0.00    +0.164 C 
ATOM     10  C   UNL     1      -7.733  -9.821  16.725  0.00  0.00    +0.165 C 
ATOM     11  C   UNL     1      -8.236  -8.528  14.847  0.00  0.00    +0.181 C 
ENDROOT
BRANCH   9   2
ATOM      2  O   UNL     1     -10.132 -10.026  16.637  0.00  0.00    -0.388 OA
ATOM     26  H   UNL     1     -10.317  -9.126  16.319  0.00  0.00    +0.210 HD
ENDBRANCH   9   2
BRANCH   8   4
ATOM      4  N   UNL     1      -8.087 -10.694  13.703  0.00  0.00    -0.305 NA
ATOM     25  H   UNL     1      -7.163 -10.273  13.601  0.00  0.00    +0.123 HD
BRANCH   4  13
ATOM     13  C   UNL     1      -8.704 -10.781  12.385  0.00  0.00    +0.116 C 
BRANCH  13  14
ATOM     14  C   UNL     1      -7.999  -9.914  11.376  0.00  0.00    -0.032 A 
ATOM     16  C   UNL     1      -6.606  -9.882  11.336  0.00  0.00    +0.023 A 
ATOM     17  C   UNL     1      -8.741  -9.144  10.482  0.00  0.00    +0.005 A 
ATOM     19  C   UNL     1      -5.953  -9.079  10.400  0.00  0.00    +0.052 A 
ATOM     20  C   UNL     1      -8.089  -8.341   9.545  0.00  0.00    +0.002 A 
ATOM     23  C   UNL     1      -6.695  -8.309   9.504  0.00  0.00    +0.019 A 
BRANCH  19  24
ATOM      7  N   UNL     1      -3.365  -9.018  10.322  0.00  0.00    -0.191 NA
ATOM     24  C   UNL     1      -4.525  -9.046  10.357  0.00  0.00    +0.099 C 
ENDBRANCH  19  24
ENDBRANCH  13  14
ENDBRANCH   4  13
ENDBRANCH   8   4
BRANCH  10  12
ATOM     12  C   UNL     1      -6.555 -10.764  16.911  0.00  0.00    +0.140 C 
BRANCH  12   5
ATOM      3  O   UNL     1      -3.670 -10.781  16.998  0.00  0.00    -0.253 OA
ATOM      5  N   UNL     1      -5.656 -10.702  15.794  0.00  0.00    -0.297 N 
ATOM      6  N   UNL     1      -3.634 -10.643  14.683  0.00  0.00    -0.297 N 
ATOM     15  C   UNL     1      -4.264 -10.714  15.923  0.00  0.00    +0.300 C 
ATOM     27  H   UNL     1      -6.052 -10.636  14.861  0.00  0.00    +0.150 HD
ATOM     28  H   UNL     1      -4.210 -10.519  13.855  0.00  0.00    +0.150 HD
BRANCH   6  18
ATOM     18  C   UNL     1      -2.198 -10.640  14.533  0.00  0.00    +0.068 C 
ATOM     21  C   UNL     1      -1.813 -10.492  13.066  0.00  0.00    +0.027 C 
ATOM     22  C   UNL     1      -1.579  -9.535  15.380  0.00  0.00    +0.027 C 
ENDBRANCH   6  18
ENDBRANCH  12   5
ENDBRANCH  10  12
TORSDOF 8
ENDMDL
