MODEL 1
REMARK VINA RESULT:       0.4      0.000      0.000
REMARK  Name = 11885877
REMARK  3 active torsions:
REMARK  status: ('A' for Active; 'I' for Inactive)
REMARK    1  A    between atoms: N_8  and  C_19
REMARK    2  A    between atoms: C_18  and  C_21
REMARK    3  A    between atoms: C_24  and  C_28
REMARK                            x       y       z     vdW  Elec       q    Type
REMARK                         _______ _______ _______ _____ _____    ______ ____
ROOT
ATOM      2  O   UNL     1       0.404   2.479  25.815  0.00  0.00    -0.266 OA
ATOM      3  O   UNL     1      -3.809  -0.251  27.065  0.00  0.00    -0.270 OA
ATOM      6  N   UNL     1      -4.356   1.100  25.235  0.00  0.00    -0.297 N 
ATOM      7  N   UNL     1      -1.584   2.500  24.588  0.00  0.00    -0.310 N 
ATOM      9  C   UNL     1      -3.760   3.503  25.495  0.00  0.00    +0.027 C 
ATOM     10  C   UNL     1      -3.726   2.470  23.261  0.00  0.00    +0.054 C 
ATOM     11  C   UNL     1      -4.098   3.738  24.027  0.00  0.00    +0.018 C 
ATOM     12  C   UNL     1      -4.554   2.304  26.043  0.00  0.00    +0.113 C 
ATOM     13  C   UNL     1      -2.246   3.302  25.627  0.00  0.00    +0.130 C 
ATOM     14  C   UNL     1      -4.559   1.285  23.789  0.00  0.00    +0.117 C 
ATOM     15  C   UNL     1      -2.248   2.159  23.404  0.00  0.00    +0.027 A 
ATOM     16  C   UNL     1      -1.590   1.527  22.419  0.00  0.00    +0.024 A 
ATOM     17  C   UNL     1      -0.227   2.185  24.799  0.00  0.00    +0.273 A 
ATOM     18  C   UNL     1      -3.980  -0.092  25.857  0.00  0.00    +0.247 C 
ATOM     19  C   UNL     1       0.462   1.456  23.687  0.00  0.00    +0.099 A 
ATOM     20  C   UNL     1      -0.208   1.169  22.567  0.00  0.00    +0.030 A 
ENDROOT
BRANCH  18  21
ATOM      1  F   UNL     1      -3.091  -4.566  22.625  0.00  0.00    -0.205 F 
ATOM     21  C   UNL     1      -3.747  -1.265  25.009  0.00  0.00    +0.037 A 
ATOM     22  C   UNL     1      -2.512  -1.908  25.040  0.00  0.00    +0.016 A 
ATOM     23  C   UNL     1      -4.762  -1.733  24.178  0.00  0.00    +0.016 A 
ATOM     25  C   UNL     1      -2.290  -3.024  24.233  0.00  0.00    +0.039 A 
ATOM     26  C   UNL     1      -4.540  -2.849  23.371  0.00  0.00    +0.039 A 
ATOM     27  C   UNL     1      -3.305  -3.494  23.399  0.00  0.00    +0.123 A 
ENDBRANCH  18  21
BRANCH  19   8
ATOM      4  O   UNL     1       2.013  -0.205  21.960  0.00  0.00    -0.266 OA
ATOM      8  N   UNL     1       1.771   1.116  23.860  0.00  0.00    -0.275 N 
ATOM     24  C   UNL     1       2.473   0.301  22.981  0.00  0.00    +0.284 C 
ATOM     32  H   UNL     1       2.189   1.319  24.764  0.00  0.00    +0.155 HD
BRANCH  24  28
ATOM      5  O   UNL     1       4.180  -1.159  23.776  0.00  0.00    -0.458 OA
ATOM     28  C   UNL     1       3.899   0.060  23.324  0.00  0.00    +0.189 A 
ATOM     29  C   UNL     1       4.943   0.887  23.246  0.00  0.00    +0.054 A 
ATOM     30  C   UNL     1       6.034   0.111  23.703  0.00  0.00    +0.042 A 
ATOM     31  C   UNL     1       5.518  -1.126  24.014  0.00  0.00    +0.196 A 
ENDBRANCH  24  28
ENDBRANCH  19   8
TORSDOF 3
ENDMDL
