MODEL 1
REMARK VINA RESULT:       6.4      0.000      0.000
REMARK  Name = 11883096
REMARK  11 active torsions:
REMARK  status: ('A' for Active; 'I' for Inactive)
REMARK    1  A    between atoms: O_2  and  C_16
REMARK    2  A    between atoms: O_3  and  C_21
REMARK    3  A    between atoms: N_8  and  C_29
REMARK    4  A    between atoms: N_10  and  C_33
REMARK    5  A    between atoms: C_11  and  C_19
REMARK    6  A    between atoms: C_13  and  C_21
REMARK    7  A    between atoms: C_13  and  C_22
REMARK    8  A    between atoms: C_14  and  C_24
REMARK    9  A    between atoms: C_24  and  C_25
REMARK   10  A    between atoms: C_27  and  C_28
REMARK   11  A    between atoms: C_29  and  C_33
REMARK                            x       y       z     vdW  Elec       q    Type
REMARK                         _______ _______ _______ _____ _____    ______ ____
ROOT
ATOM      1  S   UNL     1       0.610   2.010  25.596  0.00  0.00    -0.057 S 
ATOM      5  O   UNL     1       1.963   0.096  21.584  0.00  0.00    -0.275 OA
ATOM      7  N   UNL     1      -0.152   1.347  23.215  0.00  0.00    -0.229 NA
ATOM      9  N   UNL     1       2.139   0.871  23.796  0.00  0.00    -0.264 N 
ATOM     11  C   UNL     1      -3.734   2.361  24.218  0.00  0.00    -0.019 C 
ATOM     12  C   UNL     1      -3.219   3.480  25.226  0.00  0.00    +0.011 C 
ATOM     13  C   UNL     1      -4.310   4.221  26.092  0.00  0.00    +0.021 C 
ATOM     14  C   UNL     1      -2.567   2.072  23.164  0.00  0.00    +0.054 C 
ATOM     15  C   UNL     1      -4.968   2.892  23.445  0.00  0.00    +0.010 C 
ATOM     16  C   UNL     1      -5.491   4.644  25.175  0.00  0.00    +0.123 C 
ATOM     17  C   UNL     1      -1.995   2.983  26.051  0.00  0.00    +0.049 C 
ATOM     18  C   UNL     1      -6.044   3.494  24.339  0.00  0.00    +0.032 C 
ATOM     19  C   UNL     1      -4.123   1.043  24.930  0.00  0.00    +0.012 C 
ATOM     20  C   UNL     1      -1.239   1.906  23.859  0.00  0.00    +0.058 A 
ATOM     22  C   UNL     1      -3.693   5.521  26.680  0.00  0.00    +0.016 C 
ATOM     23  C   UNL     1      -0.999   2.339  25.147  0.00  0.00    +0.015 A 
ATOM     26  C   UNL     1       0.876   1.343  24.036  0.00  0.00    +0.165 A 
ATOM     28  C   UNL     1       2.618   0.283  22.612  0.00  0.00    +0.222 C 
ATOM     41  H   UNL     1       2.787   0.964  24.573  0.00  0.00    +0.157 HD
ENDROOT
BRANCH  28  27
ATOM     27  C   UNL     1       4.100  -0.139  22.700  0.00  0.00    +0.075 C 
ATOM     30  C   UNL     1       4.466  -1.229  23.728  0.00  0.00    +0.013 C 
ATOM     31  C   UNL     1       5.062   0.796  23.461  0.00  0.00    +0.013 C 
ATOM     32  C   UNL     1       5.796  -0.475  23.939  0.00  0.00    +0.001 C 
ENDBRANCH  28  27
BRANCH  16   2
ATOM      2  O   UNL     1      -6.554   5.201  25.948  0.00  0.00    -0.391 OA
ATOM     38  H   UNL     1      -6.410   4.944  26.874  0.00  0.00    +0.210 HD
ENDBRANCH  16   2
BRANCH  13  21
ATOM     21  C   UNL     1      -4.817   3.415  27.309  0.00  0.00    +0.165 C 
BRANCH  21   3
ATOM      3  O   UNL     1      -5.986   2.732  26.916  0.00  0.00    -0.394 OA
ATOM     39  H   UNL     1      -5.750   1.796  26.798  0.00  0.00    +0.209 HD
ENDBRANCH  21   3
ENDBRANCH  13  21
BRANCH  14  24
ATOM     24  C   UNL     1      -2.848   0.908  22.205  0.00  0.00    +0.106 C 
BRANCH  24  25
ATOM      4  O   UNL     1      -1.578  -0.909  23.174  0.00  0.00    -0.276 OA
ATOM      8  N   UNL     1      -3.896  -1.044  23.100  0.00  0.00    -0.314 N 
ATOM     25  C   UNL     1      -2.670  -0.434  22.876  0.00  0.00    +0.214 C 
ATOM     40  H   UNL     1      -4.748  -0.564  22.823  0.00  0.00    +0.149 HD
BRANCH   8  29
ATOM     29  C   UNL     1      -4.032  -2.339  23.725  0.00  0.00    +0.119 C 
BRANCH  29  33
ATOM     33  C   UNL     1      -4.062  -2.219  25.241  0.00  0.00    +0.103 C 
BRANCH  33  10
ATOM      6  O   UNL     1       0.059  -1.587  25.719  0.00  0.00    -0.377 OA
ATOM     10  N   UNL     1      -2.705  -2.263  25.781  0.00  0.00    -0.297 NA
ATOM     34  C   UNL     1      -2.235  -0.913  26.125  0.00  0.00    +0.112 C 
ATOM     35  C   UNL     1      -1.782  -2.888  24.823  0.00  0.00    +0.112 C 
ATOM     36  C   UNL     1      -0.814  -0.984  26.674  0.00  0.00    +0.175 C 
ATOM     37  C   UNL     1      -0.371  -2.913  25.403  0.00  0.00    +0.175 C 
ENDBRANCH  33  10
ENDBRANCH  29  33
ENDBRANCH   8  29
ENDBRANCH  24  25
ENDBRANCH  14  24
TORSDOF 9
ENDMDL
MODEL 2
REMARK VINA RESULT:       8.2      2.530      3.633
REMARK  Name = 11883096
REMARK  11 active torsions:
REMARK  status: ('A' for Active; 'I' for Inactive)
REMARK    1  A    between atoms: O_2  and  C_16
REMARK    2  A    between atoms: O_3  and  C_21
REMARK    3  A    between atoms: N_8  and  C_29
REMARK    4  A    between atoms: N_10  and  C_33
REMARK    5  A    between atoms: C_11  and  C_19
REMARK    6  A    between atoms: C_13  and  C_21
REMARK    7  A    between atoms: C_13  and  C_22
REMARK    8  A    between atoms: C_14  and  C_24
REMARK    9  A    between atoms: C_24  and  C_25
REMARK   10  A    between atoms: C_27  and  C_28
REMARK   11  A    between atoms: C_29  and  C_33
REMARK                            x       y       z     vdW  Elec       q    Type
REMARK                         _______ _______ _______ _____ _____    ______ ____
ROOT
ATOM      1  S   UNL     1       0.341   2.829  24.142  0.00  0.00    -0.057 S 
ATOM      5  O   UNL     1       2.819  -0.891  22.872  0.00  0.00    -0.275 OA
ATOM      7  N   UNL     1       0.219   0.307  23.580  0.00  0.00    -0.229 NA
ATOM      9  N   UNL     1       2.392   1.343  23.461  0.00  0.00    -0.264 N 
ATOM     11  C   UNL     1      -3.491   0.385  24.628  0.00  0.00    -0.019 C 
ATOM     12  C   UNL     1      -3.670   1.898  24.168  0.00  0.00    +0.011 C 
ATOM     13  C   UNL     1      -5.060   2.580  24.474  0.00  0.00    +0.021 C 
ATOM     14  C   UNL     1      -2.233  -0.221  23.850  0.00  0.00    +0.054 C 
ATOM     15  C   UNL     1      -4.749  -0.428  24.229  0.00  0.00    +0.010 C 
ATOM     16  C   UNL     1      -6.206   1.616  24.058  0.00  0.00    +0.123 C 
ATOM     17  C   UNL     1      -2.443   2.766  24.574  0.00  0.00    +0.049 C 
ATOM     18  C   UNL     1      -6.061   0.218  24.651  0.00  0.00    +0.032 C 
ATOM     19  C   UNL     1      -3.271   0.242  26.154  0.00  0.00    +0.012 C 
ATOM     20  C   UNL     1      -1.059   0.724  23.898  0.00  0.00    +0.058 A 
ATOM     22  C   UNL     1      -5.197   3.863  23.607  0.00  0.00    +0.016 C 
ATOM     23  C   UNL     1      -1.179   2.064  24.207  0.00  0.00    +0.015 A 
ATOM     26  C   UNL     1       1.040   1.330  23.681  0.00  0.00    +0.165 A 
ATOM     28  C   UNL     1       3.204   0.263  23.076  0.00  0.00    +0.222 C 
ATOM     41  H   UNL     1       2.840   2.246  23.598  0.00  0.00    +0.157 HD
ENDROOT
BRANCH  28  27
ATOM     27  C   UNL     1       4.692   0.643  22.925  0.00  0.00    +0.075 C 
ATOM     30  C   UNL     1       5.674  -0.479  22.530  0.00  0.00    +0.013 C 
ATOM     31  C   UNL     1       5.518   0.808  24.217  0.00  0.00    +0.013 C 
ATOM     32  C   UNL     1       6.712   0.214  23.438  0.00  0.00    +0.001 C 
ENDBRANCH  28  27
BRANCH  16   2
ATOM      2  O   UNL     1      -7.474   2.148  24.441  0.00  0.00    -0.391 OA
ATOM     38  H   UNL     1      -7.528   2.109  25.411  0.00  0.00    +0.210 HD
ENDBRANCH  16   2
BRANCH  13  21
ATOM     21  C   UNL     1      -5.235   3.046  25.937  0.00  0.00    +0.165 C 
BRANCH  21   3
ATOM      3  O   UNL     1      -6.219   4.055  25.953  0.00  0.00    -0.394 OA
ATOM     39  H   UNL     1      -7.006   3.701  25.505  0.00  0.00    +0.209 HD
ENDBRANCH  21   3
ENDBRANCH  13  21
BRANCH  14  24
ATOM     24  C   UNL     1      -1.832  -1.636  24.290  0.00  0.00    +0.106 C 
BRANCH  24  25
ATOM      4  O   UNL     1      -0.116  -2.532  25.742  0.00  0.00    -0.276 OA
ATOM      8  N   UNL     1      -1.014  -0.436  26.187  0.00  0.00    -0.314 N 
ATOM     25  C   UNL     1      -0.887  -1.616  25.469  0.00  0.00    +0.214 C 
ATOM     40  H   UNL     1      -1.678   0.267  25.874  0.00  0.00    +0.149 HD
BRANCH   8  29
ATOM     29  C   UNL     1      -0.236  -0.141  27.368  0.00  0.00    +0.119 C 
BRANCH  29  33
ATOM     33  C   UNL     1      -0.199   1.355  27.644  0.00  0.00    +0.103 C 
BRANCH  33  10
ATOM      6  O   UNL     1       2.654   3.540  29.810  0.00  0.00    -0.377 OA
ATOM     10  N   UNL     1       1.008   1.704  28.389  0.00  0.00    -0.297 NA
ATOM     34  C   UNL     1       0.672   2.142  29.752  0.00  0.00    +0.112 C 
ATOM     35  C   UNL     1       1.765   2.754  27.694  0.00  0.00    +0.112 C 
ATOM     36  C   UNL     1       1.946   2.513  30.505  0.00  0.00    +0.175 C 
ATOM     37  C   UNL     1       3.014   3.109  28.496  0.00  0.00    +0.175 C 
ENDBRANCH  33  10
ENDBRANCH  29  33
ENDBRANCH   8  29
ENDBRANCH  24  25
ENDBRANCH  14  24
TORSDOF 9
ENDMDL
MODEL 3
REMARK VINA RESULT:       8.2      1.095      1.655
REMARK  Name = 11883096
REMARK  11 active torsions:
REMARK  status: ('A' for Active; 'I' for Inactive)
REMARK    1  A    between atoms: O_2  and  C_16
REMARK    2  A    between atoms: O_3  and  C_21
REMARK    3  A    between atoms: N_8  and  C_29
REMARK    4  A    between atoms: N_10  and  C_33
REMARK    5  A    between atoms: C_11  and  C_19
REMARK    6  A    between atoms: C_13  and  C_21
REMARK    7  A    between atoms: C_13  and  C_22
REMARK    8  A    between atoms: C_14  and  C_24
REMARK    9  A    between atoms: C_24  and  C_25
REMARK   10  A    between atoms: C_27  and  C_28
REMARK   11  A    between atoms: C_29  and  C_33
REMARK                            x       y       z     vdW  Elec       q    Type
REMARK                         _______ _______ _______ _____ _____    ______ ____
ROOT
ATOM      1  S   UNL     1       0.743   2.050  25.753  0.00  0.00    -0.057 S 
ATOM      5  O   UNL     1       2.349   0.485  21.682  0.00  0.00    -0.275 OA
ATOM      7  N   UNL     1       0.139   1.614  23.276  0.00  0.00    -0.229 NA
ATOM      9  N   UNL     1       2.381   1.055  23.962  0.00  0.00    -0.264 N 
ATOM     11  C   UNL     1      -3.494   2.587  24.126  0.00  0.00    -0.019 C 
ATOM     12  C   UNL     1      -3.039   3.603  25.264  0.00  0.00    +0.011 C 
ATOM     13  C   UNL     1      -4.180   4.279  26.119  0.00  0.00    +0.021 C 
ATOM     14  C   UNL     1      -2.262   2.377  23.131  0.00  0.00    +0.054 C 
ATOM     15  C   UNL     1      -4.669   3.203  23.325  0.00  0.00    +0.010 C 
ATOM     16  C   UNL     1      -5.293   4.799  25.167  0.00  0.00    +0.123 C 
ATOM     17  C   UNL     1      -1.878   3.016  26.120  0.00  0.00    +0.049 C 
ATOM     18  C   UNL     1      -5.797   3.738  24.195  0.00  0.00    +0.032 C 
ATOM     19  C   UNL     1      -3.942   1.216  24.688  0.00  0.00    +0.012 C 
ATOM     20  C   UNL     1      -0.985   2.129  23.894  0.00  0.00    +0.058 A 
ATOM     22  C   UNL     1      -3.593   5.512  26.862  0.00  0.00    +0.016 C 
ATOM     23  C   UNL     1      -0.829   2.441  25.229  0.00  0.00    +0.015 A 
ATOM     26  C   UNL     1       1.109   1.522  24.160  0.00  0.00    +0.165 A 
ATOM     28  C   UNL     1       2.934   0.569  22.765  0.00  0.00    +0.222 C 
ATOM     41  H   UNL     1       2.975   1.068  24.786  0.00  0.00    +0.157 HD
ENDROOT
BRANCH  28  27
ATOM     27  C   UNL     1       4.402   0.119  22.912  0.00  0.00    +0.075 C 
ATOM     30  C   UNL     1       4.671  -1.172  23.714  0.00  0.00    +0.013 C 
ATOM     31  C   UNL     1       5.271   0.856  23.952  0.00  0.00    +0.013 C 
ATOM     32  C   UNL     1       5.964  -0.498  24.219  0.00  0.00    +0.001 C 
ENDBRANCH  28  27
BRANCH  16   2
ATOM      2  O   UNL     1      -6.400   5.300  25.915  0.00  0.00    -0.391 OA
ATOM     38  H   UNL     1      -6.147   5.297  26.854  0.00  0.00    +0.210 HD
ENDBRANCH  16   2
BRANCH  13  21
ATOM     21  C   UNL     1      -4.775   3.374  27.221  0.00  0.00    +0.165 C 
BRANCH  21   3
ATOM      3  O   UNL     1      -5.932   2.761  26.697  0.00  0.00    -0.394 OA
ATOM     39  H   UNL     1      -5.824   1.801  26.801  0.00  0.00    +0.209 HD
ENDBRANCH  21   3
ENDBRANCH  13  21
BRANCH  14  24
ATOM     24  C   UNL     1      -2.487   1.308  22.053  0.00  0.00    +0.106 C 
BRANCH  24  25
ATOM      4  O   UNL     1      -3.157  -0.840  22.943  0.00  0.00    -0.276 OA
ATOM      8  N   UNL     1      -0.902  -0.391  22.608  0.00  0.00    -0.314 N 
ATOM     25  C   UNL     1      -2.256  -0.088  22.583  0.00  0.00    +0.214 C 
ATOM     40  H   UNL     1      -0.232   0.299  22.280  0.00  0.00    +0.149 HD
BRANCH   8  29
ATOM     29  C   UNL     1      -0.384  -1.658  23.070  0.00  0.00    +0.119 C 
BRANCH  29  33
ATOM     33  C   UNL     1      -0.025  -1.600  24.547  0.00  0.00    +0.103 C 
BRANCH  33  10
ATOM      6  O   UNL     1      -3.932  -2.000  26.026  0.00  0.00    -0.377 OA
ATOM     10  N   UNL     1      -1.164  -2.014  25.364  0.00  0.00    -0.297 NA
ATOM     34  C   UNL     1      -2.152  -2.739  24.552  0.00  0.00    +0.112 C 
ATOM     35  C   UNL     1      -1.794  -0.853  26.007  0.00  0.00    +0.112 C 
ATOM     36  C   UNL     1      -3.336  -3.148  25.422  0.00  0.00    +0.175 C 
ATOM     37  C   UNL     1      -2.986  -1.308  26.844  0.00  0.00    +0.175 C 
ENDBRANCH  33  10
ENDBRANCH  29  33
ENDBRANCH   8  29
ENDBRANCH  24  25
ENDBRANCH  14  24
TORSDOF 9
ENDMDL
MODEL 4
REMARK VINA RESULT:      10.3      3.029      4.502
REMARK  Name = 11883096
REMARK  11 active torsions:
REMARK  status: ('A' for Active; 'I' for Inactive)
REMARK    1  A    between atoms: O_2  and  C_16
REMARK    2  A    between atoms: O_3  and  C_21
REMARK    3  A    between atoms: N_8  and  C_29
REMARK    4  A    between atoms: N_10  and  C_33
REMARK    5  A    between atoms: C_11  and  C_19
REMARK    6  A    between atoms: C_13  and  C_21
REMARK    7  A    between atoms: C_13  and  C_22
REMARK    8  A    between atoms: C_14  and  C_24
REMARK    9  A    between atoms: C_24  and  C_25
REMARK   10  A    between atoms: C_27  and  C_28
REMARK   11  A    between atoms: C_29  and  C_33
REMARK                            x       y       z     vdW  Elec       q    Type
REMARK                         _______ _______ _______ _____ _____    ______ ____
ROOT
ATOM      1  S   UNL     1      -0.925  -0.991  23.755  0.00  0.00    -0.057 S 
ATOM      5  O   UNL     1       2.871   1.676  23.483  0.00  0.00    -0.275 OA
ATOM      7  N   UNL     1      -0.011   1.411  24.049  0.00  0.00    -0.229 NA
ATOM      9  N   UNL     1       1.567  -0.276  23.362  0.00  0.00    -0.264 N 
ATOM     11  C   UNL     1      -3.637   2.577  24.650  0.00  0.00    -0.019 C 
ATOM     12  C   UNL     1      -4.060   1.187  25.300  0.00  0.00    +0.011 C 
ATOM     13  C   UNL     1      -5.582   1.003  25.671  0.00  0.00    +0.021 C 
ATOM     14  C   UNL     1      -2.049   2.713  24.767  0.00  0.00    +0.054 C 
ATOM     15  C   UNL     1      -4.286   3.737  25.448  0.00  0.00    +0.010 C 
ATOM     16  C   UNL     1      -6.083   2.268  26.422  0.00  0.00    +0.123 C 
ATOM     17  C   UNL     1      -3.457  -0.015  24.514  0.00  0.00    +0.049 C 
ATOM     18  C   UNL     1      -5.781   3.566  25.680  0.00  0.00    +0.032 C 
ATOM     19  C   UNL     1      -4.057   2.700  23.166  0.00  0.00    +0.012 C 
ATOM     20  C   UNL     1      -1.363   1.442  24.336  0.00  0.00    +0.058 A 
ATOM     22  C   UNL     1      -5.725  -0.200  26.646  0.00  0.00    +0.016 C 
ATOM     23  C   UNL     1      -2.010   0.226  24.247  0.00  0.00    +0.015 A 
ATOM     26  C   UNL     1       0.328   0.182  23.724  0.00  0.00    +0.165 A 
ATOM     28  C   UNL     1       2.755   0.468  23.260  0.00  0.00    +0.222 C 
ATOM     41  H   UNL     1       1.612  -1.269  23.148  0.00  0.00    +0.157 HD
ENDROOT
BRANCH  28  27
ATOM     27  C   UNL     1       3.967  -0.379  22.819  0.00  0.00    +0.075 C 
ATOM     30  C   UNL     1       4.386  -1.549  23.734  0.00  0.00    +0.013 C 
ATOM     31  C   UNL     1       5.372   0.212  23.058  0.00  0.00    +0.013 C 
ATOM     32  C   UNL     1       5.845  -1.230  23.345  0.00  0.00    +0.001 C 
ENDBRANCH  28  27
BRANCH  16   2
ATOM      2  O   UNL     1      -7.488   2.191  26.658  0.00  0.00    -0.391 OA
ATOM     38  H   UNL     1      -7.617   1.963  27.594  0.00  0.00    +0.210 HD
ENDBRANCH  16   2
BRANCH  13  21
ATOM     21  C   UNL     1      -6.499   0.676  24.471  0.00  0.00    +0.165 C 
BRANCH  21   3
ATOM      3  O   UNL     1      -7.366   1.771  24.280  0.00  0.00    -0.394 OA
ATOM     39  H   UNL     1      -7.369   2.286  25.104  0.00  0.00    +0.209 HD
ENDBRANCH  21   3
ENDBRANCH  13  21
BRANCH  14  24
ATOM     24  C   UNL     1      -1.460   3.938  24.055  0.00  0.00    +0.106 C 
BRANCH  24  25
ATOM      4  O   UNL     1       0.081   5.706  24.652  0.00  0.00    -0.276 OA
ATOM      8  N   UNL     1       0.140   3.695  25.813  0.00  0.00    -0.314 N 
ATOM     25  C   UNL     1      -0.339   4.569  24.849  0.00  0.00    +0.214 C 
ATOM     40  H   UNL     1      -0.282   2.774  25.902  0.00  0.00    +0.149 HD
BRANCH   8  29
ATOM     29  C   UNL     1       1.215   4.028  26.719  0.00  0.00    +0.119 C 
BRANCH  29  33
ATOM     33  C   UNL     1       1.823   2.778  27.336  0.00  0.00    +0.103 C 
BRANCH  33  10
ATOM      6  O   UNL     1       1.063   1.864  31.361  0.00  0.00    -0.377 OA
ATOM     10  N   UNL     1       1.784   2.861  28.795  0.00  0.00    -0.297 NA
ATOM     34  C   UNL     1       2.487   1.722  29.402  0.00  0.00    +0.112 C 
ATOM     35  C   UNL     1       0.397   2.913  29.277  0.00  0.00    +0.112 C 
ATOM     36  C   UNL     1       2.422   1.824  30.922  0.00  0.00    +0.175 C 
ATOM     37  C   UNL     1       0.382   2.988  30.802  0.00  0.00    +0.175 C 
ENDBRANCH  33  10
ENDBRANCH  29  33
ENDBRANCH   8  29
ENDBRANCH  24  25
ENDBRANCH  14  24
TORSDOF 9
ENDMDL
