MODEL 1
REMARK VINA RESULT:      -2.5      0.000      0.000
REMARK  Name = 45783498
REMARK  9 active torsions:
REMARK  status: ('A' for Active; 'I' for Inactive)
REMARK    1  A    between atoms: O_3  and  C_30
REMARK    2  A    between atoms: O_3  and  C_31
REMARK    3  A    between atoms: N_4  and  C_13
REMARK    4  A    between atoms: N_8  and  C_28
REMARK    5  A    between atoms: N_8  and  C_29
REMARK    6  A    between atoms: C_9  and  C_14
REMARK    7  A    between atoms: C_13  and  C_15
REMARK    8  A    between atoms: C_18  and  C_20
REMARK    9  A    between atoms: C_29  and  C_30
REMARK                            x       y       z     vdW  Elec       q    Type
REMARK                         _______ _______ _______ _____ _____    ______ ____
ROOT
ATOM      1  O   UNL     1      -2.418   2.965  25.697  0.00  0.00    -0.336 OA
ATOM      5  N   UNL     1      -2.245   1.999  23.685  0.00  0.00    -0.190 NA
ATOM      6  N   UNL     1      -1.084   2.554  25.577  0.00  0.00    -0.056 NA
ATOM     14  C   UNL     1      -3.031   2.600  24.542  0.00  0.00    +0.245 A 
ATOM     18  C   UNL     1      -1.061   1.994  24.364  0.00  0.00    +0.204 A 
ENDROOT
BRANCH  18  20
ATOM      7  N   UNL     1       2.504   1.582  23.387  0.00  0.00    -0.240 NA
ATOM     20  C   UNL     1       0.128   1.419  23.802  0.00  0.00    +0.041 A 
ATOM     25  C   UNL     1       0.090   0.192  23.149  0.00  0.00    +0.016 A 
ATOM     26  C   UNL     1       1.348   2.068  23.894  0.00  0.00    +0.124 A 
ATOM     27  C   UNL     1       1.257  -0.340  22.613  0.00  0.00    +0.044 A 
ATOM     28  C   UNL     1       2.428   0.388  22.759  0.00  0.00    +0.119 A 
BRANCH  28   8
ATOM      8  N   UNL     1       3.610  -0.169  22.209  0.00  0.00    -0.327 N 
ATOM     32  H   UNL     1       3.495  -1.006  21.648  0.00  0.00    +0.148 HD
BRANCH   8  29
ATOM     29  C   UNL     1       4.901   0.398  22.423  0.00  0.00    +0.131 C 
BRANCH  29  30
ATOM     30  C   UNL     1       5.231   0.392  23.905  0.00  0.00    +0.178 C 
BRANCH  30   3
ATOM      3  O   UNL     1       5.643  -0.912  24.295  0.00  0.00    -0.381 OA
ATOM     31  C   UNL     1       4.661  -1.887  23.970  0.00  0.00    +0.194 C 
ENDBRANCH  30   3
ENDBRANCH  29  30
ENDBRANCH   8  29
ENDBRANCH  28   8
ENDBRANCH  18  20
BRANCH  14   9
ATOM      4  N   UNL     1      -5.332   2.224  25.412  0.00  0.00    -0.284 NA
ATOM      9  C   UNL     1      -4.502   2.939  24.422  0.00  0.00    +0.146 C 
ATOM     10  C   UNL     1      -4.790   4.430  24.674  0.00  0.00    +0.030 C 
ATOM     11  C   UNL     1      -5.837   4.452  25.780  0.00  0.00    +0.017 C 
ATOM     12  C   UNL     1      -6.483   3.085  25.685  0.00  0.00    +0.085 C 
BRANCH   4  13
ATOM     13  C   UNL     1      -5.733   0.894  24.971  0.00  0.00    +0.159 C 
BRANCH  13  15
ATOM      2  O   UNL     1      -3.589   0.113  25.814  0.00  0.00    -0.458 OA
ATOM     15  C   UNL     1      -4.559  -0.044  24.877  0.00  0.00    +0.120 A 
ATOM     16  C   UNL     1      -4.241  -1.066  24.012  0.00  0.00    +0.054 A 
ATOM     17  C   UNL     1      -2.989  -1.579  24.442  0.00  0.00    +0.020 A 
ATOM     19  C   UNL     1      -2.631  -0.821  25.552  0.00  0.00    +0.135 A 
ATOM     21  C   UNL     1      -2.119  -2.599  24.017  0.00  0.00    +0.011 A 
ATOM     22  C   UNL     1      -1.457  -1.007  26.279  0.00  0.00    +0.047 A 
ATOM     23  C   UNL     1      -0.930  -2.808  24.727  0.00  0.00    +0.001 A 
ATOM     24  C   UNL     1      -0.607  -2.025  25.838  0.00  0.00    +0.004 A 
ENDBRANCH  13  15
ENDBRANCH   4  13
ENDBRANCH  14   9
TORSDOF 8
ENDMDL
MODEL 2
REMARK VINA RESULT:       0.3      1.221      1.509
REMARK  Name = 45783498
REMARK  9 active torsions:
REMARK  status: ('A' for Active; 'I' for Inactive)
REMARK    1  A    between atoms: O_3  and  C_30
REMARK    2  A    between atoms: O_3  and  C_31
REMARK    3  A    between atoms: N_4  and  C_13
REMARK    4  A    between atoms: N_8  and  C_28
REMARK    5  A    between atoms: N_8  and  C_29
REMARK    6  A    between atoms: C_9  and  C_14
REMARK    7  A    between atoms: C_13  and  C_15
REMARK    8  A    between atoms: C_18  and  C_20
REMARK    9  A    between atoms: C_29  and  C_30
REMARK                            x       y       z     vdW  Elec       q    Type
REMARK                         _______ _______ _______ _____ _____    ______ ____
ROOT
ATOM      1  O   UNL     1      -3.442   2.390  22.376  0.00  0.00    -0.336 OA
ATOM      5  N   UNL     1      -2.090   2.324  24.159  0.00  0.00    -0.190 NA
ATOM      6  N   UNL     1      -2.260   1.776  21.944  0.00  0.00    -0.056 NA
ATOM     14  C   UNL     1      -3.259   2.681  23.690  0.00  0.00    +0.245 A 
ATOM     18  C   UNL     1      -1.513   1.773  23.052  0.00  0.00    +0.204 A 
ENDROOT
BRANCH  18  20
ATOM      7  N   UNL     1       2.123   1.458  23.766  0.00  0.00    -0.240 NA
ATOM     20  C   UNL     1      -0.185   1.229  23.086  0.00  0.00    +0.041 A 
ATOM     25  C   UNL     1       0.100  -0.001  22.504  0.00  0.00    +0.016 A 
ATOM     26  C   UNL     1       0.851   1.913  23.699  0.00  0.00    +0.124 A 
ATOM     27  C   UNL     1       1.396  -0.502  22.551  0.00  0.00    +0.044 A 
ATOM     28  C   UNL     1       2.362   0.259  23.189  0.00  0.00    +0.119 A 
BRANCH  28   8
ATOM      8  N   UNL     1       3.678  -0.266  23.230  0.00  0.00    -0.327 N 
ATOM     32  H   UNL     1       3.760  -1.269  23.349  0.00  0.00    +0.148 HD
BRANCH   8  29
ATOM     29  C   UNL     1       4.839   0.554  23.117  0.00  0.00    +0.131 C 
BRANCH  29  30
ATOM     30  C   UNL     1       5.889   0.111  24.121  0.00  0.00    +0.178 C 
BRANCH  30   3
ATOM      3  O   UNL     1       6.670  -0.936  23.558  0.00  0.00    -0.381 OA
ATOM     31  C   UNL     1       7.862  -0.439  22.967  0.00  0.00    +0.194 C 
ENDBRANCH  30   3
ENDBRANCH  29  30
ENDBRANCH   8  29
ENDBRANCH  28   8
ENDBRANCH  18  20
BRANCH  14   9
ATOM      4  N   UNL     1      -4.680   2.780  25.730  0.00  0.00    -0.284 NA
ATOM      9  C   UNL     1      -4.412   3.360  24.399  0.00  0.00    +0.146 C 
ATOM     10  C   UNL     1      -4.148   4.852  24.669  0.00  0.00    +0.030 C 
ATOM     11  C   UNL     1      -4.349   5.028  26.168  0.00  0.00    +0.017 C 
ATOM     12  C   UNL     1      -5.236   3.859  26.547  0.00  0.00    +0.085 C 
BRANCH   4  13
ATOM     13  C   UNL     1      -5.559   1.618  25.683  0.00  0.00    +0.159 C 
BRANCH  13  15
ATOM      2  O   UNL     1      -3.554   0.241  25.690  0.00  0.00    -0.458 OA
ATOM     15  C   UNL     1      -4.828   0.378  25.240  0.00  0.00    +0.120 A 
ATOM     16  C   UNL     1      -5.183  -0.687  24.446  0.00  0.00    +0.054 A 
ATOM     17  C   UNL     1      -4.053  -1.546  24.400  0.00  0.00    +0.020 A 
ATOM     19  C   UNL     1      -3.079  -0.931  25.179  0.00  0.00    +0.135 A 
ATOM     21  C   UNL     1      -3.746  -2.773  23.785  0.00  0.00    +0.011 A 
ATOM     22  C   UNL     1      -1.806  -1.455  25.396  0.00  0.00    +0.047 A 
ATOM     23  C   UNL     1      -2.473  -3.324  23.984  0.00  0.00    +0.001 A 
ATOM     24  C   UNL     1      -1.522  -2.675  24.775  0.00  0.00    +0.004 A 
ENDBRANCH  13  15
ENDBRANCH   4  13
ENDBRANCH  14   9
TORSDOF 8
ENDMDL
