MODEL 1
REMARK VINA RESULT:      -0.1      0.000      0.000
REMARK  Name = 56775892
REMARK  5 active torsions:
REMARK  status: ('A' for Active; 'I' for Inactive)
REMARK    1  A    between atoms: N_6  and  C_16
REMARK    2  A    between atoms: C_11  and  C_14
REMARK    3  A    between atoms: C_16  and  C_18
REMARK    4  A    between atoms: C_17  and  C_20
REMARK    5  A    between atoms: C_24  and  C_27
REMARK                            x       y       z     vdW  Elec       q    Type
REMARK                         _______ _______ _______ _____ _____    ______ ____
ROOT
ATOM      7  N   UNL     1      -2.170   1.671  23.868  0.00  0.00    -0.341 N 
ATOM      8  N   UNL     1      -3.335   2.214  22.057  0.00  0.00    -0.238 NA
ATOM     14  C   UNL     1      -3.376   2.071  23.363  0.00  0.00    +0.127 A 
ATOM     17  C   UNL     1      -1.305   1.549  22.817  0.00  0.00    +0.066 A 
ATOM     19  C   UNL     1      -2.048   1.889  21.710  0.00  0.00    +0.139 A 
ATOM     28  H   UNL     1      -1.967   1.491  24.842  0.00  0.00    +0.167 HD
ENDROOT
BRANCH  14  11
ATOM      5  O   UNL     1      -5.575   3.980  25.746  0.00  0.00    -0.377 OA
ATOM      6  N   UNL     1      -4.735   1.275  25.326  0.00  0.00    -0.283 NA
ATOM     11  C   UNL     1      -4.576   2.306  24.270  0.00  0.00    +0.149 C 
ATOM     12  C   UNL     1      -5.851   1.630  26.220  0.00  0.00    +0.113 C 
ATOM     13  C   UNL     1      -4.451   3.703  24.910  0.00  0.00    +0.186 C 
ATOM     15  C   UNL     1      -5.657   3.024  26.801  0.00  0.00    +0.175 C 
BRANCH   6  16
ATOM     16  C   UNL     1      -4.976  -0.060  24.763  0.00  0.00    +0.143 C 
BRANCH  16  18
ATOM      1  S   UNL     1      -1.966  -2.642  24.483  0.00  0.00    +0.028 S 
ATOM      9  N   UNL     1      -2.684  -0.521  25.606  0.00  0.00    -0.145 NA
ATOM     10  N   UNL     1      -1.669  -1.368  25.529  0.00  0.00    -0.110 NA
ATOM     18  C   UNL     1      -3.736  -0.913  24.794  0.00  0.00    +0.086 A 
ATOM     21  C   UNL     1      -3.534  -2.077  24.080  0.00  0.00    +0.093 A 
ENDBRANCH  16  18
ENDBRANCH   6  16
ENDBRANCH  14  11
BRANCH  17  20
ATOM     20  C   UNL     1       0.068   1.146  22.963  0.00  0.00    -0.000 A 
ATOM     22  C   UNL     1       0.944   1.917  23.727  0.00  0.00    +0.010 A 
ATOM     23  C   UNL     1       0.523  -0.018  22.340  0.00  0.00    +0.010 A 
ATOM     24  C   UNL     1       2.731   0.363  23.246  0.00  0.00    +0.055 A 
ATOM     25  C   UNL     1       2.276   1.525  23.869  0.00  0.00    +0.013 A 
ATOM     26  C   UNL     1       1.855  -0.408  22.482  0.00  0.00    +0.013 A 
BRANCH  24  27
ATOM      2  F   UNL     1       4.891   0.175  22.272  0.00  0.00    -0.166 F 
ATOM      3  F   UNL     1       4.812   0.594  24.403  0.00  0.00    -0.166 F 
ATOM      4  F   UNL     1       4.308  -1.384  23.671  0.00  0.00    -0.166 F 
ATOM     27  C   UNL     1       4.154  -0.054  23.397  0.00  0.00    +0.417 C 
ENDBRANCH  24  27
ENDBRANCH  17  20
TORSDOF 5
ENDMDL
MODEL 2
REMARK VINA RESULT:       0.0      1.444      2.012
REMARK  Name = 56775892
REMARK  5 active torsions:
REMARK  status: ('A' for Active; 'I' for Inactive)
REMARK    1  A    between atoms: N_6  and  C_16
REMARK    2  A    between atoms: C_11  and  C_14
REMARK    3  A    between atoms: C_16  and  C_18
REMARK    4  A    between atoms: C_17  and  C_20
REMARK    5  A    between atoms: C_24  and  C_27
REMARK                            x       y       z     vdW  Elec       q    Type
REMARK                         _______ _______ _______ _____ _____    ______ ____
ROOT
ATOM      7  N   UNL     1      -0.543   1.873  23.972  0.00  0.00    -0.341 N 
ATOM      8  N   UNL     1      -2.122   1.240  22.545  0.00  0.00    -0.238 NA
ATOM     14  C   UNL     1      -1.851   1.989  23.591  0.00  0.00    +0.127 A 
ATOM     17  C   UNL     1       0.058   0.994  23.116  0.00  0.00    +0.066 A 
ATOM     19  C   UNL     1      -0.937   0.617  22.245  0.00  0.00    +0.139 A 
ATOM     28  H   UNL     1      -0.110   2.348  24.754  0.00  0.00    +0.167 HD
ENDROOT
BRANCH  14  11
ATOM      5  O   UNL     1      -2.874   4.850  25.809  0.00  0.00    -0.377 OA
ATOM      6  N   UNL     1      -3.728   2.174  25.256  0.00  0.00    -0.283 NA
ATOM     11  C   UNL     1      -2.816   2.900  24.336  0.00  0.00    +0.149 C 
ATOM     12  C   UNL     1      -4.555   3.130  26.013  0.00  0.00    +0.113 C 
ATOM     13  C   UNL     1      -2.006   3.953  25.117  0.00  0.00    +0.186 C 
ATOM     15  C   UNL     1      -3.681   4.139  26.745  0.00  0.00    +0.175 C 
BRANCH   6  16
ATOM     16  C   UNL     1      -4.607   1.240  24.540  0.00  0.00    +0.143 C 
BRANCH  16  18
ATOM      1  S   UNL     1      -3.639  -2.616  24.498  0.00  0.00    +0.028 S 
ATOM      9  N   UNL     1      -3.614  -0.562  25.933  0.00  0.00    -0.145 NA
ATOM     10  N   UNL     1      -3.284  -1.844  25.942  0.00  0.00    -0.110 NA
ATOM     18  C   UNL     1      -4.172  -0.189  24.721  0.00  0.00    +0.086 A 
ATOM     21  C   UNL     1      -4.276  -1.194  23.780  0.00  0.00    +0.093 A 
ENDBRANCH  16  18
ENDBRANCH   6  16
ENDBRANCH  14  11
BRANCH  17  20
ATOM     20  C   UNL     1       1.445   0.622  23.207  0.00  0.00    -0.000 A 
ATOM     22  C   UNL     1       1.796  -0.702  23.473  0.00  0.00    +0.010 A 
ATOM     23  C   UNL     1       2.439   1.585  23.028  0.00  0.00    +0.010 A 
ATOM     24  C   UNL     1       4.134  -0.100  23.383  0.00  0.00    +0.055 A 
ATOM     25  C   UNL     1       3.141  -1.062  23.561  0.00  0.00    +0.013 A 
ATOM     26  C   UNL     1       3.783   1.224  23.117  0.00  0.00    +0.013 A 
BRANCH  24  27
ATOM      2  F   UNL     1       5.742  -1.785  23.857  0.00  0.00    -0.166 F 
ATOM      3  F   UNL     1       6.252  -0.356  22.301  0.00  0.00    -0.166 F 
ATOM      4  F   UNL     1       6.278   0.256  24.381  0.00  0.00    -0.166 F 
ATOM     27  C   UNL     1       5.571  -0.486  23.477  0.00  0.00    +0.417 C 
ENDBRANCH  24  27
ENDBRANCH  17  20
TORSDOF 5
ENDMDL
