MODEL 1
REMARK VINA RESULT:      -3.4      0.000      0.000
REMARK  Name = 28960552
REMARK  6 active torsions:
REMARK  status: ('A' for Active; 'I' for Inactive)
REMARK    1  A    between atoms: O_3  and  C_11
REMARK    2  A    between atoms: N_6  and  C_10
REMARK    3  A    between atoms: N_7  and  C_12
REMARK    4  A    between atoms: N_9  and  C_23
REMARK    5  A    between atoms: C_20  and  C_21
REMARK    6  A    between atoms: C_23  and  C_24
REMARK                            x       y       z     vdW  Elec       q    Type
REMARK                         _______ _______ _______ _____ _____    ______ ____
ROOT
ATOM      1  O   UNL     1      -2.740  -0.822  23.241  0.00  0.00    -0.342 OA
ATOM      2  O   UNL     1      -4.445  -1.867  24.418  0.00  0.00    -0.347 OA
ATOM     10  C   UNL     1      -3.467   0.150  25.325  0.00  0.00    +0.143 C 
ATOM     11  C   UNL     1      -2.419  -0.681  26.100  0.00  0.00    +0.159 C 
ATOM     12  C   UNL     1      -1.486  -1.503  25.185  0.00  0.00    +0.136 C 
ATOM     13  C   UNL     1      -3.904  -0.588  24.047  0.00  0.00    +0.270 C 
ATOM     14  C   UNL     1      -2.169  -1.967  23.882  0.00  0.00    +0.170 C 
ATOM     15  C   UNL     1      -3.411  -2.811  24.098  0.00  0.00    +0.196 C 
ENDROOT
BRANCH  12   7
ATOM      5  O   UNL     1      -0.038  -1.491  22.690  0.00  0.00    -0.253 OA
ATOM      7  N   UNL     1      -0.298  -0.740  24.871  0.00  0.00    -0.291 N 
ATOM      9  N   UNL     1       1.454   0.035  23.604  0.00  0.00    -0.296 N 
ATOM     22  C   UNL     1       0.336  -0.797  23.635  0.00  0.00    +0.300 C 
ATOM     26  H   UNL     1       0.136  -0.196  25.611  0.00  0.00    +0.151 HD
ATOM     30  H   UNL     1       1.673   0.587  24.427  0.00  0.00    +0.151 HD
BRANCH   9  23
ATOM     23  C   UNL     1       2.297   0.168  22.440  0.00  0.00    +0.132 C 
BRANCH  23  24
ATOM     24  C   UNL     1       3.527   0.928  22.812  0.00  0.00    -0.016 C 
ATOM     25  C   UNL     1       4.681   0.352  23.163  0.00  0.00    +0.005 C 
ENDBRANCH  23  24
ENDBRANCH   9  23
ENDBRANCH  12   7
BRANCH  10   6
ATOM      6  N   UNL     1      -2.913   1.460  24.977  0.00  0.00    -0.293 NA
ATOM     16  C   UNL     1      -3.902   2.517  25.227  0.00  0.00    +0.085 C 
ATOM     17  C   UNL     1      -1.672   1.708  25.723  0.00  0.00    +0.085 C 
ATOM     18  C   UNL     1      -3.359   3.887  24.815  0.00  0.00    +0.028 C 
ATOM     19  C   UNL     1      -1.051   3.050  25.330  0.00  0.00    +0.028 C 
ATOM     20  C   UNL     1      -2.042   4.196  25.525  0.00  0.00    +0.077 C 
BRANCH  20  21
ATOM      4  O   UNL     1      -2.052   6.537  25.048  0.00  0.00    -0.276 OA
ATOM      8  N   UNL     1      -0.208   5.306  24.431  0.00  0.00    -0.329 N 
ATOM     21  C   UNL     1      -1.453   5.466  24.993  0.00  0.00    +0.214 C 
ATOM     28  H   UNL     1       0.260   4.407  24.386  0.00  0.00    +0.145 HD
ATOM     29  H   UNL     1       0.288   6.097  24.032  0.00  0.00    +0.145 HD
ENDBRANCH  20  21
ENDBRANCH  10   6
BRANCH  11   3
ATOM      3  O   UNL     1      -3.127  -1.581  26.964  0.00  0.00    -0.388 OA
ATOM     27  H   UNL     1      -3.104  -1.208  27.861  0.00  0.00    +0.210 HD
ENDBRANCH  11   3
TORSDOF 6
ENDMDL
MODEL 2
REMARK VINA RESULT:      -2.9      2.037      5.242
REMARK  Name = 28960552
REMARK  6 active torsions:
REMARK  status: ('A' for Active; 'I' for Inactive)
REMARK    1  A    between atoms: O_3  and  C_11
REMARK    2  A    between atoms: N_6  and  C_10
REMARK    3  A    between atoms: N_7  and  C_12
REMARK    4  A    between atoms: N_9  and  C_23
REMARK    5  A    between atoms: C_20  and  C_21
REMARK    6  A    between atoms: C_23  and  C_24
REMARK                            x       y       z     vdW  Elec       q    Type
REMARK                         _______ _______ _______ _____ _____    ______ ____
ROOT
ATOM      1  O   UNL     1      -1.606   2.841  26.021  0.00  0.00    -0.342 OA
ATOM      2  O   UNL     1      -2.867   4.788  26.027  0.00  0.00    -0.347 OA
ATOM     10  C   UNL     1      -3.822   2.782  25.072  0.00  0.00    +0.143 C 
ATOM     11  C   UNL     1      -3.257   3.149  23.681  0.00  0.00    +0.159 C 
ATOM     12  C   UNL     1      -1.715   3.219  23.642  0.00  0.00    +0.136 C 
ATOM     13  C   UNL     1      -2.932   3.361  26.187  0.00  0.00    +0.270 C 
ATOM     14  C   UNL     1      -1.094   3.676  24.978  0.00  0.00    +0.170 C 
ATOM     15  C   UNL     1      -1.574   5.035  25.453  0.00  0.00    +0.196 C 
ENDROOT
BRANCH  12   7
ATOM      5  O   UNL     1       0.918   2.204  24.246  0.00  0.00    -0.253 OA
ATOM      7  N   UNL     1      -1.167   1.935  23.261  0.00  0.00    -0.291 N 
ATOM      9  N   UNL     1       0.387   0.252  23.106  0.00  0.00    -0.296 N 
ATOM     22  C   UNL     1       0.118   1.528  23.598  0.00  0.00    +0.300 C 
ATOM     26  H   UNL     1      -1.720   1.335  22.656  0.00  0.00    +0.151 HD
ATOM     30  H   UNL     1      -0.343  -0.239  22.600  0.00  0.00    +0.151 HD
BRANCH   9  23
ATOM     23  C   UNL     1       1.652  -0.414  23.312  0.00  0.00    +0.132 C 
BRANCH  23  24
ATOM     24  C   UNL     1       2.646   0.113  22.332  0.00  0.00    -0.016 C 
ATOM     25  C   UNL     1       3.753   0.779  22.679  0.00  0.00    +0.005 C 
ENDBRANCH  23  24
ENDBRANCH   9  23
ENDBRANCH  12   7
BRANCH  10   6
ATOM      6  N   UNL     1      -3.909   1.327  25.212  0.00  0.00    -0.293 NA
ATOM     16  C   UNL     1      -4.365   0.718  23.955  0.00  0.00    +0.085 C 
ATOM     17  C   UNL     1      -2.615   0.772  25.630  0.00  0.00    +0.085 C 
ATOM     18  C   UNL     1      -4.516  -0.798  24.100  0.00  0.00    +0.028 C 
ATOM     19  C   UNL     1      -2.703  -0.741  25.834  0.00  0.00    +0.028 C 
ATOM     20  C   UNL     1      -3.213  -1.440  24.575  0.00  0.00    +0.077 C 
BRANCH  20  21
ATOM      4  O   UNL     1      -3.133  -3.399  25.940  0.00  0.00    -0.276 OA
ATOM      8  N   UNL     1      -3.954  -3.594  23.800  0.00  0.00    -0.329 N 
ATOM     21  C   UNL     1      -3.426  -2.895  24.859  0.00  0.00    +0.214 C 
ATOM     28  H   UNL     1      -4.175  -3.156  22.911  0.00  0.00    +0.145 HD
ATOM     29  H   UNL     1      -4.137  -4.590  23.873  0.00  0.00    +0.145 HD
ENDBRANCH  20  21
ENDBRANCH  10   6
BRANCH  11   3
ATOM      3  O   UNL     1      -3.785   4.433  23.319  0.00  0.00    -0.388 OA
ATOM     27  H   UNL     1      -4.307   4.318  22.507  0.00  0.00    +0.210 HD
ENDBRANCH  11   3
TORSDOF 6
ENDMDL
MODEL 3
REMARK VINA RESULT:      -2.0      2.564      6.769
REMARK  Name = 28960552
REMARK  6 active torsions:
REMARK  status: ('A' for Active; 'I' for Inactive)
REMARK    1  A    between atoms: O_3  and  C_11
REMARK    2  A    between atoms: N_6  and  C_10
REMARK    3  A    between atoms: N_7  and  C_12
REMARK    4  A    between atoms: N_9  and  C_23
REMARK    5  A    between atoms: C_20  and  C_21
REMARK    6  A    between atoms: C_23  and  C_24
REMARK                            x       y       z     vdW  Elec       q    Type
REMARK                         _______ _______ _______ _____ _____    ______ ____
ROOT
ATOM      1  O   UNL     1      -1.490   2.916  23.759  0.00  0.00    -0.342 OA
ATOM      2  O   UNL     1       0.806   3.243  23.832  0.00  0.00    -0.347 OA
ATOM     10  C   UNL     1      -0.162   1.465  25.156  0.00  0.00    +0.143 C 
ATOM     11  C   UNL     1      -0.339   2.424  26.354  0.00  0.00    +0.159 C 
ATOM     12  C   UNL     1      -1.287   3.608  26.060  0.00  0.00    +0.136 C 
ATOM     13  C   UNL     1      -0.226   2.241  23.828  0.00  0.00    +0.270 C 
ATOM     14  C   UNL     1      -1.254   4.060  24.586  0.00  0.00    +0.170 C 
ATOM     15  C   UNL     1       0.119   4.477  24.095  0.00  0.00    +0.196 C 
ENDROOT
BRANCH  12   7
ATOM      5  O   UNL     1      -3.695   4.132  24.560  0.00  0.00    -0.253 OA
ATOM      7  N   UNL     1      -2.641   3.268  26.439  0.00  0.00    -0.291 N 
ATOM      9  N   UNL     1      -4.925   3.124  26.250  0.00  0.00    -0.296 N 
ATOM     22  C   UNL     1      -3.747   3.561  25.649  0.00  0.00    +0.300 C 
ATOM     26  H   UNL     1      -2.799   2.865  27.358  0.00  0.00    +0.151 HD
ATOM     30  H   UNL     1      -4.868   2.643  27.142  0.00  0.00    +0.151 HD
BRANCH   9  23
ATOM     23  C   UNL     1      -6.224   3.301  25.644  0.00  0.00    +0.132 C 
BRANCH  23  24
ATOM     24  C   UNL     1      -6.611   2.042  24.942  0.00  0.00    -0.016 C 
ATOM     25  C   UNL     1      -5.881   0.922  24.965  0.00  0.00    +0.005 C 
ENDBRANCH  23  24
ENDBRANCH   9  23
ENDBRANCH  12   7
BRANCH  10   6
ATOM      6  N   UNL     1      -1.203   0.434  25.178  0.00  0.00    -0.293 NA
ATOM     16  C   UNL     1      -2.108   0.595  24.032  0.00  0.00    +0.085 C 
ATOM     17  C   UNL     1      -0.599  -0.905  25.193  0.00  0.00    +0.085 C 
ATOM     18  C   UNL     1      -3.234  -0.440  24.070  0.00  0.00    +0.028 C 
ATOM     19  C   UNL     1      -1.672  -1.992  25.271  0.00  0.00    +0.028 C 
ATOM     20  C   UNL     1      -2.677  -1.861  24.129  0.00  0.00    +0.077 C 
BRANCH  20  21
ATOM      4  O   UNL     1      -3.698  -3.788  25.104  0.00  0.00    -0.276 OA
ATOM      8  N   UNL     1      -4.890  -2.599  23.537  0.00  0.00    -0.329 N 
ATOM     21  C   UNL     1      -3.790  -2.845  24.323  0.00  0.00    +0.214 C 
ATOM     28  H   UNL     1      -4.935  -1.820  22.888  0.00  0.00    +0.145 HD
ATOM     29  H   UNL     1      -5.705  -3.203  23.578  0.00  0.00    +0.145 HD
ENDBRANCH  20  21
ENDBRANCH  10   6
BRANCH  11   3
ATOM      3  O   UNL     1       0.954   2.943  26.694  0.00  0.00    -0.388 OA
ATOM     27  H   UNL     1       1.258   2.477  27.491  0.00  0.00    +0.210 HD
ENDBRANCH  11   3
TORSDOF 6
ENDMDL
MODEL 4
REMARK VINA RESULT:      -2.0      2.160      5.397
REMARK  Name = 28960552
REMARK  6 active torsions:
REMARK  status: ('A' for Active; 'I' for Inactive)
REMARK    1  A    between atoms: O_3  and  C_11
REMARK    2  A    between atoms: N_6  and  C_10
REMARK    3  A    between atoms: N_7  and  C_12
REMARK    4  A    between atoms: N_9  and  C_23
REMARK    5  A    between atoms: C_20  and  C_21
REMARK    6  A    between atoms: C_23  and  C_24
REMARK                            x       y       z     vdW  Elec       q    Type
REMARK                         _______ _______ _______ _____ _____    ______ ____
ROOT
ATOM      1  O   UNL     1      -4.279   2.861  26.579  0.00  0.00    -0.342 OA
ATOM      2  O   UNL     1      -5.627   4.512  25.662  0.00  0.00    -0.347 OA
ATOM     10  C   UNL     1      -4.811   2.743  24.230  0.00  0.00    +0.143 C 
ATOM     11  C   UNL     1      -3.555   3.573  23.883  0.00  0.00    +0.159 C 
ATOM     12  C   UNL     1      -2.665   3.883  25.107  0.00  0.00    +0.136 C 
ATOM     13  C   UNL     1      -5.329   3.106  25.633  0.00  0.00    +0.270 C 
ATOM     14  C   UNL     1      -3.465   4.027  26.418  0.00  0.00    +0.170 C 
ATOM     15  C   UNL     1      -4.532   5.105  26.379  0.00  0.00    +0.196 C 
ENDROOT
BRANCH  12   7
ATOM      5  O   UNL     1      -0.450   3.348  23.337  0.00  0.00    -0.253 OA
ATOM      7  N   UNL     1      -1.654   2.859  25.260  0.00  0.00    -0.291 N 
ATOM      9  N   UNL     1       0.209   1.621  24.741  0.00  0.00    -0.296 N 
ATOM     22  C   UNL     1      -0.618   2.673  24.353  0.00  0.00    +0.300 C 
ATOM     26  H   UNL     1      -1.750   2.197  26.025  0.00  0.00    +0.151 HD
ATOM     30  H   UNL     1       0.004   1.135  25.608  0.00  0.00    +0.151 HD
BRANCH   9  23
ATOM     23  C   UNL     1       1.365   1.212  23.978  0.00  0.00    +0.132 C 
BRANCH  23  24
ATOM     24  C   UNL     1       0.982   0.084  23.079  0.00  0.00    -0.016 C 
ATOM     25  C   UNL     1       1.686  -0.285  22.005  0.00  0.00    +0.005 C 
ENDBRANCH  23  24
ENDBRANCH   9  23
ENDBRANCH  12   7
BRANCH  10   6
ATOM      6  N   UNL     1      -4.502   1.312  24.170  0.00  0.00    -0.293 NA
ATOM     16  C   UNL     1      -3.295   1.083  23.364  0.00  0.00    +0.085 C 
ATOM     17  C   UNL     1      -4.349   0.762  25.523  0.00  0.00    +0.085 C 
ATOM     18  C   UNL     1      -2.989  -0.412  23.244  0.00  0.00    +0.028 C 
ATOM     19  C   UNL     1      -4.078  -0.743  25.479  0.00  0.00    +0.028 C 
ATOM     20  C   UNL     1      -2.856  -1.061  24.621  0.00  0.00    +0.077 C 
BRANCH  20  21
ATOM      4  O   UNL     1      -3.673  -3.306  24.578  0.00  0.00    -0.276 OA
ATOM      8  N   UNL     1      -1.421  -2.958  24.258  0.00  0.00    -0.329 N 
ATOM     21  C   UNL     1      -2.713  -2.545  24.481  0.00  0.00    +0.214 C 
ATOM     28  H   UNL     1      -0.643  -2.310  24.195  0.00  0.00    +0.145 HD
ATOM     29  H   UNL     1      -1.200  -3.943  24.152  0.00  0.00    +0.145 HD
ENDBRANCH  20  21
ENDBRANCH  10   6
BRANCH  11   3
ATOM      3  O   UNL     1      -3.993   4.811  23.308  0.00  0.00    -0.388 OA
ATOM     27  H   UNL     1      -4.486   4.601  22.497  0.00  0.00    +0.210 HD
ENDBRANCH  11   3
TORSDOF 6
ENDMDL
MODEL 5
REMARK VINA RESULT:      -1.8      2.072      5.222
REMARK  Name = 28960552
REMARK  6 active torsions:
REMARK  status: ('A' for Active; 'I' for Inactive)
REMARK    1  A    between atoms: O_3  and  C_11
REMARK    2  A    between atoms: N_6  and  C_10
REMARK    3  A    between atoms: N_7  and  C_12
REMARK    4  A    between atoms: N_9  and  C_23
REMARK    5  A    between atoms: C_20  and  C_21
REMARK    6  A    between atoms: C_23  and  C_24
REMARK                            x       y       z     vdW  Elec       q    Type
REMARK                         _______ _______ _______ _____ _____    ______ ____
ROOT
ATOM      1  O   UNL     1      -4.327   3.503  23.556  0.00  0.00    -0.342 OA
ATOM      2  O   UNL     1      -4.613   4.946  25.351  0.00  0.00    -0.347 OA
ATOM     10  C   UNL     1      -2.825   3.319  25.434  0.00  0.00    +0.143 C 
ATOM     11  C   UNL     1      -3.762   2.291  26.108  0.00  0.00    +0.159 C 
ATOM     12  C   UNL     1      -4.967   1.890  25.230  0.00  0.00    +0.136 C 
ATOM     13  C   UNL     1      -3.630   4.280  24.540  0.00  0.00    +0.270 C 
ATOM     14  C   UNL     1      -5.449   3.026  24.305  0.00  0.00    +0.170 C 
ATOM     15  C   UNL     1      -5.853   4.293  25.035  0.00  0.00    +0.196 C 
ENDROOT
BRANCH  12   7
ATOM      5  O   UNL     1      -4.081  -0.675  26.210  0.00  0.00    -0.253 OA
ATOM      7  N   UNL     1      -4.643   0.720  24.442  0.00  0.00    -0.291 N 
ATOM      9  N   UNL     1      -3.978  -1.436  24.019  0.00  0.00    -0.296 N 
ATOM     22  C   UNL     1      -4.222  -0.480  25.003  0.00  0.00    +0.300 C 
ATOM     26  H   UNL     1      -4.650   0.804  23.430  0.00  0.00    +0.151 HD
ATOM     30  H   UNL     1      -4.142  -1.190  23.048  0.00  0.00    +0.151 HD
BRANCH   9  23
ATOM     23  C   UNL     1      -3.529  -2.774  24.325  0.00  0.00    +0.132 C 
BRANCH  23  24
ATOM     24  C   UNL     1      -2.041  -2.826  24.220  0.00  0.00    -0.016 C 
ATOM     25  C   UNL     1      -1.211  -2.450  25.200  0.00  0.00    +0.005 C 
ENDBRANCH  23  24
ENDBRANCH   9  23
ENDBRANCH  12   7
BRANCH  10   6
ATOM      6  N   UNL     1      -1.812   2.628  24.633  0.00  0.00    -0.293 NA
ATOM     16  C   UNL     1      -0.644   3.495  24.426  0.00  0.00    +0.085 C 
ATOM     17  C   UNL     1      -1.426   1.363  25.272  0.00  0.00    +0.085 C 
ATOM     18  C   UNL     1       0.401   2.809  23.544  0.00  0.00    +0.028 C 
ATOM     19  C   UNL     1      -0.408   0.603  24.421  0.00  0.00    +0.028 C 
ATOM     20  C   UNL     1       0.821   1.462  24.129  0.00  0.00    +0.077 C 
BRANCH  20  21
ATOM      4  O   UNL     1       1.338  -0.219  22.512  0.00  0.00    -0.276 OA
ATOM      8  N   UNL     1       3.002   1.242  23.137  0.00  0.00    -0.329 N 
ATOM     21  C   UNL     1       1.722   0.741  23.175  0.00  0.00    +0.214 C 
ATOM     28  H   UNL     1       3.298   2.028  23.706  0.00  0.00    +0.145 HD
ATOM     29  H   UNL     1       3.704   0.830  22.530  0.00  0.00    +0.145 HD
ENDBRANCH  20  21
ENDBRANCH  10   6
BRANCH  11   3
ATOM      3  O   UNL     1      -4.251   2.875  27.323  0.00  0.00    -0.388 OA
ATOM     27  H   UNL     1      -3.628   2.647  28.032  0.00  0.00    +0.210 HD
ENDBRANCH  11   3
TORSDOF 6
ENDMDL
MODEL 6
REMARK VINA RESULT:      -1.1      2.498      3.405
REMARK  Name = 28960552
REMARK  6 active torsions:
REMARK  status: ('A' for Active; 'I' for Inactive)
REMARK    1  A    between atoms: O_3  and  C_11
REMARK    2  A    between atoms: N_6  and  C_10
REMARK    3  A    between atoms: N_7  and  C_12
REMARK    4  A    between atoms: N_9  and  C_23
REMARK    5  A    between atoms: C_20  and  C_21
REMARK    6  A    between atoms: C_23  and  C_24
REMARK                            x       y       z     vdW  Elec       q    Type
REMARK                         _______ _______ _______ _____ _____    ______ ____
ROOT
ATOM      1  O   UNL     1      -1.998  -0.709  23.550  0.00  0.00    -0.342 OA
ATOM      2  O   UNL     1      -2.679  -2.925  23.650  0.00  0.00    -0.347 OA
ATOM     10  C   UNL     1      -4.033  -1.238  24.732  0.00  0.00    +0.143 C 
ATOM     11  C   UNL     1      -3.244  -1.419  26.048  0.00  0.00    +0.159 C 
ATOM     12  C   UNL     1      -1.746  -1.068  25.921  0.00  0.00    +0.136 C 
ATOM     13  C   UNL     1      -3.144  -1.571  23.520  0.00  0.00    +0.270 C 
ATOM     14  C   UNL     1      -1.171  -1.360  24.520  0.00  0.00    +0.170 C 
ATOM     15  C   UNL     1      -1.313  -2.804  24.079  0.00  0.00    +0.196 C 
ENDROOT
BRANCH  12   7
ATOM      5  O   UNL     1       0.015   0.791  24.592  0.00  0.00    -0.253 OA
ATOM      7  N   UNL     1      -1.529   0.322  26.261  0.00  0.00    -0.291 N 
ATOM      9  N   UNL     1      -0.639   2.432  26.097  0.00  0.00    -0.296 N 
ATOM     22  C   UNL     1      -0.656   1.147  25.560  0.00  0.00    +0.300 C 
ATOM     26  H   UNL     1      -1.977   0.690  27.094  0.00  0.00    +0.151 HD
ATOM     30  H   UNL     1      -1.244   2.639  26.886  0.00  0.00    +0.151 HD
BRANCH   9  23
ATOM     23  C   UNL     1       0.182   3.492  25.562  0.00  0.00    +0.132 C 
BRANCH  23  24
ATOM     24  C   UNL     1      -0.653   4.356  24.675  0.00  0.00    -0.016 C 
ATOM     25  C   UNL     1      -1.454   5.328  25.122  0.00  0.00    +0.005 C 
ENDBRANCH  23  24
ENDBRANCH   9  23
ENDBRANCH  12   7
BRANCH  10   6
ATOM      6  N   UNL     1      -4.525   0.137  24.624  0.00  0.00    -0.293 NA
ATOM     16  C   UNL     1      -4.937   0.638  25.943  0.00  0.00    +0.085 C 
ATOM     17  C   UNL     1      -3.502   1.003  24.023  0.00  0.00    +0.085 C 
ATOM     18  C   UNL     1      -5.506   2.055  25.839  0.00  0.00    +0.028 C 
ATOM     19  C   UNL     1      -4.021   2.432  23.853  0.00  0.00    +0.028 C 
ATOM     20  C   UNL     1      -4.507   3.006  25.183  0.00  0.00    +0.077 C 
BRANCH  20  21
ATOM      4  O   UNL     1      -4.689   5.148  24.140  0.00  0.00    -0.276 OA
ATOM      8  N   UNL     1      -6.242   4.578  25.739  0.00  0.00    -0.329 N 
ATOM     21  C   UNL     1      -5.140   4.343  24.952  0.00  0.00    +0.214 C 
ATOM     28  H   UNL     1      -6.587   3.901  26.412  0.00  0.00    +0.145 HD
ATOM     29  H   UNL     1      -6.752   5.453  25.674  0.00  0.00    +0.145 HD
ENDBRANCH  20  21
ENDBRANCH  10   6
BRANCH  11   3
ATOM      3  O   UNL     1      -3.364  -2.792  26.446  0.00  0.00    -0.388 OA
ATOM     27  H   UNL     1      -2.998  -3.339  25.730  0.00  0.00    +0.210 HD
ENDBRANCH  11   3
TORSDOF 6
ENDMDL
MODEL 7
REMARK VINA RESULT:      -1.0      2.889      5.655
REMARK  Name = 28960552
REMARK  6 active torsions:
REMARK  status: ('A' for Active; 'I' for Inactive)
REMARK    1  A    between atoms: O_3  and  C_11
REMARK    2  A    between atoms: N_6  and  C_10
REMARK    3  A    between atoms: N_7  and  C_12
REMARK    4  A    between atoms: N_9  and  C_23
REMARK    5  A    between atoms: C_20  and  C_21
REMARK    6  A    between atoms: C_23  and  C_24
REMARK                            x       y       z     vdW  Elec       q    Type
REMARK                         _______ _______ _______ _____ _____    ______ ____
ROOT
ATOM      1  O   UNL     1      -5.116   2.072  26.010  0.00  0.00    -0.342 OA
ATOM      2  O   UNL     1      -6.264   3.415  24.505  0.00  0.00    -0.347 OA
ATOM     10  C   UNL     1      -4.274   2.261  23.757  0.00  0.00    +0.143 C 
ATOM     11  C   UNL     1      -3.396   3.465  24.166  0.00  0.00    +0.159 C 
ATOM     12  C   UNL     1      -3.440   3.774  25.678  0.00  0.00    +0.136 C 
ATOM     13  C   UNL     1      -5.532   2.184  24.642  0.00  0.00    +0.270 C 
ATOM     14  C   UNL     1      -4.796   3.430  26.328  0.00  0.00    +0.170 C 
ATOM     15  C   UNL     1      -5.981   4.145  25.709  0.00  0.00    +0.196 C 
ENDROOT
BRANCH  12   7
ATOM      5  O   UNL     1      -0.603   4.204  25.383  0.00  0.00    -0.253 OA
ATOM      7  N   UNL     1      -2.376   3.071  26.362  0.00  0.00    -0.291 N 
ATOM      9  N   UNL     1      -0.222   2.525  26.940  0.00  0.00    -0.296 N 
ATOM     22  C   UNL     1      -1.029   3.347  26.156  0.00  0.00    +0.300 C 
ATOM     26  H   UNL     1      -2.622   2.290  26.962  0.00  0.00    +0.151 HD
ATOM     30  H   UNL     1      -0.665   1.860  27.565  0.00  0.00    +0.151 HD
BRANCH   9  23
ATOM     23  C   UNL     1       1.220   2.600  26.922  0.00  0.00    +0.132 C 
BRANCH  23  24
ATOM     24  C   UNL     1       1.705   2.983  28.280  0.00  0.00    -0.016 C 
ATOM     25  C   UNL     1       1.393   2.319  29.398  0.00  0.00    +0.005 C 
ENDBRANCH  23  24
ENDBRANCH   9  23
ENDBRANCH  12   7
BRANCH  10   6
ATOM      6  N   UNL     1      -3.509   1.017  23.874  0.00  0.00    -0.293 NA
ATOM     16  C   UNL     1      -2.068   1.303  23.896  0.00  0.00    +0.085 C 
ATOM     17  C   UNL     1      -3.920   0.271  25.071  0.00  0.00    +0.085 C 
ATOM     18  C   UNL     1      -1.252   0.010  23.962  0.00  0.00    +0.028 C 
ATOM     19  C   UNL     1      -3.168  -1.057  25.179  0.00  0.00    +0.028 C 
ATOM     20  C   UNL     1      -1.657  -0.840  25.165  0.00  0.00    +0.077 C 
BRANCH  20  21
ATOM      4  O   UNL     1       0.127  -2.347  25.666  0.00  0.00    -0.276 OA
ATOM      8  N   UNL     1      -1.637  -3.124  24.410  0.00  0.00    -0.329 N 
ATOM     21  C   UNL     1      -0.959  -2.164  25.122  0.00  0.00    +0.214 C 
ATOM     28  H   UNL     1      -2.528  -2.942  23.958  0.00  0.00    +0.145 HD
ATOM     29  H   UNL     1      -1.259  -4.060  24.307  0.00  0.00    +0.145 HD
ENDBRANCH  20  21
ENDBRANCH  10   6
BRANCH  11   3
ATOM      3  O   UNL     1      -3.867   4.614  23.447  0.00  0.00    -0.388 OA
ATOM     27  H   UNL     1      -4.838   4.585  23.449  0.00  0.00    +0.210 HD
ENDBRANCH  11   3
TORSDOF 6
ENDMDL
MODEL 8
REMARK VINA RESULT:      -1.0      2.819      5.413
REMARK  Name = 28960552
REMARK  6 active torsions:
REMARK  status: ('A' for Active; 'I' for Inactive)
REMARK    1  A    between atoms: O_3  and  C_11
REMARK    2  A    between atoms: N_6  and  C_10
REMARK    3  A    between atoms: N_7  and  C_12
REMARK    4  A    between atoms: N_9  and  C_23
REMARK    5  A    between atoms: C_20  and  C_21
REMARK    6  A    between atoms: C_23  and  C_24
REMARK                            x       y       z     vdW  Elec       q    Type
REMARK                         _______ _______ _______ _____ _____    ______ ____
ROOT
ATOM      1  O   UNL     1      -2.025  -0.761  24.873  0.00  0.00    -0.342 OA
ATOM      2  O   UNL     1      -3.519  -0.049  23.246  0.00  0.00    -0.347 OA
ATOM     10  C   UNL     1      -1.255   0.799  23.202  0.00  0.00    +0.143 C 
ATOM     11  C   UNL     1      -1.661   1.990  24.099  0.00  0.00    +0.159 C 
ATOM     12  C   UNL     1      -2.170   1.565  25.493  0.00  0.00    +0.136 C 
ATOM     13  C   UNL     1      -2.151  -0.421  23.485  0.00  0.00    +0.270 C 
ATOM     14  C   UNL     1      -2.889   0.201  25.487  0.00  0.00    +0.170 C 
ATOM     15  C   UNL     1      -4.084   0.133  24.555  0.00  0.00    +0.196 C 
ENDROOT
BRANCH  12   7
ATOM      5  O   UNL     1      -0.158   3.597  25.882  0.00  0.00    -0.253 OA
ATOM      7  N   UNL     1      -1.073   1.537  26.437  0.00  0.00    -0.291 N 
ATOM      9  N   UNL     1       0.800   2.281  27.538  0.00  0.00    -0.296 N 
ATOM     22  C   UNL     1      -0.147   2.566  26.556  0.00  0.00    +0.300 C 
ATOM     26  H   UNL     1      -0.930   0.693  26.984  0.00  0.00    +0.151 HD
ATOM     30  H   UNL     1       0.716   1.413  28.057  0.00  0.00    +0.151 HD
BRANCH   9  23
ATOM     23  C   UNL     1       1.879   3.181  27.868  0.00  0.00    +0.132 C 
BRANCH  23  24
ATOM     24  C   UNL     1       2.515   2.733  29.142  0.00  0.00    -0.016 C 
ATOM     25  C   UNL     1       1.877   2.038  30.090  0.00  0.00    +0.005 C 
ENDBRANCH  23  24
ENDBRANCH   9  23
ENDBRANCH  12   7
BRANCH  10   6
ATOM      6  N   UNL     1       0.148   0.448  23.435  0.00  0.00    -0.293 NA
ATOM     16  C   UNL     1       0.626  -0.472  22.393  0.00  0.00    +0.085 C 
ATOM     17  C   UNL     1       0.978   1.659  23.494  0.00  0.00    +0.085 C 
ATOM     18  C   UNL     1       2.074  -0.892  22.652  0.00  0.00    +0.028 C 
ATOM     19  C   UNL     1       2.438   1.313  23.791  0.00  0.00    +0.028 C 
ATOM     20  C   UNL     1       2.991   0.324  22.767  0.00  0.00    +0.077 C 
BRANCH  20  21
ATOM      4  O   UNL     1       5.363   0.568  22.912  0.00  0.00    -0.276 OA
ATOM      8  N   UNL     1       4.402  -1.306  23.837  0.00  0.00    -0.329 N 
ATOM     21  C   UNL     1       4.368  -0.103  23.174  0.00  0.00    +0.214 C 
ATOM     28  H   UNL     1       3.565  -1.848  24.029  0.00  0.00    +0.145 HD
ATOM     29  H   UNL     1       5.281  -1.700  24.157  0.00  0.00    +0.145 HD
ENDBRANCH  20  21
ENDBRANCH  10   6
BRANCH  11   3
ATOM      3  O   UNL     1      -2.704   2.708  23.426  0.00  0.00    -0.388 OA
ATOM     27  H   UNL     1      -2.737   3.603  23.805  0.00  0.00    +0.210 HD
ENDBRANCH  11   3
TORSDOF 6
ENDMDL
MODEL 9
REMARK VINA RESULT:      -0.1      2.261      5.100
REMARK  Name = 28960552
REMARK  6 active torsions:
REMARK  status: ('A' for Active; 'I' for Inactive)
REMARK    1  A    between atoms: O_3  and  C_11
REMARK    2  A    between atoms: N_6  and  C_10
REMARK    3  A    between atoms: N_7  and  C_12
REMARK    4  A    between atoms: N_9  and  C_23
REMARK    5  A    between atoms: C_20  and  C_21
REMARK    6  A    between atoms: C_23  and  C_24
REMARK                            x       y       z     vdW  Elec       q    Type
REMARK                         _______ _______ _______ _____ _____    ______ ____
ROOT
ATOM      1  O   UNL     1      -0.603   0.924  22.981  0.00  0.00    -0.342 OA
ATOM      2  O   UNL     1       0.618  -1.021  22.647  0.00  0.00    -0.347 OA
ATOM     10  C   UNL     1      -1.338  -1.101  24.067  0.00  0.00    +0.143 C 
ATOM     11  C   UNL     1      -0.478  -0.771  25.308  0.00  0.00    +0.159 C 
ATOM     12  C   UNL     1       0.214   0.607  25.228  0.00  0.00    +0.136 C 
ATOM     13  C   UNL     1      -0.711  -0.495  22.798  0.00  0.00    +0.270 C 
ATOM     14  C   UNL     1       0.575   1.023  23.788  0.00  0.00    +0.170 C 
ATOM     15  C   UNL     1       1.485   0.044  23.069  0.00  0.00    +0.196 C 
ENDROOT
BRANCH  12   7
ATOM      5  O   UNL     1      -0.330   3.251  24.209  0.00  0.00    -0.253 OA
ATOM      7  N   UNL     1      -0.622   1.620  25.835  0.00  0.00    -0.291 N 
ATOM      9  N   UNL     1      -1.674   3.649  26.060  0.00  0.00    -0.296 N 
ATOM     22  C   UNL     1      -0.829   2.873  25.270  0.00  0.00    +0.300 C 
ATOM     26  H   UNL     1      -1.016   1.435  26.753  0.00  0.00    +0.151 HD
ATOM     30  H   UNL     1      -2.054   3.244  26.910  0.00  0.00    +0.151 HD
BRANCH   9  23
ATOM     23  C   UNL     1      -2.056   4.996  25.707  0.00  0.00    +0.132 C 
BRANCH  23  24
ATOM     24  C   UNL     1      -3.278   4.949  24.851  0.00  0.00    -0.016 C 
ATOM     25  C   UNL     1      -4.482   4.569  25.291  0.00  0.00    +0.005 C 
ENDBRANCH  23  24
ENDBRANCH   9  23
ENDBRANCH  12   7
BRANCH  10   6
ATOM      6  N   UNL     1      -2.697  -0.584  24.245  0.00  0.00    -0.293 NA
ATOM     16  C   UNL     1      -3.092  -0.656  25.658  0.00  0.00    +0.085 C 
ATOM     17  C   UNL     1      -2.795   0.791  23.736  0.00  0.00    +0.085 C 
ATOM     18  C   UNL     1      -4.530  -0.172  25.854  0.00  0.00    +0.028 C 
ATOM     19  C   UNL     1      -4.222   1.327  23.865  0.00  0.00    +0.028 C 
ATOM     20  C   UNL     1      -4.716   1.243  25.308  0.00  0.00    +0.077 C 
BRANCH  20  21
ATOM      4  O   UNL     1      -6.878   1.635  24.371  0.00  0.00    -0.276 OA
ATOM      8  N   UNL     1      -6.582   2.006  26.622  0.00  0.00    -0.329 N 
ATOM     21  C   UNL     1      -6.160   1.635  25.368  0.00  0.00    +0.214 C 
ATOM     28  H   UNL     1      -5.964   2.010  27.428  0.00  0.00    +0.145 HD
ATOM     29  H   UNL     1      -7.540   2.297  26.785  0.00  0.00    +0.145 HD
ENDBRANCH  20  21
ENDBRANCH  10   6
BRANCH  11   3
ATOM      3  O   UNL     1       0.529  -1.785  25.424  0.00  0.00    -0.388 OA
ATOM     27  H   UNL     1       0.127  -2.631  25.166  0.00  0.00    +0.210 HD
ENDBRANCH  11   3
TORSDOF 6
ENDMDL
