MODEL 1
REMARK VINA RESULT:      -5.4      0.000      0.000
REMARK  Name = 86769017
REMARK  5 active torsions:
REMARK  status: ('A' for Active; 'I' for Inactive)
REMARK    1  A    between atoms: O_3  and  C_24
REMARK    2  A    between atoms: O_3  and  C_25
REMARK    3  A    between atoms: N_4  and  C_9
REMARK    4  A    between atoms: N_6  and  C_18
REMARK    5  A    between atoms: C_18  and  C_19
REMARK                            x       y       z     vdW  Elec       q    Type
REMARK                         _______ _______ _______ _____ _____    ______ ____
ROOT
ATOM      2  O   UNL     1      -0.940  -9.655  14.877  0.00  0.00    -0.252 OA
ATOM      4  N   UNL     1      -3.709  -9.875  10.629  0.00  0.00    -0.296 NA
ATOM      5  N   UNL     1      -2.375 -10.164  13.089  0.00  0.00    -0.278 N 
ATOM      6  N   UNL     1      -3.130 -10.477  15.180  0.00  0.00    -0.279 N 
ATOM      7  C   UNL     1      -3.675 -10.781  12.917  0.00  0.00    +0.109 C 
ATOM      8  C   UNL     1      -4.491 -10.019  11.874  0.00  0.00    +0.108 C 
ATOM     10  C   UNL     1      -2.455  -9.135  10.878  0.00  0.00    +0.104 C 
ATOM     11  C   UNL     1      -4.267 -10.775  14.326  0.00  0.00    +0.133 C 
ATOM     12  C   UNL     1      -1.585  -9.841  11.919  0.00  0.00    +0.125 C 
ATOM     15  C   UNL     1      -2.011 -10.052  14.437  0.00  0.00    +0.305 C 
ENDROOT
BRANCH   4   9
ATOM      1  O   UNL     1      -7.010  -8.039   8.798  0.00  0.00    -0.380 OA
ATOM      9  C   UNL     1      -4.503  -9.202   9.605  0.00  0.00    +0.061 C 
ATOM     13  C   UNL     1      -4.958  -7.818  10.082  0.00  0.00    +0.047 C 
ATOM     14  C   UNL     1      -5.719 -10.053   9.230  0.00  0.00    +0.047 C 
ATOM     16  C   UNL     1      -5.895  -7.187   9.057  0.00  0.00    +0.161 C 
ATOM     17  C   UNL     1      -6.613  -9.298   8.252  0.00  0.00    +0.161 C 
ENDBRANCH   4   9
BRANCH   6  18
ATOM     18  C   UNL     1      -3.234 -10.483  16.623  0.00  0.00    +0.144 C 
BRANCH  18  19
ATOM     19  C   UNL     1      -4.660 -10.387  17.085  0.00  0.00    -0.030 A 
ATOM     20  C   UNL     1      -4.999 -10.759  18.386  0.00  0.00    +0.009 A 
ATOM     21  C   UNL     1      -5.644  -9.925  16.212  0.00  0.00    +0.009 A 
ATOM     22  C   UNL     1      -6.323 -10.669  18.813  0.00  0.00    +0.046 A 
ATOM     23  C   UNL     1      -6.969  -9.835  16.639  0.00  0.00    +0.046 A 
ATOM     24  C   UNL     1      -7.309 -10.207  17.940  0.00  0.00    +0.120 A 
BRANCH  24   3
ATOM      3  O   UNL     1      -8.601 -10.118  18.358  0.00  0.00    -0.495 OA
ATOM     25  C   UNL     1      -9.457  -9.232  17.639  0.00  0.00    +0.277 C 
ENDBRANCH  24   3
ENDBRANCH  18  19
ENDBRANCH   6  18
TORSDOF 4
ENDMDL
MODEL 2
REMARK VINA RESULT:      -5.3      2.271      3.536
REMARK  Name = 86769017
REMARK  5 active torsions:
REMARK  status: ('A' for Active; 'I' for Inactive)
REMARK    1  A    between atoms: O_3  and  C_24
REMARK    2  A    between atoms: O_3  and  C_25
REMARK    3  A    between atoms: N_4  and  C_9
REMARK    4  A    between atoms: N_6  and  C_18
REMARK    5  A    between atoms: C_18  and  C_19
REMARK                            x       y       z     vdW  Elec       q    Type
REMARK                         _______ _______ _______ _____ _____    ______ ____
ROOT
ATOM      2  O   UNL     1      -2.447  -9.280  10.601  0.00  0.00    -0.252 OA
ATOM      4  N   UNL     1      -7.199  -9.347   8.817  0.00  0.00    -0.296 NA
ATOM      5  N   UNL     1      -4.647  -9.756   9.930  0.00  0.00    -0.278 N 
ATOM      6  N   UNL     1      -3.986 -10.436  11.965  0.00  0.00    -0.279 N 
ATOM      7  C   UNL     1      -5.766 -10.523  10.437  0.00  0.00    +0.109 C 
ATOM      8  C   UNL     1      -7.073  -9.758  10.231  0.00  0.00    +0.108 C 
ATOM     10  C   UNL     1      -6.075  -8.475   8.421  0.00  0.00    +0.104 C 
ATOM     11  C   UNL     1      -5.396 -10.781  11.896  0.00  0.00    +0.133 C 
ATOM     12  C   UNL     1      -4.729  -9.177   8.605  0.00  0.00    +0.125 C 
ATOM     15  C   UNL     1      -3.553  -9.766  10.804  0.00  0.00    +0.305 C 
ENDROOT
BRANCH   4   9
ATOM      1  O   UNL     1     -10.375  -6.668   9.417  0.00  0.00    -0.380 OA
ATOM      9  C   UNL     1      -8.473  -8.668   8.597  0.00  0.00    +0.061 C 
ATOM     13  C   UNL     1      -8.262  -7.175   8.327  0.00  0.00    +0.047 C 
ATOM     14  C   UNL     1      -9.393  -8.857   9.806  0.00  0.00    +0.047 C 
ATOM     16  C   UNL     1      -9.606  -6.459   8.233  0.00  0.00    +0.161 C 
ATOM     17  C   UNL     1     -10.673  -8.049   9.630  0.00  0.00    +0.161 C 
ENDBRANCH   4   9
BRANCH   6  18
ATOM     18  C   UNL     1      -3.205 -10.641  13.165  0.00  0.00    +0.144 C 
BRANCH  18  19
ATOM     19  C   UNL     1      -4.037 -10.506  14.407  0.00  0.00    -0.030 A 
ATOM     20  C   UNL     1      -3.477 -10.780  15.655  0.00  0.00    +0.009 A 
ATOM     21  C   UNL     1      -5.369 -10.106  14.313  0.00  0.00    +0.009 A 
ATOM     22  C   UNL     1      -4.250 -10.654  16.809  0.00  0.00    +0.046 A 
ATOM     23  C   UNL     1      -6.142  -9.980  15.467  0.00  0.00    +0.046 A 
ATOM     24  C   UNL     1      -5.583 -10.254  16.715  0.00  0.00    +0.120 A 
BRANCH  24   3
ATOM      3  O   UNL     1      -6.338 -10.130  17.841  0.00  0.00    -0.495 OA
ATOM     25  C   UNL     1      -5.808 -10.685  19.043  0.00  0.00    +0.277 C 
ENDBRANCH  24   3
ENDBRANCH  18  19
ENDBRANCH   6  18
TORSDOF 4
ENDMDL
