MODEL 1
REMARK VINA RESULT:       3.0      0.000      0.000
REMARK  Name = 40779519
REMARK  10 active torsions:
REMARK  status: ('A' for Active; 'I' for Inactive)
REMARK    1  A    between atoms: O_3  and  C_27
REMARK    2  A    between atoms: O_3  and  C_32
REMARK    3  A    between atoms: O_4  and  C_29
REMARK    4  A    between atoms: O_4  and  C_33
REMARK    5  A    between atoms: N_6  and  C_20
REMARK    6  A    between atoms: N_7  and  C_17
REMARK    7  A    between atoms: C_10  and  C_16
REMARK    8  A    between atoms: C_11  and  C_17
REMARK    9  A    between atoms: C_19  and  C_22
REMARK   10  A    between atoms: C_21  and  C_23
REMARK                            x       y       z     vdW  Elec       q    Type
REMARK                         _______ _______ _______ _____ _____    ______ ____
ROOT
ATOM      5  N   UNL     1      -5.851   3.005  24.353  0.00  0.00    -0.297 NA
ATOM      9  C   UNL     1      -4.102   3.776  26.123  0.00  0.00    +0.002 C 
ATOM     10  C   UNL     1      -3.526   3.927  24.687  0.00  0.00    +0.055 C 
ATOM     11  C   UNL     1      -5.705   1.968  25.409  0.00  0.00    +0.074 C 
ATOM     12  C   UNL     1      -4.530   2.311  26.349  0.00  0.00    +0.024 C 
ATOM     13  C   UNL     1      -5.382   4.637  26.181  0.00  0.00    +0.019 C 
ATOM     14  C   UNL     1      -4.538   3.264  23.709  0.00  0.00    +0.094 C 
ATOM     15  C   UNL     1      -6.301   4.258  25.005  0.00  0.00    +0.085 C 
ENDROOT
BRANCH  10  16
ATOM      6  N   UNL     1      -1.018   4.296  24.560  0.00  0.00    -0.270 N 
ATOM      8  N   UNL     1       0.156   3.700  24.293  0.00  0.00    -0.171 NA
ATOM     16  C   UNL     1      -2.096   3.470  24.435  0.00  0.00    +0.044 A 
ATOM     18  C   UNL     1      -1.591   2.248  24.059  0.00  0.00    +0.053 A 
ATOM     19  C   UNL     1      -0.201   2.449  23.987  0.00  0.00    +0.093 A 
ATOM     20  C   UNL     1      -1.033   5.690  24.935  0.00  0.00    +0.172 C 
BRANCH  19  22
ATOM     22  C   UNL     1       0.794   1.471  23.632  0.00  0.00    +0.006 A 
ATOM     24  C   UNL     1       2.128   1.852  23.492  0.00  0.00    +0.059 A 
ATOM     25  C   UNL     1       0.423   0.142  23.426  0.00  0.00    +0.014 A 
ATOM     27  C   UNL     1       3.092   0.905  23.147  0.00  0.00    +0.162 A 
ATOM     28  C   UNL     1       1.388  -0.806  23.081  0.00  0.00    +0.050 A 
ATOM     29  C   UNL     1       2.722  -0.424  22.941  0.00  0.00    +0.162 A 
BRANCH  27   3
ATOM      3  O   UNL     1       4.392   1.289  23.014  0.00  0.00    -0.491 OA
ATOM     32  C   UNL     1       5.326   0.752  23.949  0.00  0.00    +0.277 C 
ENDBRANCH  27   3
BRANCH  29   4
ATOM      4  O   UNL     1       3.654  -1.358  22.605  0.00  0.00    -0.491 OA
ATOM     33  C   UNL     1       4.364  -1.979  23.674  0.00  0.00    +0.277 C 
ENDBRANCH  29   4
ENDBRANCH  19  22
ENDBRANCH  10  16
BRANCH  11  17
ATOM     17  C   UNL     1      -5.579   0.559  24.828  0.00  0.00    +0.123 C 
BRANCH  17   7
ATOM      1  O   UNL     1      -4.455  -1.821  23.681  0.00  0.00    -0.267 OA
ATOM      7  N   UNL     1      -4.286   0.010  25.097  0.00  0.00    -0.307 N 
ATOM     21  C   UNL     1      -3.818  -1.156  24.493  0.00  0.00    +0.279 C 
ATOM     34  H   UNL     1      -3.702   0.474  25.786  0.00  0.00    +0.149 HD
BRANCH  21  23
ATOM      2  O   UNL     1      -1.800  -0.877  25.832  0.00  0.00    -0.458 OA
ATOM     23  C   UNL     1      -2.462  -1.610  24.898  0.00  0.00    +0.189 A 
ATOM     26  C   UNL     1      -1.701  -2.682  24.496  0.00  0.00    +0.054 A 
ATOM     30  C   UNL     1      -0.494  -2.605  25.231  0.00  0.00    +0.042 A 
ATOM     31  C   UNL     1      -0.603  -1.490  26.029  0.00  0.00    +0.196 A 
ENDBRANCH  21  23
ENDBRANCH  17   7
ENDBRANCH  11  17
TORSDOF 7
ENDMDL
MODEL 2
REMARK VINA RESULT:       5.8      2.123      3.997
REMARK  Name = 40779519
REMARK  10 active torsions:
REMARK  status: ('A' for Active; 'I' for Inactive)
REMARK    1  A    between atoms: O_3  and  C_27
REMARK    2  A    between atoms: O_3  and  C_32
REMARK    3  A    between atoms: O_4  and  C_29
REMARK    4  A    between atoms: O_4  and  C_33
REMARK    5  A    between atoms: N_6  and  C_20
REMARK    6  A    between atoms: N_7  and  C_17
REMARK    7  A    between atoms: C_10  and  C_16
REMARK    8  A    between atoms: C_11  and  C_17
REMARK    9  A    between atoms: C_19  and  C_22
REMARK   10  A    between atoms: C_21  and  C_23
REMARK                            x       y       z     vdW  Elec       q    Type
REMARK                         _______ _______ _______ _____ _____    ______ ____
ROOT
ATOM      5  N   UNL     1      -5.303   2.845  26.185  0.00  0.00    -0.297 NA
ATOM      9  C   UNL     1      -5.153   1.410  24.016  0.00  0.00    +0.002 C 
ATOM     10  C   UNL     1      -4.273   0.793  25.138  0.00  0.00    +0.055 C 
ATOM     11  C   UNL     1      -5.008   3.717  25.017  0.00  0.00    +0.074 C 
ATOM     12  C   UNL     1      -4.711   2.867  23.764  0.00  0.00    +0.024 C 
ATOM     13  C   UNL     1      -6.597   1.461  24.561  0.00  0.00    +0.019 C 
ATOM     14  C   UNL     1      -4.253   1.804  26.321  0.00  0.00    +0.094 C 
ATOM     15  C   UNL     1      -6.597   2.166  25.929  0.00  0.00    +0.085 C 
ENDROOT
BRANCH  10  16
ATOM      6  N   UNL     1      -2.521  -1.010  24.785  0.00  0.00    -0.270 N 
ATOM      8  N   UNL     1      -1.244  -1.229  24.430  0.00  0.00    -0.171 NA
ATOM     16  C   UNL     1      -2.878   0.307  24.772  0.00  0.00    +0.044 A 
ATOM     18  C   UNL     1      -1.754   0.996  24.383  0.00  0.00    +0.053 A 
ATOM     19  C   UNL     1      -0.781  -0.000  24.186  0.00  0.00    +0.093 A 
ATOM     20  C   UNL     1      -3.361  -2.132  25.133  0.00  0.00    +0.172 C 
BRANCH  19  22
ATOM     22  C   UNL     1       0.583   0.198  23.770  0.00  0.00    +0.006 A 
ATOM     24  C   UNL     1       1.429  -0.899  23.611  0.00  0.00    +0.059 A 
ATOM     25  C   UNL     1       1.059   1.487  23.528  0.00  0.00    +0.014 A 
ATOM     27  C   UNL     1       2.752  -0.707  23.208  0.00  0.00    +0.162 A 
ATOM     28  C   UNL     1       2.380   1.678  23.124  0.00  0.00    +0.050 A 
ATOM     29  C   UNL     1       3.227   0.582  22.965  0.00  0.00    +0.162 A 
BRANCH  27   3
ATOM      3  O   UNL     1       3.569  -1.786  23.056  0.00  0.00    -0.491 OA
ATOM     32  C   UNL     1       4.624  -1.939  24.005  0.00  0.00    +0.277 C 
ENDBRANCH  27   3
BRANCH  29   4
ATOM      4  O   UNL     1       4.515   0.782  22.571  0.00  0.00    -0.491 OA
ATOM     33  C   UNL     1       5.504   0.846  23.597  0.00  0.00    +0.277 C 
ENDBRANCH  29   4
ENDBRANCH  19  22
ENDBRANCH  10  16
BRANCH  11  17
ATOM     17  C   UNL     1      -3.888   4.718  25.306  0.00  0.00    +0.123 C 
BRANCH  17   7
ATOM      1  O   UNL     1      -1.193   4.302  24.406  0.00  0.00    -0.267 OA
ATOM      7  N   UNL     1      -2.828   4.099  26.041  0.00  0.00    -0.307 N 
ATOM     21  C   UNL     1      -1.543   3.936  25.524  0.00  0.00    +0.279 C 
ATOM     34  H   UNL     1      -3.036   3.731  26.964  0.00  0.00    +0.149 HD
BRANCH  21  23
ATOM      2  O   UNL     1       0.759   3.492  26.194  0.00  0.00    -0.458 OA
ATOM     23  C   UNL     1      -0.561   3.250  26.404  0.00  0.00    +0.189 A 
ATOM     26  C   UNL     1      -0.731   2.369  27.447  0.00  0.00    +0.054 A 
ATOM     30  C   UNL     1       0.568   2.051  27.908  0.00  0.00    +0.042 A 
ATOM     31  C   UNL     1       1.439   2.759  27.114  0.00  0.00    +0.196 A 
ENDBRANCH  21  23
ENDBRANCH  17   7
ENDBRANCH  11  17
TORSDOF 7
ENDMDL
MODEL 3
REMARK VINA RESULT:       6.5      1.404      2.287
REMARK  Name = 40779519
REMARK  10 active torsions:
REMARK  status: ('A' for Active; 'I' for Inactive)
REMARK    1  A    between atoms: O_3  and  C_27
REMARK    2  A    between atoms: O_3  and  C_32
REMARK    3  A    between atoms: O_4  and  C_29
REMARK    4  A    between atoms: O_4  and  C_33
REMARK    5  A    between atoms: N_6  and  C_20
REMARK    6  A    between atoms: N_7  and  C_17
REMARK    7  A    between atoms: C_10  and  C_16
REMARK    8  A    between atoms: C_11  and  C_17
REMARK    9  A    between atoms: C_19  and  C_22
REMARK   10  A    between atoms: C_21  and  C_23
REMARK                            x       y       z     vdW  Elec       q    Type
REMARK                         _______ _______ _______ _____ _____    ______ ____
ROOT
ATOM      5  N   UNL     1      -5.082   3.283  24.664  0.00  0.00    -0.297 NA
ATOM      9  C   UNL     1      -2.804   3.490  25.909  0.00  0.00    +0.002 C 
ATOM     10  C   UNL     1      -2.579   3.411  24.374  0.00  0.00    +0.055 C 
ATOM     11  C   UNL     1      -5.009   2.281  25.760  0.00  0.00    +0.074 C 
ATOM     12  C   UNL     1      -3.593   2.248  26.374  0.00  0.00    +0.024 C 
ATOM     13  C   UNL     1      -3.701   4.720  26.164  0.00  0.00    +0.019 C 
ATOM     14  C   UNL     1      -3.953   3.087  23.720  0.00  0.00    +0.094 C 
ATOM     15  C   UNL     1      -4.951   4.630  25.269  0.00  0.00    +0.085 C 
ENDROOT
BRANCH  10  16
ATOM      6  N   UNL     1      -1.685   1.485  22.982  0.00  0.00    -0.270 N 
ATOM      8  N   UNL     1      -0.573   0.810  22.648  0.00  0.00    -0.171 NA
ATOM     16  C   UNL     1      -1.467   2.510  23.856  0.00  0.00    +0.044 A 
ATOM     18  C   UNL     1      -0.117   2.502  24.113  0.00  0.00    +0.053 A 
ATOM     19  C   UNL     1       0.382   1.436  23.343  0.00  0.00    +0.093 A 
ATOM     20  C   UNL     1      -2.951   1.086  22.414  0.00  0.00    +0.172 C 
BRANCH  19  22
ATOM     22  C   UNL     1       1.751   1.002  23.257  0.00  0.00    +0.006 A 
ATOM     24  C   UNL     1       2.085  -0.318  23.562  0.00  0.00    +0.059 A 
ATOM     25  C   UNL     1       2.746   1.900  22.871  0.00  0.00    +0.014 A 
ATOM     27  C   UNL     1       3.413  -0.738  23.480  0.00  0.00    +0.162 A 
ATOM     28  C   UNL     1       4.073   1.479  22.788  0.00  0.00    +0.050 A 
ATOM     29  C   UNL     1       4.407   0.160  23.093  0.00  0.00    +0.162 A 
BRANCH  27   3
ATOM      3  O   UNL     1       3.727  -2.030  23.781  0.00  0.00    -0.491 OA
ATOM     32  C   UNL     1       5.112  -2.368  23.818  0.00  0.00    +0.277 C 
ENDBRANCH  27   3
BRANCH  29   4
ATOM      4  O   UNL     1       5.706  -0.239  23.009  0.00  0.00    -0.491 OA
ATOM     33  C   UNL     1       6.637   0.394  23.885  0.00  0.00    +0.277 C 
ENDBRANCH  29   4
ENDBRANCH  19  22
ENDBRANCH  10  16
BRANCH  11  17
ATOM     17  C   UNL     1      -5.470   0.893  25.312  0.00  0.00    +0.123 C 
BRANCH  17   7
ATOM      1  O   UNL     1      -4.053  -1.082  26.841  0.00  0.00    -0.267 OA
ATOM      7  N   UNL     1      -4.360   0.105  24.870  0.00  0.00    -0.307 N 
ATOM     21  C   UNL     1      -3.728  -0.835  25.683  0.00  0.00    +0.279 C 
ATOM     34  H   UNL     1      -3.999   0.269  23.936  0.00  0.00    +0.149 HD
BRANCH  21  23
ATOM      2  O   UNL     1      -2.835  -2.566  24.215  0.00  0.00    -0.458 OA
ATOM     23  C   UNL     1      -2.573  -1.553  25.083  0.00  0.00    +0.189 A 
ATOM     26  C   UNL     1      -1.217  -1.388  25.238  0.00  0.00    +0.054 A 
ATOM     30  C   UNL     1      -0.606  -2.360  24.412  0.00  0.00    +0.042 A 
ATOM     31  C   UNL     1      -1.632  -3.051  23.812  0.00  0.00    +0.196 A 
ENDBRANCH  21  23
ENDBRANCH  17   7
ENDBRANCH  11  17
TORSDOF 7
ENDMDL
