MODEL 1
REMARK VINA RESULT:      -4.3      0.000      0.000
REMARK  Name = 51137502
REMARK  6 active torsions:
REMARK  status: ('A' for Active; 'I' for Inactive)
REMARK    1  A    between atoms: O_4  and  C_27
REMARK    2  A    between atoms: O_4  and  C_28
REMARK    3  A    between atoms: N_5  and  C_12
REMARK    4  A    between atoms: C_8  and  C_13
REMARK    5  A    between atoms: C_12  and  C_14
REMARK    6  A    between atoms: C_17  and  C_21
REMARK                            x       y       z     vdW  Elec       q    Type
REMARK                         _______ _______ _______ _____ _____    ______ ____
ROOT
ATOM      5  N   UNL     1     -10.720  -8.717  14.654  0.00  0.00    -0.297 NA
ATOM      8  C   UNL     1      -9.671  -9.561  12.733  0.00  0.00    +0.092 C 
ATOM      9  C   UNL     1      -9.583  -8.436  13.774  0.00  0.00    +0.097 C 
ATOM     10  C   UNL     1     -10.425 -10.695  13.450  0.00  0.00    +0.029 C 
ATOM     11  C   UNL     1     -10.695 -10.166  14.853  0.00  0.00    +0.085 C 
ENDROOT
BRANCH   8  13
ATOM      1  O   UNL     1      -7.274  -9.956  13.038  0.00  0.00    -0.420 OA
ATOM      6  N   UNL     1      -7.996 -10.291  10.947  0.00  0.00    -0.112 NA
ATOM      7  N   UNL     1      -6.637 -10.547  10.977  0.00  0.00    -0.107 NA
ATOM     13  C   UNL     1      -8.324  -9.950  12.171  0.00  0.00    +0.222 A 
ATOM     17  C   UNL     1      -6.259 -10.339  12.216  0.00  0.00    +0.248 A 
BRANCH  17  21
ATOM     21  C   UNL     1      -4.966 -10.451  12.826  0.00  0.00    +0.039 A 
ATOM     23  C   UNL     1      -4.848 -10.471  14.215  0.00  0.00    +0.017 A 
ATOM     24  C   UNL     1      -3.825 -10.542  12.028  0.00  0.00    +0.017 A 
ATOM     25  C   UNL     1      -3.591 -10.580  14.808  0.00  0.00    +0.046 A 
ATOM     26  C   UNL     1      -2.567 -10.651  12.620  0.00  0.00    +0.046 A 
ATOM     27  C   UNL     1      -2.450 -10.671  14.010  0.00  0.00    +0.120 A 
BRANCH  27   4
ATOM      4  O   UNL     1      -1.223 -10.781  14.589  0.00  0.00    -0.495 OA
ATOM     28  C   UNL     1      -1.003 -10.045  15.792  0.00  0.00    +0.277 C 
ENDBRANCH  27   4
ENDBRANCH  17  21
ENDBRANCH   8  13
BRANCH   5  12
ATOM     12  C   UNL     1     -10.644  -7.984  15.909  0.00  0.00    +0.119 C 
BRANCH  12  14
ATOM      2  O   UNL     1      -6.478  -9.684  17.970  0.00  0.00    -0.453 OA
ATOM      3  O   UNL     1      -7.669 -10.779  19.758  0.00  0.00    -0.453 OA
ATOM     14  C   UNL     1      -9.877  -8.744  16.958  0.00  0.00    -0.030 A 
ATOM     15  C   UNL     1      -8.484  -8.807  16.889  0.00  0.00    +0.054 A 
ATOM     16  C   UNL     1     -10.573  -9.382  18.001  0.00  0.00    +0.009 A 
ATOM     18  C   UNL     1      -7.825  -9.514  17.875  0.00  0.00    +0.167 A 
ATOM     19  C   UNL     1      -9.881 -10.092  18.986  0.00  0.00    +0.050 A 
ATOM     20  C   UNL     1      -8.506 -10.138  18.895  0.00  0.00    +0.166 A 
ATOM     22  C   UNL     1      -6.388 -10.486  19.166  0.00  0.00    +0.466 C 
ENDBRANCH  12  14
ENDBRANCH   5  12
TORSDOF 5
ENDMDL
MODEL 2
REMARK VINA RESULT:      -4.3      1.502      2.069
REMARK  Name = 51137502
REMARK  6 active torsions:
REMARK  status: ('A' for Active; 'I' for Inactive)
REMARK    1  A    between atoms: O_4  and  C_27
REMARK    2  A    between atoms: O_4  and  C_28
REMARK    3  A    between atoms: N_5  and  C_12
REMARK    4  A    between atoms: C_8  and  C_13
REMARK    5  A    between atoms: C_12  and  C_14
REMARK    6  A    between atoms: C_17  and  C_21
REMARK                            x       y       z     vdW  Elec       q    Type
REMARK                         _______ _______ _______ _____ _____    ______ ____
ROOT
ATOM      5  N   UNL     1     -10.710  -8.930  14.685  0.00  0.00    -0.297 NA
ATOM      8  C   UNL     1     -10.189  -9.550  12.484  0.00  0.00    +0.092 C 
ATOM      9  C   UNL     1      -9.863  -8.512  13.567  0.00  0.00    +0.097 C 
ATOM     10  C   UNL     1     -10.683 -10.781  13.262  0.00  0.00    +0.029 C 
ATOM     11  C   UNL     1     -10.583 -10.387  14.731  0.00  0.00    +0.085 C 
ENDROOT
BRANCH   8  13
ATOM      1  O   UNL     1      -7.781  -9.738  12.085  0.00  0.00    -0.420 OA
ATOM      6  N   UNL     1      -9.038 -10.105  10.271  0.00  0.00    -0.112 NA
ATOM      7  N   UNL     1      -7.711 -10.241   9.907  0.00  0.00    -0.107 NA
ATOM     13  C   UNL     1      -9.031  -9.811  11.550  0.00  0.00    +0.222 A 
ATOM     17  C   UNL     1      -7.014 -10.018  10.996  0.00  0.00    +0.248 A 
BRANCH  17  21
ATOM     21  C   UNL     1      -5.596 -10.026  11.212  0.00  0.00    +0.039 A 
ATOM     23  C   UNL     1      -4.733  -9.630  10.191  0.00  0.00    +0.017 A 
ATOM     24  C   UNL     1      -5.081 -10.428  12.444  0.00  0.00    +0.017 A 
ATOM     25  C   UNL     1      -3.354  -9.636  10.400  0.00  0.00    +0.046 A 
ATOM     26  C   UNL     1      -3.702 -10.435  12.655  0.00  0.00    +0.046 A 
ATOM     27  C   UNL     1      -2.839 -10.039  11.633  0.00  0.00    +0.120 A 
BRANCH  27   4
ATOM      4  O   UNL     1      -1.493 -10.043  11.839  0.00  0.00    -0.495 OA
ATOM     28  C   UNL     1      -0.731  -9.038  11.171  0.00  0.00    +0.277 C 
ENDBRANCH  27   4
ENDBRANCH  17  21
ENDBRANCH   8  13
BRANCH   5  12
ATOM     12  C   UNL     1     -10.324  -8.301  15.940  0.00  0.00    +0.119 C 
BRANCH  12  14
ATOM      2  O   UNL     1      -5.558  -9.629  16.068  0.00  0.00    -0.453 OA
ATOM      3  O   UNL     1      -5.813 -10.781  18.170  0.00  0.00    -0.453 OA
ATOM     14  C   UNL     1      -9.135  -8.978  16.566  0.00  0.00    -0.030 A 
ATOM     15  C   UNL     1      -7.894  -8.933  15.926  0.00  0.00    +0.054 A 
ATOM     16  C   UNL     1      -9.284  -9.650  17.792  0.00  0.00    +0.009 A 
ATOM     18  C   UNL     1      -6.833  -9.567  16.540  0.00  0.00    +0.167 A 
ATOM     19  C   UNL     1      -8.193 -10.285  18.393  0.00  0.00    +0.050 A 
ATOM     20  C   UNL     1      -6.980 -10.225  17.740  0.00  0.00    +0.166 A 
ATOM     22  C   UNL     1      -4.918 -10.399  17.106  0.00  0.00    +0.466 C 
ENDBRANCH  12  14
ENDBRANCH   5  12
TORSDOF 5
ENDMDL
MODEL 3
REMARK VINA RESULT:      -3.3      2.207      3.055
REMARK  Name = 51137502
REMARK  6 active torsions:
REMARK  status: ('A' for Active; 'I' for Inactive)
REMARK    1  A    between atoms: O_4  and  C_27
REMARK    2  A    between atoms: O_4  and  C_28
REMARK    3  A    between atoms: N_5  and  C_12
REMARK    4  A    between atoms: C_8  and  C_13
REMARK    5  A    between atoms: C_12  and  C_14
REMARK    6  A    between atoms: C_17  and  C_21
REMARK                            x       y       z     vdW  Elec       q    Type
REMARK                         _______ _______ _______ _____ _____    ______ ____
ROOT
ATOM      5  N   UNL     1     -10.473  -9.872  12.661  0.00  0.00    -0.297 NA
ATOM      8  C   UNL     1      -9.362  -8.891  10.843  0.00  0.00    +0.092 C 
ATOM      9  C   UNL     1      -9.209  -9.208  12.337  0.00  0.00    +0.097 C 
ATOM     10  C   UNL     1     -10.378  -9.925  10.329  0.00  0.00    +0.029 C 
ATOM     11  C   UNL     1     -10.720 -10.781  11.542  0.00  0.00    +0.085 C 
ENDROOT
BRANCH   8  13
ATOM      1  O   UNL     1      -6.921  -9.087  10.847  0.00  0.00    -0.420 OA
ATOM      6  N   UNL     1      -7.802  -8.683   8.830  0.00  0.00    -0.112 NA
ATOM      7  N   UNL     1      -6.429  -8.768   8.689  0.00  0.00    -0.107 NA
ATOM     13  C   UNL     1      -8.044  -8.874  10.106  0.00  0.00    +0.222 A 
ATOM     17  C   UNL     1      -5.957  -9.005   9.891  0.00  0.00    +0.248 A 
BRANCH  17  21
ATOM     21  C   UNL     1      -4.608  -9.188  10.342  0.00  0.00    +0.039 A 
ATOM     23  C   UNL     1      -4.358  -9.836  11.552  0.00  0.00    +0.017 A 
ATOM     24  C   UNL     1      -3.545  -8.719   9.570  0.00  0.00    +0.017 A 
ATOM     25  C   UNL     1      -3.047 -10.015  11.990  0.00  0.00    +0.046 A 
ATOM     26  C   UNL     1      -2.233  -8.898  10.008  0.00  0.00    +0.046 A 
ATOM     27  C   UNL     1      -1.984  -9.546  11.218  0.00  0.00    +0.120 A 
BRANCH  27   4
ATOM      4  O   UNL     1      -0.704  -9.722  11.644  0.00  0.00    -0.495 OA
ATOM     28  C   UNL     1       0.215  -8.657  11.401  0.00  0.00    +0.277 C 
ENDBRANCH  27   4
ENDBRANCH  17  21
ENDBRANCH   8  13
BRANCH   5  12
ATOM     12  C   UNL     1     -10.424 -10.566  13.939  0.00  0.00    +0.119 C 
BRANCH  12  14
ATOM      2  O   UNL     1      -5.539 -10.765  14.704  0.00  0.00    -0.453 OA
ATOM      3  O   UNL     1      -5.677  -9.425  16.704  0.00  0.00    -0.453 OA
ATOM     14  C   UNL     1      -9.170 -10.242  14.707  0.00  0.00    -0.030 A 
ATOM     15  C   UNL     1      -7.938 -10.717  14.254  0.00  0.00    +0.054 A 
ATOM     16  C   UNL     1      -9.252  -9.461  15.873  0.00  0.00    +0.009 A 
ATOM     18  C   UNL     1      -6.816 -10.392  14.990  0.00  0.00    +0.167 A 
ATOM     19  C   UNL     1      -8.100  -9.146  16.600  0.00  0.00    +0.050 A 
ATOM     20  C   UNL     1      -6.896  -9.627  16.131  0.00  0.00    +0.166 A 
ATOM     22  C   UNL     1      -4.823 -10.148  15.795  0.00  0.00    +0.466 C 
ENDBRANCH  12  14
ENDBRANCH   5  12
TORSDOF 5
ENDMDL
MODEL 4
REMARK VINA RESULT:      -3.0      2.025      3.522
REMARK  Name = 51137502
REMARK  6 active torsions:
REMARK  status: ('A' for Active; 'I' for Inactive)
REMARK    1  A    between atoms: O_4  and  C_27
REMARK    2  A    between atoms: O_4  and  C_28
REMARK    3  A    between atoms: N_5  and  C_12
REMARK    4  A    between atoms: C_8  and  C_13
REMARK    5  A    between atoms: C_12  and  C_14
REMARK    6  A    between atoms: C_17  and  C_21
REMARK                            x       y       z     vdW  Elec       q    Type
REMARK                         _______ _______ _______ _____ _____    ______ ____
ROOT
ATOM      5  N   UNL     1      -9.160  -9.784  10.647  0.00  0.00    -0.297 NA
ATOM      8  C   UNL     1      -7.071  -9.110   9.820  0.00  0.00    +0.092 C 
ATOM      9  C   UNL     1      -7.870  -9.277  11.120  0.00  0.00    +0.097 C 
ATOM     10  C   UNL     1      -7.722 -10.095   8.834  0.00  0.00    +0.029 C 
ATOM     11  C   UNL     1      -8.824 -10.781   9.631  0.00  0.00    +0.085 C 
ENDROOT
BRANCH   8  13
ATOM      1  O   UNL     1      -5.157  -9.561  11.280  0.00  0.00    -0.420 OA
ATOM      6  N   UNL     1      -4.612  -9.236   9.135  0.00  0.00    -0.112 NA
ATOM      7  N   UNL     1      -3.448  -9.477   9.840  0.00  0.00    -0.107 NA
ATOM     13  C   UNL     1      -5.584  -9.294  10.015  0.00  0.00    +0.222 A 
ATOM     17  C   UNL     1      -3.814  -9.662  11.087  0.00  0.00    +0.248 A 
BRANCH  17  21
ATOM     21  C   UNL     1      -3.032  -9.948  12.254  0.00  0.00    +0.039 A 
ATOM     23  C   UNL     1      -3.647 -10.449  13.401  0.00  0.00    +0.017 A 
ATOM     24  C   UNL     1      -1.654  -9.727  12.242  0.00  0.00    +0.017 A 
ATOM     25  C   UNL     1      -2.886 -10.728  14.536  0.00  0.00    +0.046 A 
ATOM     26  C   UNL     1      -0.893 -10.005  13.377  0.00  0.00    +0.046 A 
ATOM     27  C   UNL     1      -1.509 -10.506  14.524  0.00  0.00    +0.120 A 
BRANCH  27   4
ATOM      4  O   UNL     1      -0.766 -10.781  15.630  0.00  0.00    -0.495 OA
ATOM     28  C   UNL     1      -1.441 -10.761  16.888  0.00  0.00    +0.277 C 
ENDBRANCH  27   4
ENDBRANCH  17  21
ENDBRANCH   8  13
BRANCH   5  12
ATOM     12  C   UNL     1      -9.968 -10.338  11.723  0.00  0.00    +0.119 C 
BRANCH  12  14
ATOM      2  O   UNL     1      -9.749  -9.050  16.496  0.00  0.00    -0.453 OA
ATOM      3  O   UNL     1      -7.502  -9.890  16.743  0.00  0.00    -0.453 OA
ATOM     14  C   UNL     1      -9.275 -10.233  13.056  0.00  0.00    -0.030 A 
ATOM     15  C   UNL     1      -9.940  -9.652  14.138  0.00  0.00    +0.054 A 
ATOM     16  C   UNL     1      -7.965 -10.723  13.199  0.00  0.00    +0.009 A 
ATOM     18  C   UNL     1      -9.265  -9.580  15.340  0.00  0.00    +0.167 A 
ATOM     19  C   UNL     1      -7.304 -10.637  14.427  0.00  0.00    +0.050 A 
ATOM     20  C   UNL     1      -7.983 -10.060  15.480  0.00  0.00    +0.166 A 
ATOM     22  C   UNL     1      -8.626  -9.250  17.380  0.00  0.00    +0.466 C 
ENDBRANCH  12  14
ENDBRANCH   5  12
TORSDOF 5
ENDMDL
