MODEL 1
REMARK VINA RESULT:       7.7      0.000      0.000
REMARK  Name = 75368467
REMARK  6 active torsions:
REMARK  status: ('A' for Active; 'I' for Inactive)
REMARK    1  A    between atoms: O_3  and  C_23
REMARK    2  A    between atoms: O_3  and  C_29
REMARK    3  A    between atoms: N_5  and  C_14
REMARK    4  A    between atoms: N_7  and  C_19
REMARK    5  A    between atoms: C_14  and  C_16
REMARK    6  A    between atoms: C_19  and  C_22
REMARK                            x       y       z     vdW  Elec       q    Type
REMARK                         _______ _______ _______ _____ _____    ______ ____
ROOT
ATOM      1  O   UNL     1      -3.628  -2.854  25.260  0.00  0.00    -0.252 OA
ATOM      2  O   UNL     1       2.934  -1.541  23.519  0.00  0.00    -0.253 OA
ATOM      4  N   UNL     1      -1.785  -1.746  24.312  0.00  0.00    -0.278 N 
ATOM      5  N   UNL     1      -3.777  -0.705  24.299  0.00  0.00    -0.279 N 
ATOM      6  N   UNL     1       0.819  -0.792  24.097  0.00  0.00    -0.282 N 
ATOM      7  N   UNL     1       2.202   0.442  22.631  0.00  0.00    -0.295 N 
ATOM      8  C   UNL     1      -1.557  -0.526  23.555  0.00  0.00    +0.112 C 
ATOM      9  C   UNL     1      -2.848   0.266  23.746  0.00  0.00    +0.133 C 
ATOM     10  C   UNL     1      -0.297   0.176  24.055  0.00  0.00    +0.133 C 
ATOM     11  C   UNL     1      -0.700  -2.693  24.504  0.00  0.00    +0.128 C 
ATOM     12  C   UNL     1       0.562  -1.960  24.957  0.00  0.00    +0.128 C 
ATOM     13  C   UNL     1      -3.127  -1.892  24.692  0.00  0.00    +0.306 C 
ATOM     15  C   UNL     1       2.045  -0.687  23.424  0.00  0.00    +0.303 C 
ATOM     30  H   UNL     1       1.460   1.120  22.537  0.00  0.00    +0.151 HD
ENDROOT
BRANCH   5  14
ATOM     14  C   UNL     1      -5.168  -0.387  24.532  0.00  0.00    +0.144 C 
BRANCH  14  16
ATOM     16  C   UNL     1      -5.355   1.045  24.945  0.00  0.00    -0.030 A 
ATOM     17  C   UNL     1      -4.666   2.058  24.278  0.00  0.00    +0.009 A 
ATOM     18  C   UNL     1      -6.216   1.361  25.996  0.00  0.00    +0.009 A 
ATOM     20  C   UNL     1      -4.840   3.388  24.661  0.00  0.00    +0.046 A 
ATOM     21  C   UNL     1      -6.389   2.692  26.380  0.00  0.00    +0.046 A 
ATOM     23  C   UNL     1      -5.700   3.704  25.711  0.00  0.00    +0.120 A 
BRANCH  23   3
ATOM      3  O   UNL     1      -5.869   5.003  26.086  0.00  0.00    -0.495 OA
ATOM     29  C   UNL     1      -6.521   5.866  25.156  0.00  0.00    +0.277 C 
ENDBRANCH  23   3
ENDBRANCH  14  16
ENDBRANCH   5  14
BRANCH   7  19
ATOM     19  C   UNL     1       3.408   0.688  21.871  0.00  0.00    +0.141 C 
BRANCH  19  22
ATOM     22  C   UNL     1       4.645   0.369  22.660  0.00  0.00    -0.030 A 
ATOM     24  C   UNL     1       5.655  -0.407  22.091  0.00  0.00    +0.005 A 
ATOM     25  C   UNL     1       4.785   0.850  23.962  0.00  0.00    +0.005 A 
ATOM     26  C   UNL     1       6.804  -0.702  22.825  0.00  0.00    +0.000 A 
ATOM     27  C   UNL     1       5.934   0.556  24.694  0.00  0.00    +0.000 A 
ATOM     28  C   UNL     1       6.944  -0.221  24.126  0.00  0.00    +0.000 A 
ENDBRANCH  19  22
ENDBRANCH   7  19
TORSDOF 5
ENDMDL
MODEL 2
REMARK VINA RESULT:      10.8      1.552      9.584
REMARK  Name = 75368467
REMARK  6 active torsions:
REMARK  status: ('A' for Active; 'I' for Inactive)
REMARK    1  A    between atoms: O_3  and  C_23
REMARK    2  A    between atoms: O_3  and  C_29
REMARK    3  A    between atoms: N_5  and  C_14
REMARK    4  A    between atoms: N_7  and  C_19
REMARK    5  A    between atoms: C_14  and  C_16
REMARK    6  A    between atoms: C_19  and  C_22
REMARK                            x       y       z     vdW  Elec       q    Type
REMARK                         _______ _______ _______ _____ _____    ______ ____
ROOT
ATOM      1  O   UNL     1       2.994  -1.826  23.959  0.00  0.00    -0.252 OA
ATOM      2  O   UNL     1      -3.531  -1.549  26.231  0.00  0.00    -0.253 OA
ATOM      4  N   UNL     1       0.786  -1.065  24.211  0.00  0.00    -0.278 N 
ATOM      5  N   UNL     1       2.058  -0.132  22.611  0.00  0.00    -0.279 N 
ATOM      6  N   UNL     1      -1.971  -1.216  24.549  0.00  0.00    -0.282 N 
ATOM      7  N   UNL     1      -3.870   0.175  24.758  0.00  0.00    -0.295 N 
ATOM      8  C   UNL     1      -0.037   0.001  23.663  0.00  0.00    +0.112 C 
ATOM      9  C   UNL     1       0.748   0.473  22.442  0.00  0.00    +0.133 C 
ATOM     10  C   UNL     1      -1.440  -0.519  23.360  0.00  0.00    +0.133 C 
ATOM     11  C   UNL     1       0.282  -1.879  25.304  0.00  0.00    +0.128 C 
ATOM     12  C   UNL     1      -1.140  -2.346  24.998  0.00  0.00    +0.128 C 
ATOM     13  C   UNL     1       2.065  -1.097  23.637  0.00  0.00    +0.306 C 
ATOM     15  C   UNL     1      -3.150  -0.908  25.244  0.00  0.00    +0.303 C 
ATOM     30  H   UNL     1      -3.537   0.711  23.969  0.00  0.00    +0.151 HD
ENDROOT
BRANCH   5  14
ATOM     14  C   UNL     1       3.154   0.153  21.713  0.00  0.00    +0.144 C 
BRANCH  14  16
ATOM     16  C   UNL     1       4.481   0.115  22.416  0.00  0.00    -0.030 A 
ATOM     17  C   UNL     1       4.660   0.826  23.603  0.00  0.00    +0.009 A 
ATOM     18  C   UNL     1       5.534  -0.628  21.882  0.00  0.00    +0.009 A 
ATOM     20  C   UNL     1       5.893   0.792  24.257  0.00  0.00    +0.046 A 
ATOM     21  C   UNL     1       6.766  -0.662  22.535  0.00  0.00    +0.046 A 
ATOM     23  C   UNL     1       6.944   0.049  23.723  0.00  0.00    +0.120 A 
BRANCH  23   3
ATOM      3  O   UNL     1       8.147   0.015  24.361  0.00  0.00    -0.495 OA
ATOM     29  C   UNL     1       9.315   0.030  23.542  0.00  0.00    +0.277 C 
ENDBRANCH  23   3
ENDBRANCH  14  16
ENDBRANCH   5  14
BRANCH   7  19
ATOM     19  C   UNL     1      -5.102   0.619  25.371  0.00  0.00    +0.141 C 
BRANCH  19  22
ATOM     22  C   UNL     1      -5.198   2.117  25.421  0.00  0.00    -0.030 A 
ATOM     24  C   UNL     1      -6.385   2.727  25.827  0.00  0.00    +0.005 A 
ATOM     25  C   UNL     1      -4.099   2.897  25.063  0.00  0.00    +0.005 A 
ATOM     26  C   UNL     1      -6.473   4.118  25.873  0.00  0.00    +0.000 A 
ATOM     27  C   UNL     1      -4.187   4.288  25.110  0.00  0.00    +0.000 A 
ATOM     28  C   UNL     1      -5.375   4.899  25.515  0.00  0.00    +0.000 A 
ENDBRANCH  19  22
ENDBRANCH   7  19
TORSDOF 5
ENDMDL
