MODEL 1
REMARK VINA RESULT:      -2.2      0.000      0.000
REMARK  Name = 38027239
REMARK  18 active torsions:
REMARK  status: ('A' for Active; 'I' for Inactive)
REMARK    1  A    between atoms: O_3  and  C_29
REMARK    2  A    between atoms: N_5  and  C_14
REMARK    3  A    between atoms: N_6  and  C_26
REMARK    4  A    between atoms: N_6  and  C_27
REMARK    5  A    between atoms: C_7  and  C_11
REMARK    6  A    between atoms: C_8  and  C_14
REMARK    7  A    between atoms: C_10  and  C_15
REMARK    8  A    between atoms: C_11  and  C_16
REMARK    9  A    between atoms: C_11  and  C_17
REMARK   10  A    between atoms: C_12  and  C_18
REMARK   11  A    between atoms: C_15  and  C_19
REMARK   12  A    between atoms: C_20  and  C_22
REMARK   13  A    between atoms: C_21  and  C_22
REMARK   14  A    between atoms: C_21  and  C_23
REMARK   15  A    between atoms: C_21  and  C_24
REMARK   16  A    between atoms: C_21  and  C_25
REMARK   17  A    between atoms: C_23  and  C_29
REMARK   18  A    between atoms: C_26  and  C_28
REMARK                            x       y       z     vdW  Elec       q    Type
REMARK                         _______ _______ _______ _____ _____    ______ ____
ROOT
ATOM      7  C   UNL     1      -2.732  -1.471  24.324  0.00  0.00    +0.000 C 
ATOM      8  C   UNL     1      -3.306  -0.810  25.602  0.00  0.00    +0.032 C 
ATOM      9  C   UNL     1      -1.214  -1.670  24.459  0.00  0.00    +0.012 C 
ATOM     10  C   UNL     1      -0.471  -0.343  24.698  0.00  0.00    +0.023 C 
ATOM     12  C   UNL     1      -1.141   0.493  25.769  0.00  0.00    -0.073 C 
ATOM     13  C   UNL     1      -2.404   0.261  26.170  0.00  0.00    -0.022 C 
ATOM     18  C   UNL     1      -0.311   1.574  26.403  0.00  0.00    +0.039 C 
ENDROOT
BRANCH   7  11
ATOM     11  C   UNL     1      -3.408  -2.813  24.026  0.00  0.00    -0.013 C 
ATOM     16  C   UNL     1      -3.522  -3.646  25.299  0.00  0.00    +0.007 C 
ATOM     17  C   UNL     1      -4.781  -2.590  23.400  0.00  0.00    +0.007 C 
ENDBRANCH   7  11
BRANCH   8  14
ATOM     14  C   UNL     1      -4.698  -0.222  25.343  0.00  0.00    +0.112 C 
BRANCH  14   5
ATOM      2  O   UNL     1      -6.245   1.929  26.466  0.00  0.00    -0.276 OA
ATOM      5  N   UNL     1      -4.608   1.165  25.007  0.00  0.00    -0.315 N 
ATOM     20  C   UNL     1      -5.399   2.145  25.602  0.00  0.00    +0.214 C 
ATOM     35  H   UNL     1      -3.897   1.456  24.343  0.00  0.00    +0.149 HD
BRANCH  20  22
ATOM     22  C   UNL     1      -5.121   3.549  25.086  0.00  0.00    +0.102 C 
BRANCH  22  21
ATOM     21  C   UNL     1      -3.735   3.734  24.418  0.00  0.00    -0.017 C 
ATOM     24  C   UNL     1      -3.423   2.543  23.486  0.00  0.00    +0.012 C 
ATOM     25  C   UNL     1      -3.797   5.002  23.541  0.00  0.00    +0.012 C 
BRANCH  21  23
ATOM     23  C   UNL     1      -2.584   3.851  25.444  0.00  0.00    +0.127 C 
BRANCH  23  29
ATOM      4  O   UNL     1      -1.226   5.831  25.130  0.00  0.00    -0.251 OA
ATOM     29  C   UNL     1      -1.379   4.629  24.962  0.00  0.00    +0.305 C 
BRANCH  29   3
ATOM      3  O   UNL     1      -0.479   3.853  24.308  0.00  0.00    -0.481 OA
ATOM     36  H   UNL     1      -0.825   2.952  24.130  0.00  0.00    +0.295 HD
ENDBRANCH  29   3
ENDBRANCH  23  29
ENDBRANCH  21  23
ENDBRANCH  22  21
ENDBRANCH  20  22
ENDBRANCH  14   5
ENDBRANCH   8  14
BRANCH  10  15
ATOM     15  C   UNL     1      -0.325   0.450  23.395  0.00  0.00    +0.103 C 
BRANCH  15  19
ATOM      1  O   UNL     1       1.697   1.678  23.784  0.00  0.00    -0.276 OA
ATOM      6  N   UNL     1       1.723   0.142  22.047  0.00  0.00    -0.300 N 
ATOM     19  C   UNL     1       1.117   0.824  23.108  0.00  0.00    +0.216 C 
ATOM     27  C   UNL     1       1.019  -0.865  21.262  0.00  0.00    +0.132 C 
BRANCH   6  26
ATOM     26  C   UNL     1       3.107   0.388  21.645  0.00  0.00    +0.142 C 
BRANCH  26  28
ATOM     28  C   UNL     1       4.081  -0.001  22.719  0.00  0.00    -0.030 A 
ATOM     30  C   UNL     1       5.005   0.929  23.193  0.00  0.00    +0.005 A 
ATOM     31  C   UNL     1       4.061  -1.295  23.242  0.00  0.00    +0.005 A 
ATOM     32  C   UNL     1       5.911   0.566  24.191  0.00  0.00    +0.000 A 
ATOM     33  C   UNL     1       4.967  -1.657  24.239  0.00  0.00    +0.000 A 
ATOM     34  C   UNL     1       5.891  -0.726  24.713  0.00  0.00    +0.000 A 
ENDBRANCH  26  28
ENDBRANCH   6  26
ENDBRANCH  15  19
ENDBRANCH  10  15
TORSDOF 12
ENDMDL
MODEL 2
REMARK VINA RESULT:      -0.4      1.923      6.676
REMARK  Name = 38027239
REMARK  18 active torsions:
REMARK  status: ('A' for Active; 'I' for Inactive)
REMARK    1  A    between atoms: O_3  and  C_29
REMARK    2  A    between atoms: N_5  and  C_14
REMARK    3  A    between atoms: N_6  and  C_26
REMARK    4  A    between atoms: N_6  and  C_27
REMARK    5  A    between atoms: C_7  and  C_11
REMARK    6  A    between atoms: C_8  and  C_14
REMARK    7  A    between atoms: C_10  and  C_15
REMARK    8  A    between atoms: C_11  and  C_16
REMARK    9  A    between atoms: C_11  and  C_17
REMARK   10  A    between atoms: C_12  and  C_18
REMARK   11  A    between atoms: C_15  and  C_19
REMARK   12  A    between atoms: C_20  and  C_22
REMARK   13  A    between atoms: C_21  and  C_22
REMARK   14  A    between atoms: C_21  and  C_23
REMARK   15  A    between atoms: C_21  and  C_24
REMARK   16  A    between atoms: C_21  and  C_25
REMARK   17  A    between atoms: C_23  and  C_29
REMARK   18  A    between atoms: C_26  and  C_28
REMARK                            x       y       z     vdW  Elec       q    Type
REMARK                         _______ _______ _______ _____ _____    ______ ____
ROOT
ATOM      7  C   UNL     1      -3.458  -1.140  24.806  0.00  0.00    +0.000 C 
ATOM      8  C   UNL     1      -2.154  -0.573  24.193  0.00  0.00    +0.032 C 
ATOM      9  C   UNL     1      -4.661  -0.807  23.910  0.00  0.00    +0.012 C 
ATOM     10  C   UNL     1      -4.836   0.710  23.708  0.00  0.00    +0.023 C 
ATOM     12  C   UNL     1      -3.526   1.386  23.360  0.00  0.00    -0.073 C 
ATOM     13  C   UNL     1      -2.338   0.793  23.572  0.00  0.00    -0.022 C 
ATOM     18  C   UNL     1      -3.614   2.744  22.722  0.00  0.00    +0.039 C 
ENDROOT
BRANCH   7  11
ATOM     11  C   UNL     1      -3.373  -2.654  25.021  0.00  0.00    -0.013 C 
ATOM     16  C   UNL     1      -4.253  -3.385  24.011  0.00  0.00    +0.007 C 
ATOM     17  C   UNL     1      -1.927  -3.126  24.920  0.00  0.00    +0.007 C 
ENDBRANCH   7  11
BRANCH   8  14
ATOM     14  C   UNL     1      -1.033  -0.512  25.237  0.00  0.00    +0.112 C 
BRANCH  14   5
ATOM      2  O   UNL     1       0.636  -0.951  22.934  0.00  0.00    -0.276 OA
ATOM      5  N   UNL     1       0.039   0.319  24.784  0.00  0.00    -0.315 N 
ATOM     20  C   UNL     1       0.799   0.031  23.654  0.00  0.00    +0.214 C 
ATOM     35  H   UNL     1       0.218   1.188  25.278  0.00  0.00    +0.149 HD
BRANCH  20  22
ATOM     22  C   UNL     1       1.880   1.063  23.368  0.00  0.00    +0.102 C 
BRANCH  22  21
ATOM     21  C   UNL     1       3.123   0.513  22.622  0.00  0.00    -0.017 C 
ATOM     24  C   UNL     1       2.706  -0.128  21.280  0.00  0.00    +0.012 C 
ATOM     25  C   UNL     1       4.046   1.706  22.295  0.00  0.00    +0.012 C 
BRANCH  21  23
ATOM     23  C   UNL     1       3.893  -0.550  23.440  0.00  0.00    +0.127 C 
BRANCH  23  29
ATOM      4  O   UNL     1       6.296  -0.397  23.182  0.00  0.00    -0.251 OA
ATOM     29  C   UNL     1       5.296  -0.149  23.841  0.00  0.00    +0.305 C 
BRANCH  29   3
ATOM      3  O   UNL     1       5.335   0.515  25.023  0.00  0.00    -0.481 OA
ATOM     36  H   UNL     1       6.222   0.475  25.441  0.00  0.00    +0.295 HD
ENDBRANCH  29   3
ENDBRANCH  23  29
ENDBRANCH  21  23
ENDBRANCH  22  21
ENDBRANCH  20  22
ENDBRANCH  14   5
ENDBRANCH   8  14
BRANCH  10  15
ATOM     15  C   UNL     1      -5.480   1.359  24.938  0.00  0.00    +0.103 C 
BRANCH  15  19
ATOM      1  O   UNL     1      -3.577   1.532  26.385  0.00  0.00    -0.276 OA
ATOM      6  N   UNL     1      -4.638   3.512  25.809  0.00  0.00    -0.300 N 
ATOM     19  C   UNL     1      -4.474   2.123  25.778  0.00  0.00    +0.216 C 
ATOM     27  C   UNL     1      -5.706   4.189  25.082  0.00  0.00    +0.132 C 
BRANCH   6  26
ATOM     26  C   UNL     1      -3.752   4.390  26.571  0.00  0.00    +0.142 C 
BRANCH  26  28
ATOM     28  C   UNL     1      -2.401   4.519  25.928  0.00  0.00    -0.030 A 
ATOM     30  C   UNL     1      -2.078   5.669  25.207  0.00  0.00    +0.005 A 
ATOM     31  C   UNL     1      -1.469   3.489  26.052  0.00  0.00    +0.005 A 
ATOM     32  C   UNL     1      -0.824   5.788  24.609  0.00  0.00    +0.000 A 
ATOM     33  C   UNL     1      -0.214   3.608  25.455  0.00  0.00    +0.000 A 
ATOM     34  C   UNL     1       0.108   4.759  24.733  0.00  0.00    +0.000 A 
ENDBRANCH  26  28
ENDBRANCH   6  26
ENDBRANCH  15  19
ENDBRANCH  10  15
TORSDOF 12
ENDMDL
MODEL 3
REMARK VINA RESULT:      -0.3      1.559      4.461
REMARK  Name = 38027239
REMARK  18 active torsions:
REMARK  status: ('A' for Active; 'I' for Inactive)
REMARK    1  A    between atoms: O_3  and  C_29
REMARK    2  A    between atoms: N_5  and  C_14
REMARK    3  A    between atoms: N_6  and  C_26
REMARK    4  A    between atoms: N_6  and  C_27
REMARK    5  A    between atoms: C_7  and  C_11
REMARK    6  A    between atoms: C_8  and  C_14
REMARK    7  A    between atoms: C_10  and  C_15
REMARK    8  A    between atoms: C_11  and  C_16
REMARK    9  A    between atoms: C_11  and  C_17
REMARK   10  A    between atoms: C_12  and  C_18
REMARK   11  A    between atoms: C_15  and  C_19
REMARK   12  A    between atoms: C_20  and  C_22
REMARK   13  A    between atoms: C_21  and  C_22
REMARK   14  A    between atoms: C_21  and  C_23
REMARK   15  A    between atoms: C_21  and  C_24
REMARK   16  A    between atoms: C_21  and  C_25
REMARK   17  A    between atoms: C_23  and  C_29
REMARK   18  A    between atoms: C_26  and  C_28
REMARK                            x       y       z     vdW  Elec       q    Type
REMARK                         _______ _______ _______ _____ _____    ______ ____
ROOT
ATOM      7  C   UNL     1      -2.165   3.377  25.096  0.00  0.00    +0.000 C 
ATOM      8  C   UNL     1      -3.540   3.184  24.409  0.00  0.00    +0.032 C 
ATOM      9  C   UNL     1      -1.067   3.604  24.045  0.00  0.00    +0.012 C 
ATOM     10  C   UNL     1      -0.957   2.430  23.054  0.00  0.00    +0.023 C 
ATOM     12  C   UNL     1      -2.314   2.004  22.533  0.00  0.00    -0.073 C 
ATOM     13  C   UNL     1      -3.458   2.361  23.144  0.00  0.00    -0.022 C 
ATOM     18  C   UNL     1      -2.330   1.194  21.267  0.00  0.00    +0.039 C 
ENDROOT
BRANCH   7  11
ATOM     11  C   UNL     1      -2.184   4.544  26.088  0.00  0.00    -0.013 C 
ATOM     16  C   UNL     1      -1.922   5.862  25.364  0.00  0.00    +0.007 C 
ATOM     17  C   UNL     1      -3.516   4.590  26.829  0.00  0.00    +0.007 C 
ENDBRANCH   7  11
BRANCH   8  14
ATOM     14  C   UNL     1      -4.553   2.548  25.368  0.00  0.00    +0.112 C 
BRANCH  14   5
ATOM      2  O   UNL     1      -5.413   0.010  24.318  0.00  0.00    -0.276 OA
ATOM      5  N   UNL     1      -4.113   1.254  25.786  0.00  0.00    -0.315 N 
ATOM     20  C   UNL     1      -4.583   0.071  25.222  0.00  0.00    +0.214 C 
ATOM     35  H   UNL     1      -3.382   1.196  26.490  0.00  0.00    +0.149 HD
BRANCH  20  22
ATOM     22  C   UNL     1      -3.966  -1.181  25.828  0.00  0.00    +0.102 C 
BRANCH  22  21
ATOM     21  C   UNL     1      -3.280  -2.127  24.810  0.00  0.00    -0.017 C 
ATOM     24  C   UNL     1      -3.137  -3.545  25.403  0.00  0.00    +0.012 C 
ATOM     25  C   UNL     1      -4.196  -2.236  23.573  0.00  0.00    +0.012 C 
BRANCH  21  23
ATOM     23  C   UNL     1      -1.873  -1.640  24.391  0.00  0.00    +0.127 C 
BRANCH  23  29
ATOM      4  O   UNL     1      -1.281  -0.355  26.356  0.00  0.00    -0.251 OA
ATOM     29  C   UNL     1      -0.982  -1.213  25.537  0.00  0.00    +0.305 C 
BRANCH  29   3
ATOM      3  O   UNL     1       0.199  -1.878  25.561  0.00  0.00    -0.481 OA
ATOM     36  H   UNL     1       0.175  -2.655  26.160  0.00  0.00    +0.295 HD
ENDBRANCH  29   3
ENDBRANCH  23  29
ENDBRANCH  21  23
ENDBRANCH  22  21
ENDBRANCH  20  22
ENDBRANCH  14   5
ENDBRANCH   8  14
BRANCH  10  15
ATOM     15  C   UNL     1      -0.214   1.247  23.681  0.00  0.00    +0.103 C 
BRANCH  15  19
ATOM      1  O   UNL     1       2.096   1.883  23.589  0.00  0.00    -0.276 OA
ATOM      6  N   UNL     1       1.440   0.125  22.227  0.00  0.00    -0.300 N 
ATOM     19  C   UNL     1       1.212   1.129  23.174  0.00  0.00    +0.216 C 
ATOM     27  C   UNL     1       0.379  -0.756  21.752  0.00  0.00    +0.132 C 
BRANCH   6  26
ATOM     26  C   UNL     1       2.757  -0.117  21.642  0.00  0.00    +0.142 C 
BRANCH  26  28
ATOM     28  C   UNL     1       3.822  -0.249  22.692  0.00  0.00    -0.030 A 
ATOM     30  C   UNL     1       4.691   0.812  22.943  0.00  0.00    +0.005 A 
ATOM     31  C   UNL     1       3.942  -1.435  23.417  0.00  0.00    +0.005 A 
ATOM     32  C   UNL     1       5.680   0.688  23.918  0.00  0.00    +0.000 A 
ATOM     33  C   UNL     1       4.931  -1.559  24.392  0.00  0.00    +0.000 A 
ATOM     34  C   UNL     1       5.801  -0.497  24.642  0.00  0.00    +0.000 A 
ENDBRANCH  26  28
ENDBRANCH   6  26
ENDBRANCH  15  19
ENDBRANCH  10  15
TORSDOF 12
ENDMDL
MODEL 4
REMARK VINA RESULT:       0.3      2.165      7.927
REMARK  Name = 38027239
REMARK  18 active torsions:
REMARK  status: ('A' for Active; 'I' for Inactive)
REMARK    1  A    between atoms: O_3  and  C_29
REMARK    2  A    between atoms: N_5  and  C_14
REMARK    3  A    between atoms: N_6  and  C_26
REMARK    4  A    between atoms: N_6  and  C_27
REMARK    5  A    between atoms: C_7  and  C_11
REMARK    6  A    between atoms: C_8  and  C_14
REMARK    7  A    between atoms: C_10  and  C_15
REMARK    8  A    between atoms: C_11  and  C_16
REMARK    9  A    between atoms: C_11  and  C_17
REMARK   10  A    between atoms: C_12  and  C_18
REMARK   11  A    between atoms: C_15  and  C_19
REMARK   12  A    between atoms: C_20  and  C_22
REMARK   13  A    between atoms: C_21  and  C_22
REMARK   14  A    between atoms: C_21  and  C_23
REMARK   15  A    between atoms: C_21  and  C_24
REMARK   16  A    between atoms: C_21  and  C_25
REMARK   17  A    between atoms: C_23  and  C_29
REMARK   18  A    between atoms: C_26  and  C_28
REMARK                            x       y       z     vdW  Elec       q    Type
REMARK                         _______ _______ _______ _____ _____    ______ ____
ROOT
ATOM      7  C   UNL     1      -1.183   0.428  24.660  0.00  0.00    +0.000 C 
ATOM      8  C   UNL     1      -0.455  -0.933  24.530  0.00  0.00    +0.032 C 
ATOM      9  C   UNL     1      -2.328   0.329  25.680  0.00  0.00    +0.012 C 
ATOM     10  C   UNL     1      -3.363  -0.743  25.292  0.00  0.00    +0.023 C 
ATOM     12  C   UNL     1      -2.702  -2.045  24.889  0.00  0.00    -0.073 C 
ATOM     13  C   UNL     1      -1.399  -2.114  24.565  0.00  0.00    -0.022 C 
ATOM     18  C   UNL     1      -3.563  -3.277  24.910  0.00  0.00    +0.039 C 
ENDROOT
BRANCH   7  11
ATOM     11  C   UNL     1      -0.222   1.550  25.066  0.00  0.00    -0.013 C 
ATOM     16  C   UNL     1      -0.296   2.701  24.066  0.00  0.00    +0.007 C 
ATOM     17  C   UNL     1      -0.538   2.038  26.476  0.00  0.00    +0.007 C 
ENDBRANCH   7  11
BRANCH   8  14
ATOM     14  C   UNL     1       0.388  -0.989  23.251  0.00  0.00    +0.112 C 
BRANCH  14   5
ATOM      2  O   UNL     1       2.239  -0.236  21.180  0.00  0.00    -0.276 OA
ATOM      5  N   UNL     1       1.610  -0.267  23.415  0.00  0.00    -0.315 N 
ATOM     20  C   UNL     1       2.451   0.057  22.354  0.00  0.00    +0.214 C 
ATOM     35  H   UNL     1       1.850   0.072  24.343  0.00  0.00    +0.149 HD
BRANCH  20  22
ATOM     22  C   UNL     1       3.692   0.832  22.774  0.00  0.00    +0.102 C 
BRANCH  22  21
ATOM     21  C   UNL     1       4.858  -0.043  23.301  0.00  0.00    -0.017 C 
ATOM     24  C   UNL     1       5.526   0.627  24.520  0.00  0.00    +0.012 C 
ATOM     25  C   UNL     1       4.265  -1.385  23.779  0.00  0.00    +0.012 C 
BRANCH  21  23
ATOM     23  C   UNL     1       5.951  -0.292  22.235  0.00  0.00    +0.127 C 
BRANCH  23  29
ATOM      4  O   UNL     1       7.779  -0.015  23.798  0.00  0.00    -0.251 OA
ATOM     29  C   UNL     1       7.334  -0.550  22.791  0.00  0.00    +0.305 C 
BRANCH  29   3
ATOM      3  O   UNL     1       8.042  -1.437  22.050  0.00  0.00    -0.481 OA
ATOM     36  H   UNL     1       7.937  -1.284  21.087  0.00  0.00    +0.295 HD
ENDBRANCH  29   3
ENDBRANCH  23  29
ENDBRANCH  21  23
ENDBRANCH  22  21
ENDBRANCH  20  22
ENDBRANCH  14   5
ENDBRANCH   8  14
BRANCH  10  15
ATOM     15  C   UNL     1      -4.295  -0.235  24.186  0.00  0.00    +0.103 C 
BRANCH  15  19
ATOM      1  O   UNL     1      -3.624   1.913  23.361  0.00  0.00    -0.276 OA
ATOM      6  N   UNL     1      -5.264   1.887  25.000  0.00  0.00    -0.300 N 
ATOM     19  C   UNL     1      -4.350   1.280  24.132  0.00  0.00    +0.216 C 
ATOM     27  C   UNL     1      -6.113   1.119  25.902  0.00  0.00    +0.132 C 
BRANCH   6  26
ATOM     26  C   UNL     1      -5.437   3.337  25.067  0.00  0.00    +0.142 C 
BRANCH  26  28
ATOM     28  C   UNL     1      -4.122   4.058  25.123  0.00  0.00    -0.030 A 
ATOM     30  C   UNL     1      -3.703   4.832  24.041  0.00  0.00    +0.005 A 
ATOM     31  C   UNL     1      -3.318   3.952  26.259  0.00  0.00    +0.005 A 
ATOM     32  C   UNL     1      -2.480   5.501  24.095  0.00  0.00    +0.000 A 
ATOM     33  C   UNL     1      -2.095   4.622  26.312  0.00  0.00    +0.000 A 
ATOM     34  C   UNL     1      -1.677   5.396  25.229  0.00  0.00    +0.000 A 
ENDBRANCH  26  28
ENDBRANCH   6  26
ENDBRANCH  15  19
ENDBRANCH  10  15
TORSDOF 12
ENDMDL
MODEL 5
REMARK VINA RESULT:       0.4      1.894      7.552
REMARK  Name = 38027239
REMARK  18 active torsions:
REMARK  status: ('A' for Active; 'I' for Inactive)
REMARK    1  A    between atoms: O_3  and  C_29
REMARK    2  A    between atoms: N_5  and  C_14
REMARK    3  A    between atoms: N_6  and  C_26
REMARK    4  A    between atoms: N_6  and  C_27
REMARK    5  A    between atoms: C_7  and  C_11
REMARK    6  A    between atoms: C_8  and  C_14
REMARK    7  A    between atoms: C_10  and  C_15
REMARK    8  A    between atoms: C_11  and  C_16
REMARK    9  A    between atoms: C_11  and  C_17
REMARK   10  A    between atoms: C_12  and  C_18
REMARK   11  A    between atoms: C_15  and  C_19
REMARK   12  A    between atoms: C_20  and  C_22
REMARK   13  A    between atoms: C_21  and  C_22
REMARK   14  A    between atoms: C_21  and  C_23
REMARK   15  A    between atoms: C_21  and  C_24
REMARK   16  A    between atoms: C_21  and  C_25
REMARK   17  A    between atoms: C_23  and  C_29
REMARK   18  A    between atoms: C_26  and  C_28
REMARK                            x       y       z     vdW  Elec       q    Type
REMARK                         _______ _______ _______ _____ _____    ______ ____
ROOT
ATOM      7  C   UNL     1      -1.426   0.396  24.523  0.00  0.00    +0.000 C 
ATOM      8  C   UNL     1      -0.722  -0.965  24.302  0.00  0.00    +0.032 C 
ATOM      9  C   UNL     1      -2.361   0.326  25.740  0.00  0.00    +0.012 C 
ATOM     10  C   UNL     1      -3.440  -0.762  25.585  0.00  0.00    +0.023 C 
ATOM     12  C   UNL     1      -2.852  -2.074  25.107  0.00  0.00    -0.073 C 
ATOM     13  C   UNL     1      -1.631  -2.148  24.548  0.00  0.00    -0.022 C 
ATOM     18  C   UNL     1      -3.682  -3.308  25.326  0.00  0.00    +0.039 C 
ENDROOT
BRANCH   7  11
ATOM     11  C   UNL     1      -0.418   1.534  24.707  0.00  0.00    -0.013 C 
ATOM     16  C   UNL     1      -0.737   2.686  23.759  0.00  0.00    +0.007 C 
ATOM     17  C   UNL     1      -0.414   2.012  26.156  0.00  0.00    +0.007 C 
ENDBRANCH   7  11
BRANCH   8  14
ATOM     14  C   UNL     1      -0.131  -1.060  22.891  0.00  0.00    +0.112 C 
BRANCH  14   5
ATOM      2  O   UNL     1       1.512  -0.385  20.626  0.00  0.00    -0.276 OA
ATOM      5  N   UNL     1       1.267  -0.763  22.904  0.00  0.00    -0.315 N 
ATOM     20  C   UNL     1       1.989  -0.445  21.757  0.00  0.00    +0.214 C 
ATOM     35  H   UNL     1       1.745  -0.729  23.801  0.00  0.00    +0.149 HD
BRANCH  20  22
ATOM     22  C   UNL     1       3.461  -0.164  22.021  0.00  0.00    +0.102 C 
BRANCH  22  21
ATOM     21  C   UNL     1       3.736   1.061  22.930  0.00  0.00    -0.017 C 
ATOM     24  C   UNL     1       4.149   2.281  22.078  0.00  0.00    +0.012 C 
ATOM     25  C   UNL     1       2.419   1.425  23.648  0.00  0.00    +0.012 C 
BRANCH  21  23
ATOM     23  C   UNL     1       4.855   0.801  23.966  0.00  0.00    +0.127 C 
BRANCH  23  29
ATOM      4  O   UNL     1       6.695  -0.523  23.115  0.00  0.00    -0.251 OA
ATOM     29  C   UNL     1       5.645  -0.469  23.741  0.00  0.00    +0.305 C 
BRANCH  29   3
ATOM      3  O   UNL     1       5.062  -1.558  24.303  0.00  0.00    -0.481 OA
ATOM     36  H   UNL     1       5.596  -2.371  24.176  0.00  0.00    +0.295 HD
ENDBRANCH  29   3
ENDBRANCH  23  29
ENDBRANCH  21  23
ENDBRANCH  22  21
ENDBRANCH  20  22
ENDBRANCH  14   5
ENDBRANCH   8  14
BRANCH  10  15
ATOM     15  C   UNL     1      -4.565  -0.294  24.657  0.00  0.00    +0.103 C 
BRANCH  15  19
ATOM      1  O   UNL     1      -3.901   1.760  23.615  0.00  0.00    -0.276 OA
ATOM      6  N   UNL     1      -5.406   1.917  25.372  0.00  0.00    -0.300 N 
ATOM     19  C   UNL     1      -4.581   1.213  24.487  0.00  0.00    +0.216 C 
ATOM     27  C   UNL     1      -6.203   1.249  26.394  0.00  0.00    +0.132 C 
BRANCH   6  26
ATOM     26  C   UNL     1      -5.532   3.372  25.337  0.00  0.00    +0.142 C 
BRANCH  26  28
ATOM     28  C   UNL     1      -4.194   4.051  25.298  0.00  0.00    -0.030 A 
ATOM     30  C   UNL     1      -3.323   3.942  26.382  0.00  0.00    +0.005 A 
ATOM     31  C   UNL     1      -3.821   4.792  24.176  0.00  0.00    +0.005 A 
ATOM     32  C   UNL     1      -2.080   4.573  26.344  0.00  0.00    +0.000 A 
ATOM     33  C   UNL     1      -2.578   5.423  24.138  0.00  0.00    +0.000 A 
ATOM     34  C   UNL     1      -1.707   5.313  25.224  0.00  0.00    +0.000 A 
ENDBRANCH  26  28
ENDBRANCH   6  26
ENDBRANCH  15  19
ENDBRANCH  10  15
TORSDOF 12
ENDMDL
MODEL 6
REMARK VINA RESULT:       1.1      1.912      6.904
REMARK  Name = 38027239
REMARK  18 active torsions:
REMARK  status: ('A' for Active; 'I' for Inactive)
REMARK    1  A    between atoms: O_3  and  C_29
REMARK    2  A    between atoms: N_5  and  C_14
REMARK    3  A    between atoms: N_6  and  C_26
REMARK    4  A    between atoms: N_6  and  C_27
REMARK    5  A    between atoms: C_7  and  C_11
REMARK    6  A    between atoms: C_8  and  C_14
REMARK    7  A    between atoms: C_10  and  C_15
REMARK    8  A    between atoms: C_11  and  C_16
REMARK    9  A    between atoms: C_11  and  C_17
REMARK   10  A    between atoms: C_12  and  C_18
REMARK   11  A    between atoms: C_15  and  C_19
REMARK   12  A    between atoms: C_20  and  C_22
REMARK   13  A    between atoms: C_21  and  C_22
REMARK   14  A    between atoms: C_21  and  C_23
REMARK   15  A    between atoms: C_21  and  C_24
REMARK   16  A    between atoms: C_21  and  C_25
REMARK   17  A    between atoms: C_23  and  C_29
REMARK   18  A    between atoms: C_26  and  C_28
REMARK                            x       y       z     vdW  Elec       q    Type
REMARK                         _______ _______ _______ _____ _____    ______ ____
ROOT
ATOM      7  C   UNL     1      -1.741  -0.664  25.154  0.00  0.00    +0.000 C 
ATOM      8  C   UNL     1      -1.265  -2.043  24.634  0.00  0.00    +0.032 C 
ATOM      9  C   UNL     1      -3.059  -0.808  25.930  0.00  0.00    +0.012 C 
ATOM     10  C   UNL     1      -4.180  -1.418  25.067  0.00  0.00    +0.023 C 
ATOM     12  C   UNL     1      -3.704  -2.640  24.307  0.00  0.00    -0.073 C 
ATOM     13  C   UNL     1      -2.399  -2.910  24.135  0.00  0.00    -0.022 C 
ATOM     18  C   UNL     1      -4.765  -3.569  23.788  0.00  0.00    +0.039 C 
ENDROOT
BRANCH   7  11
ATOM     11  C   UNL     1      -0.687   0.004  26.041  0.00  0.00    -0.013 C 
ATOM     16  C   UNL     1      -0.964   1.500  26.163  0.00  0.00    +0.007 C 
ATOM     17  C   UNL     1      -0.655  -0.654  27.417  0.00  0.00    +0.007 C 
ENDBRANCH   7  11
BRANCH   8  14
ATOM     14  C   UNL     1      -0.217  -1.885  23.526  0.00  0.00    +0.112 C 
BRANCH  14   5
ATOM      2  O   UNL     1       1.173  -0.272  21.590  0.00  0.00    -0.276 OA
ATOM      5  N   UNL     1       0.642  -0.774  23.794  0.00  0.00    -0.315 N 
ATOM     20  C   UNL     1       1.278  -0.045  22.793  0.00  0.00    +0.214 C 
ATOM     35  H   UNL     1       0.749  -0.468  24.757  0.00  0.00    +0.149 HD
BRANCH  20  22
ATOM     22  C   UNL     1       2.138   1.094  23.321  0.00  0.00    +0.102 C 
BRANCH  22  21
ATOM     21  C   UNL     1       3.616   1.062  22.857  0.00  0.00    -0.017 C 
ATOM     24  C   UNL     1       3.798   0.047  21.708  0.00  0.00    +0.012 C 
ATOM     25  C   UNL     1       3.969   2.457  22.300  0.00  0.00    +0.012 C 
BRANCH  21  23
ATOM     23  C   UNL     1       4.594   0.678  23.993  0.00  0.00    +0.127 C 
BRANCH  23  29
ATOM      4  O   UNL     1       6.511  -0.500  23.098  0.00  0.00    -0.251 OA
ATOM     29  C   UNL     1       5.451  -0.536  23.708  0.00  0.00    +0.305 C 
BRANCH  29   3
ATOM      3  O   UNL     1       4.918  -1.683  24.196  0.00  0.00    -0.481 OA
ATOM     36  H   UNL     1       3.937  -1.670  24.183  0.00  0.00    +0.295 HD
ENDBRANCH  29   3
ENDBRANCH  23  29
ENDBRANCH  21  23
ENDBRANCH  22  21
ENDBRANCH  20  22
ENDBRANCH  14   5
ENDBRANCH   8  14
BRANCH  10  15
ATOM     15  C   UNL     1      -4.772  -0.375  24.113  0.00  0.00    +0.103 C 
BRANCH  15  19
ATOM      1  O   UNL     1      -5.531   1.196  25.757  0.00  0.00    -0.276 OA
ATOM      6  N   UNL     1      -4.114   2.007  24.110  0.00  0.00    -0.300 N 
ATOM     19  C   UNL     1      -4.852   1.002  24.746  0.00  0.00    +0.216 C 
ATOM     27  C   UNL     1      -3.317   1.754  22.916  0.00  0.00    +0.132 C 
BRANCH   6  26
ATOM     26  C   UNL     1      -4.087   3.385  24.595  0.00  0.00    +0.142 C 
BRANCH  26  28
ATOM     28  C   UNL     1      -2.699   3.958  24.582  0.00  0.00    -0.030 A 
ATOM     30  C   UNL     1      -2.457   5.215  25.137  0.00  0.00    +0.005 A 
ATOM     31  C   UNL     1      -1.652   3.233  24.013  0.00  0.00    +0.005 A 
ATOM     32  C   UNL     1      -1.167   5.746  25.123  0.00  0.00    +0.000 A 
ATOM     33  C   UNL     1      -0.362   3.764  24.000  0.00  0.00    +0.000 A 
ATOM     34  C   UNL     1      -0.121   5.022  24.555  0.00  0.00    +0.000 A 
ENDBRANCH  26  28
ENDBRANCH   6  26
ENDBRANCH  15  19
ENDBRANCH  10  15
TORSDOF 12
ENDMDL
MODEL 7
REMARK VINA RESULT:       1.4      2.015      4.723
REMARK  Name = 38027239
REMARK  18 active torsions:
REMARK  status: ('A' for Active; 'I' for Inactive)
REMARK    1  A    between atoms: O_3  and  C_29
REMARK    2  A    between atoms: N_5  and  C_14
REMARK    3  A    between atoms: N_6  and  C_26
REMARK    4  A    between atoms: N_6  and  C_27
REMARK    5  A    between atoms: C_7  and  C_11
REMARK    6  A    between atoms: C_8  and  C_14
REMARK    7  A    between atoms: C_10  and  C_15
REMARK    8  A    between atoms: C_11  and  C_16
REMARK    9  A    between atoms: C_11  and  C_17
REMARK   10  A    between atoms: C_12  and  C_18
REMARK   11  A    between atoms: C_15  and  C_19
REMARK   12  A    between atoms: C_20  and  C_22
REMARK   13  A    between atoms: C_21  and  C_22
REMARK   14  A    between atoms: C_21  and  C_23
REMARK   15  A    between atoms: C_21  and  C_24
REMARK   16  A    between atoms: C_21  and  C_25
REMARK   17  A    between atoms: C_23  and  C_29
REMARK   18  A    between atoms: C_26  and  C_28
REMARK                            x       y       z     vdW  Elec       q    Type
REMARK                         _______ _______ _______ _____ _____    ______ ____
ROOT
ATOM      7  C   UNL     1      -3.592   3.231  25.633  0.00  0.00    +0.000 C 
ATOM      8  C   UNL     1      -3.542   4.241  24.459  0.00  0.00    +0.032 C 
ATOM      9  C   UNL     1      -2.499   3.553  26.664  0.00  0.00    +0.012 C 
ATOM     10  C   UNL     1      -1.087   3.518  26.048  0.00  0.00    +0.023 C 
ATOM     12  C   UNL     1      -1.026   4.275  24.737  0.00  0.00    -0.073 C 
ATOM     13  C   UNL     1      -2.133   4.601  24.048  0.00  0.00    -0.022 C 
ATOM     18  C   UNL     1       0.338   4.689  24.258  0.00  0.00    +0.039 C 
ENDROOT
BRANCH   7  11
ATOM     11  C   UNL     1      -4.963   3.220  26.316  0.00  0.00    -0.013 C 
ATOM     16  C   UNL     1      -5.836   4.349  25.774  0.00  0.00    +0.007 C 
ATOM     17  C   UNL     1      -5.643   1.869  26.121  0.00  0.00    +0.007 C 
ENDBRANCH   7  11
BRANCH   8  14
ATOM     14  C   UNL     1      -4.310   3.712  23.242  0.00  0.00    +0.112 C 
BRANCH  14   5
ATOM      2  O   UNL     1      -2.096   2.117  22.327  0.00  0.00    -0.276 OA
ATOM      5  N   UNL     1      -4.248   2.284  23.183  0.00  0.00    -0.315 N 
ATOM     20  C   UNL     1      -3.132   1.590  22.724  0.00  0.00    +0.214 C 
ATOM     35  H   UNL     1      -5.034   1.751  23.545  0.00  0.00    +0.149 HD
BRANCH  20  22
ATOM     22  C   UNL     1      -3.299   0.078  22.759  0.00  0.00    +0.102 C 
BRANCH  22  21
ATOM     21  C   UNL     1      -3.994  -0.471  24.031  0.00  0.00    -0.017 C 
ATOM     24  C   UNL     1      -3.146  -0.162  25.284  0.00  0.00    +0.012 C 
ATOM     25  C   UNL     1      -5.340   0.265  24.191  0.00  0.00    +0.012 C 
BRANCH  21  23
ATOM     23  C   UNL     1      -4.225  -2.000  23.977  0.00  0.00    +0.127 C 
BRANCH  23  29
ATOM      4  O   UNL     1      -3.291  -3.181  25.873  0.00  0.00    -0.251 OA
ATOM     29  C   UNL     1      -3.188  -2.825  24.707  0.00  0.00    +0.305 C 
BRANCH  29   3
ATOM      3  O   UNL     1      -2.116  -3.127  23.934  0.00  0.00    -0.481 OA
ATOM     36  H   UNL     1      -1.808  -4.049  24.070  0.00  0.00    +0.295 HD
ENDBRANCH  29   3
ENDBRANCH  23  29
ENDBRANCH  21  23
ENDBRANCH  22  21
ENDBRANCH  20  22
ENDBRANCH  14   5
ENDBRANCH   8  14
BRANCH  10  15
ATOM     15  C   UNL     1      -0.599   2.076  25.873  0.00  0.00    +0.103 C 
BRANCH  15  19
ATOM      1  O   UNL     1       0.644   2.841  23.971  0.00  0.00    -0.276 OA
ATOM      6  N   UNL     1       0.261   0.559  24.123  0.00  0.00    -0.300 N 
ATOM     19  C   UNL     1       0.159   1.879  24.573  0.00  0.00    +0.216 C 
ATOM     27  C   UNL     1      -0.321  -0.563  24.851  0.00  0.00    +0.132 C 
BRANCH   6  26
ATOM     26  C   UNL     1       0.959   0.203  22.889  0.00  0.00    +0.142 C 
BRANCH  26  28
ATOM     28  C   UNL     1       2.435   0.034  23.107  0.00  0.00    -0.030 A 
ATOM     30  C   UNL     1       2.935  -1.172  23.597  0.00  0.00    +0.005 A 
ATOM     31  C   UNL     1       3.306   1.085  22.820  0.00  0.00    +0.005 A 
ATOM     32  C   UNL     1       4.306  -1.328  23.800  0.00  0.00    +0.000 A 
ATOM     33  C   UNL     1       4.677   0.929  23.022  0.00  0.00    +0.000 A 
ATOM     34  C   UNL     1       5.177  -0.278  23.513  0.00  0.00    +0.000 A 
ENDBRANCH  26  28
ENDBRANCH   6  26
ENDBRANCH  15  19
ENDBRANCH  10  15
TORSDOF 12
ENDMDL
