MODEL 1
REMARK VINA RESULT:      18.0      0.000      0.000
REMARK  Name = 11884399
REMARK  5 active torsions:
REMARK  status: ('A' for Active; 'I' for Inactive)
REMARK    1  A    between atoms: N_7  and  C_18
REMARK    2  A    between atoms: N_8  and  C_25
REMARK    3  A    between atoms: N_9  and  C_29
REMARK    4  A    between atoms: C_34  and  C_35
REMARK    5  A    between atoms: C_35  and  C_36
REMARK                            x       y       z     vdW  Elec       q    Type
REMARK                         _______ _______ _______ _____ _____    ______ ____
ROOT
ATOM      1  O   UNL     1      -4.628  -0.905  23.829  0.00  0.00    -0.253 OA
ATOM      2  O   UNL     1      -0.642   3.092  25.994  0.00  0.00    -0.266 OA
ATOM      5  N   UNL     1      -5.130   0.909  25.190  0.00  0.00    -0.285 N 
ATOM      6  N   UNL     1      -2.800   3.137  25.101  0.00  0.00    -0.310 N 
ATOM      7  N   UNL     1      -4.230  -1.090  26.080  0.00  0.00    -0.296 N 
ATOM     10  C   UNL     1      -4.904   3.009  26.550  0.00  0.00    +0.027 C 
ATOM     11  C   UNL     1      -5.116   3.160  24.110  0.00  0.00    +0.054 C 
ATOM     12  C   UNL     1      -5.566   3.790  25.424  0.00  0.00    +0.018 C 
ATOM     13  C   UNL     1      -5.314   1.524  26.513  0.00  0.00    +0.114 C 
ATOM     14  C   UNL     1      -5.607   1.704  24.052  0.00  0.00    +0.119 C 
ATOM     15  C   UNL     1      -3.383   3.185  26.447  0.00  0.00    +0.130 C 
ATOM     16  C   UNL     1      -3.607   3.204  23.961  0.00  0.00    +0.027 A 
ATOM     17  C   UNL     1      -4.659  -0.397  24.954  0.00  0.00    +0.302 C 
ATOM     19  C   UNL     1      -3.049   3.278  22.741  0.00  0.00    +0.024 A 
ATOM     20  C   UNL     1      -1.393   3.130  25.019  0.00  0.00    +0.273 A 
ATOM     25  C   UNL     1      -0.810   3.188  23.641  0.00  0.00    +0.100 A 
ATOM     27  C   UNL     1      -1.622   3.268  22.581  0.00  0.00    +0.030 A 
ATOM     37  H   UNL     1      -4.135  -0.626  26.971  0.00  0.00    +0.151 HD
ENDROOT
BRANCH  25   8
ATOM      3  O   UNL     1       0.818   0.867  23.419  0.00  0.00    -0.252 OA
ATOM      8  N   UNL     1       0.548   3.169  23.519  0.00  0.00    -0.265 N 
ATOM      9  N   UNL     1       2.666   2.310  23.302  0.00  0.00    -0.269 N 
ATOM     28  C   UNL     1       1.306   1.995  23.412  0.00  0.00    +0.308 C 
ATOM     38  H   UNL     1       1.044   4.022  23.761  0.00  0.00    +0.157 HD
ATOM     39  H   UNL     1       2.906   3.298  23.309  0.00  0.00    +0.156 HD
BRANCH   9  29
ATOM     29  C   UNL     1       3.756   1.419  23.175  0.00  0.00    +0.035 A 
ATOM     30  C   UNL     1       4.665   1.275  24.224  0.00  0.00    +0.024 A 
ATOM     31  C   UNL     1       3.925   0.685  22.002  0.00  0.00    +0.024 A 
ATOM     32  C   UNL     1       5.741   0.398  24.099  0.00  0.00    +0.013 A 
ATOM     33  C   UNL     1       5.001  -0.194  21.877  0.00  0.00    +0.013 A 
ATOM     34  C   UNL     1       5.910  -0.338  22.926  0.00  0.00    +0.017 A 
BRANCH  34  35
ATOM      4  O   UNL     1       6.857  -2.479  22.642  0.00  0.00    -0.292 OA
ATOM     35  C   UNL     1       7.032  -1.253  22.796  0.00  0.00    +0.160 C 
ATOM     36  C   UNL     1       8.462  -0.728  22.848  0.00  0.00    +0.091 C 
ENDBRANCH  34  35
ENDBRANCH   9  29
ENDBRANCH  25   8
BRANCH   7  18
ATOM     18  C   UNL     1      -3.725  -2.443  26.006  0.00  0.00    +0.074 C 
ATOM     21  C   UNL     1      -2.298  -2.530  26.557  0.00  0.00    +0.022 C 
ATOM     22  C   UNL     1      -3.801  -2.981  24.573  0.00  0.00    +0.022 C 
ATOM     23  C   UNL     1      -1.271  -1.879  25.629  0.00  0.00    +0.002 C 
ATOM     24  C   UNL     1      -2.772  -2.329  23.649  0.00  0.00    +0.002 C 
ATOM     26  C   UNL     1      -1.359  -2.438  24.213  0.00  0.00    +0.000 C 
ENDBRANCH   7  18
TORSDOF 4
ENDMDL
MODEL 2
REMARK VINA RESULT:      19.2      2.114      4.684
REMARK  Name = 11884399
REMARK  5 active torsions:
REMARK  status: ('A' for Active; 'I' for Inactive)
REMARK    1  A    between atoms: N_7  and  C_18
REMARK    2  A    between atoms: N_8  and  C_25
REMARK    3  A    between atoms: N_9  and  C_29
REMARK    4  A    between atoms: C_34  and  C_35
REMARK    5  A    between atoms: C_35  and  C_36
REMARK                            x       y       z     vdW  Elec       q    Type
REMARK                         _______ _______ _______ _____ _____    ______ ____
ROOT
ATOM      1  O   UNL     1      -3.403   3.789  27.443  0.00  0.00    -0.253 OA
ATOM      2  O   UNL     1      -2.474   0.428  22.504  0.00  0.00    -0.266 OA
ATOM      5  N   UNL     1      -5.022   3.185  25.890  0.00  0.00    -0.285 N 
ATOM      6  N   UNL     1      -4.105   0.619  24.164  0.00  0.00    -0.310 N 
ATOM      7  N   UNL     1      -3.510   4.955  25.471  0.00  0.00    -0.296 N 
ATOM     10  C   UNL     1      -6.162   2.120  23.921  0.00  0.00    +0.027 C 
ATOM     11  C   UNL     1      -5.838   0.827  25.981  0.00  0.00    +0.054 C 
ATOM     12  C   UNL     1      -6.832   1.131  24.864  0.00  0.00    +0.018 C 
ATOM     13  C   UNL     1      -5.785   3.421  24.655  0.00  0.00    +0.114 C 
ATOM     14  C   UNL     1      -5.538   2.119  26.758  0.00  0.00    +0.119 C 
ATOM     15  C   UNL     1      -4.939   1.447  23.285  0.00  0.00    +0.130 C 
ATOM     16  C   UNL     1      -4.550   0.241  25.434  0.00  0.00    +0.027 A 
ATOM     17  C   UNL     1      -3.940   3.963  26.344  0.00  0.00    +0.302 C 
ATOM     19  C   UNL     1      -3.827  -0.614  26.177  0.00  0.00    +0.024 A 
ATOM     20  C   UNL     1      -2.895   0.139  23.624  0.00  0.00    +0.273 A 
ATOM     25  C   UNL     1      -2.106  -0.791  24.492  0.00  0.00    +0.100 A 
ATOM     27  C   UNL     1      -2.580  -1.137  25.694  0.00  0.00    +0.030 A 
ATOM     37  H   UNL     1      -3.863   5.006  24.527  0.00  0.00    +0.151 HD
ENDROOT
BRANCH  25   8
ATOM      3  O   UNL     1       0.414   0.515  24.664  0.00  0.00    -0.252 OA
ATOM      8  N   UNL     1      -0.921  -1.265  24.011  0.00  0.00    -0.265 N 
ATOM      9  N   UNL     1       1.322  -1.329  23.531  0.00  0.00    -0.269 N 
ATOM     28  C   UNL     1       0.296  -0.581  24.122  0.00  0.00    +0.308 C 
ATOM     38  H   UNL     1      -0.969  -2.023  23.336  0.00  0.00    +0.157 HD
ATOM     39  H   UNL     1       1.058  -2.223  23.126  0.00  0.00    +0.156 HD
BRANCH   9  29
ATOM     29  C   UNL     1       2.693  -0.995  23.430  0.00  0.00    +0.035 A 
ATOM     30  C   UNL     1       3.658  -1.844  23.971  0.00  0.00    +0.024 A 
ATOM     31  C   UNL     1       3.079   0.183  22.792  0.00  0.00    +0.024 A 
ATOM     32  C   UNL     1       5.010  -1.515  23.874  0.00  0.00    +0.013 A 
ATOM     33  C   UNL     1       4.430   0.512  22.693  0.00  0.00    +0.013 A 
ATOM     34  C   UNL     1       5.397  -0.337  23.234  0.00  0.00    +0.017 A 
BRANCH  34  35
ATOM      4  O   UNL     1       7.583  -0.644  22.403  0.00  0.00    -0.292 OA
ATOM     35  C   UNL     1       6.806   0.006  23.131  0.00  0.00    +0.160 C 
ATOM     36  C   UNL     1       7.371   1.181  23.922  0.00  0.00    +0.091 C 
ENDBRANCH  34  35
ENDBRANCH   9  29
ENDBRANCH  25   8
BRANCH   7  18
ATOM     18  C   UNL     1      -2.414   5.844  25.792  0.00  0.00    +0.074 C 
ATOM     21  C   UNL     1      -2.087   6.765  24.613  0.00  0.00    +0.022 C 
ATOM     22  C   UNL     1      -1.180   5.054  26.240  0.00  0.00    +0.022 C 
ATOM     23  C   UNL     1      -1.413   6.022  23.459  0.00  0.00    +0.002 C 
ATOM     24  C   UNL     1      -0.508   4.314  25.084  0.00  0.00    +0.002 C 
ATOM     26  C   UNL     1      -0.182   5.253  23.927  0.00  0.00    +0.000 C 
ENDBRANCH   7  18
TORSDOF 4
ENDMDL
