MODEL 1
REMARK VINA RESULT:      -5.7      0.000      0.000
REMARK  Name = 75536640
REMARK  7 active torsions:
REMARK  status: ('A' for Active; 'I' for Inactive)
REMARK    1  A    between atoms: O_4  and  C_9
REMARK    2  A    between atoms: N_6  and  C_8
REMARK    3  A    between atoms: N_6  and  C_13
REMARK    4  A    between atoms: N_7  and  C_12
REMARK    5  A    between atoms: C_10  and  C_12
REMARK    6  A    between atoms: C_13  and  C_14
REMARK    7  A    between atoms: C_15  and  C_18
REMARK                            x       y       z     vdW  Elec       q    Type
REMARK                         _______ _______ _______ _____ _____    ______ ____
ROOT
ATOM      3  O   UNL     1      -2.181  -3.061  23.642  0.00  0.00    -0.371 OA
ATOM      8  C   UNL     1      -0.944  -1.908  25.309  0.00  0.00    +0.111 C 
ATOM      9  C   UNL     1      -2.379  -1.417  25.331  0.00  0.00    +0.164 C 
ATOM     10  C   UNL     1      -3.094  -2.569  24.637  0.00  0.00    +0.165 C 
ATOM     11  C   UNL     1      -0.867  -2.554  23.936  0.00  0.00    +0.181 C 
ENDROOT
BRANCH   9   4
ATOM      4  O   UNL     1      -2.866  -1.208  26.642  0.00  0.00    -0.388 OA
ATOM     28  H   UNL     1      -2.221  -1.576  27.270  0.00  0.00    +0.210 HD
ENDBRANCH   9   4
BRANCH   8   6
ATOM      6  N   UNL     1       0.038  -0.851  25.492  0.00  0.00    -0.305 NA
ATOM     27  H   UNL     1       0.953  -1.272  25.657  0.00  0.00    +0.123 HD
BRANCH   6  13
ATOM     13  C   UNL     1       0.116   0.004  24.313  0.00  0.00    +0.116 C 
BRANCH  13  14
ATOM      1  F   UNL     1      -1.306   5.329  25.485  0.00  0.00    -0.205 F 
ATOM     14  C   UNL     1      -0.264   1.426  24.626  0.00  0.00    -0.033 A 
ATOM     16  C   UNL     1      -0.148   2.411  23.645  0.00  0.00    +0.008 A 
ATOM     17  C   UNL     1      -0.731   1.760  25.897  0.00  0.00    +0.008 A 
ATOM     19  C   UNL     1      -0.499   3.729  23.936  0.00  0.00    +0.038 A 
ATOM     20  C   UNL     1      -1.083   3.079  26.187  0.00  0.00    +0.038 A 
ATOM     21  C   UNL     1      -0.967   4.064  25.206  0.00  0.00    +0.123 A 
ENDBRANCH  13  14
ENDBRANCH   6  13
ENDBRANCH   8   6
BRANCH  10  12
ATOM     12  C   UNL     1      -4.398  -2.158  23.980  0.00  0.00    +0.138 C 
BRANCH  12   7
ATOM      5  O   UNL     1      -3.225   0.305  23.086  0.00  0.00    -0.270 OA
ATOM      7  N   UNL     1      -4.786  -0.833  24.371  0.00  0.00    -0.309 N 
ATOM     15  C   UNL     1      -4.158   0.310  23.886  0.00  0.00    +0.244 C 
ATOM     29  H   UNL     1      -5.505  -0.761  25.083  0.00  0.00    +0.149 HD
BRANCH  15  18
ATOM      2  F   UNL     1      -6.053   5.211  25.861  0.00  0.00    -0.205 F 
ATOM     18  C   UNL     1      -4.659   1.607  24.409  0.00  0.00    +0.037 A 
ATOM     22  C   UNL     1      -4.070   2.801  23.993  0.00  0.00    +0.016 A 
ATOM     23  C   UNL     1      -5.718   1.631  25.316  0.00  0.00    +0.016 A 
ATOM     24  C   UNL     1      -4.540   4.019  24.483  0.00  0.00    +0.039 A 
ATOM     25  C   UNL     1      -6.189   2.848  25.807  0.00  0.00    +0.039 A 
ATOM     26  C   UNL     1      -5.600   4.042  25.391  0.00  0.00    +0.123 A 
ENDBRANCH  15  18
ENDBRANCH  12   7
ENDBRANCH  10  12
TORSDOF 7
ENDMDL
MODEL 2
REMARK VINA RESULT:      -4.9      3.000      3.700
REMARK  Name = 75536640
REMARK  7 active torsions:
REMARK  status: ('A' for Active; 'I' for Inactive)
REMARK    1  A    between atoms: O_4  and  C_9
REMARK    2  A    between atoms: N_6  and  C_8
REMARK    3  A    between atoms: N_6  and  C_13
REMARK    4  A    between atoms: N_7  and  C_12
REMARK    5  A    between atoms: C_10  and  C_12
REMARK    6  A    between atoms: C_13  and  C_14
REMARK    7  A    between atoms: C_15  and  C_18
REMARK                            x       y       z     vdW  Elec       q    Type
REMARK                         _______ _______ _______ _____ _____    ______ ____
ROOT
ATOM      3  O   UNL     1      -1.732  -2.721  23.948  0.00  0.00    -0.371 OA
ATOM      8  C   UNL     1      -0.104  -1.059  24.427  0.00  0.00    +0.111 C 
ATOM      9  C   UNL     1      -1.297  -0.860  25.343  0.00  0.00    +0.164 C 
ATOM     10  C   UNL     1      -1.943  -2.238  25.285  0.00  0.00    +0.165 C 
ATOM     11  C   UNL     1      -0.706  -1.923  23.330  0.00  0.00    +0.181 C 
ENDROOT
BRANCH   9   4
ATOM      4  O   UNL     1      -0.922  -0.508  26.660  0.00  0.00    -0.388 OA
ATOM     28  H   UNL     1      -0.934  -1.312  27.207  0.00  0.00    +0.210 HD
ENDBRANCH   9   4
BRANCH   8   6
ATOM      6  N   UNL     1       0.458   0.184  23.922  0.00  0.00    -0.305 NA
ATOM     27  H   UNL     1       1.063   0.589  24.637  0.00  0.00    +0.123 HD
BRANCH   6  13
ATOM     13  C   UNL     1       1.241  -0.046  22.714  0.00  0.00    +0.116 C 
BRANCH  13  14
ATOM      1  F   UNL     1       6.772  -0.149  23.788  0.00  0.00    -0.205 F 
ATOM     14  C   UNL     1       2.718  -0.073  23.001  0.00  0.00    -0.033 A 
ATOM     16  C   UNL     1       3.303  -1.220  23.537  0.00  0.00    +0.008 A 
ATOM     17  C   UNL     1       3.503   1.048  22.731  0.00  0.00    +0.008 A 
ATOM     19  C   UNL     1       4.672  -1.246  23.803  0.00  0.00    +0.038 A 
ATOM     20  C   UNL     1       4.872   1.023  22.997  0.00  0.00    +0.038 A 
ATOM     21  C   UNL     1       5.457  -0.125  23.534  0.00  0.00    +0.123 A 
ENDBRANCH  13  14
ENDBRANCH   6  13
ENDBRANCH   8   6
BRANCH  10  12
ATOM     12  C   UNL     1      -3.429  -2.218  25.596  0.00  0.00    +0.138 C 
BRANCH  12   7
ATOM      5  O   UNL     1      -4.006  -0.423  23.430  0.00  0.00    -0.270 OA
ATOM      7  N   UNL     1      -3.922  -0.875  25.705  0.00  0.00    -0.309 N 
ATOM     15  C   UNL     1      -4.174  -0.073  24.595  0.00  0.00    +0.244 C 
ATOM     29  H   UNL     1      -4.015  -0.500  26.642  0.00  0.00    +0.149 HD
BRANCH  15  18
ATOM      2  F   UNL     1      -5.998   5.129  25.657  0.00  0.00    -0.205 F 
ATOM     18  C   UNL     1      -4.656   1.304  24.877  0.00  0.00    +0.037 A 
ATOM     22  C   UNL     1      -3.967   2.402  24.363  0.00  0.00    +0.016 A 
ATOM     23  C   UNL     1      -5.798   1.498  25.654  0.00  0.00    +0.016 A 
ATOM     24  C   UNL     1      -4.420   3.695  24.627  0.00  0.00    +0.039 A 
ATOM     25  C   UNL     1      -6.251   2.789  25.918  0.00  0.00    +0.039 A 
ATOM     26  C   UNL     1      -5.562   3.888  25.405  0.00  0.00    +0.123 A 
ENDBRANCH  15  18
ENDBRANCH  12   7
ENDBRANCH  10  12
TORSDOF 7
ENDMDL
MODEL 3
REMARK VINA RESULT:      -4.7     14.689     16.863
REMARK  Name = 75536640
REMARK  7 active torsions:
REMARK  status: ('A' for Active; 'I' for Inactive)
REMARK    1  A    between atoms: O_4  and  C_9
REMARK    2  A    between atoms: N_6  and  C_8
REMARK    3  A    between atoms: N_6  and  C_13
REMARK    4  A    between atoms: N_7  and  C_12
REMARK    5  A    between atoms: C_10  and  C_12
REMARK    6  A    between atoms: C_13  and  C_14
REMARK    7  A    between atoms: C_15  and  C_18
REMARK                            x       y       z     vdW  Elec       q    Type
REMARK                         _______ _______ _______ _____ _____    ______ ____
ROOT
ATOM      3  O   UNL     1      -6.834  -8.532  11.721  0.00  0.00    -0.371 OA
ATOM      8  C   UNL     1      -5.555  -8.873   9.749  0.00  0.00    +0.111 C 
ATOM      9  C   UNL     1      -6.406 -10.102  10.003  0.00  0.00    +0.164 C 
ATOM     10  C   UNL     1      -7.484  -9.529  10.914  0.00  0.00    +0.165 C 
ATOM     11  C   UNL     1      -5.571  -8.207  11.115  0.00  0.00    +0.181 C 
ENDROOT
BRANCH   9   4
ATOM      4  O   UNL     1      -6.952 -10.644   8.816  0.00  0.00    -0.388 OA
ATOM     28  H   UNL     1      -6.361 -11.350   8.503  0.00  0.00    +0.210 HD
ENDBRANCH   9   4
BRANCH   8   6
ATOM      6  N   UNL     1      -4.211  -9.179   9.285  0.00  0.00    -0.305 NA
ATOM     27  H   UNL     1      -3.576  -8.444   9.598  0.00  0.00    +0.123 HD
BRANCH   6  13
ATOM     13  C   UNL     1      -3.751 -10.458   9.813  0.00  0.00    +0.116 C 
BRANCH  13  14
ATOM      1  F   UNL     1      -1.034  -9.850  14.711  0.00  0.00    -0.205 F 
ATOM     14  C   UNL     1      -3.026 -10.296  11.121  0.00  0.00    -0.033 A 
ATOM     16  C   UNL     1      -1.785  -9.660  11.156  0.00  0.00    +0.008 A 
ATOM     17  C   UNL     1      -3.593 -10.781  12.299  0.00  0.00    +0.008 A 
ATOM     19  C   UNL     1      -1.112  -9.509  12.369  0.00  0.00    +0.038 A 
ATOM     20  C   UNL     1      -2.920 -10.631  13.512  0.00  0.00    +0.038 A 
ATOM     21  C   UNL     1      -1.679  -9.995  13.547  0.00  0.00    +0.123 A 
ENDBRANCH  13  14
ENDBRANCH   6  13
ENDBRANCH   8   6
BRANCH  10  12
ATOM     12  C   UNL     1      -8.133 -10.571  11.807  0.00  0.00    +0.138 C 
BRANCH  12   7
ATOM      5  O   UNL     1      -9.101  -9.373  14.230  0.00  0.00    -0.270 OA
ATOM      7  N   UNL     1      -7.504 -10.617  13.096  0.00  0.00    -0.309 N 
ATOM     15  C   UNL     1      -8.048 -10.004  14.221  0.00  0.00    +0.244 C 
ATOM     29  H   UNL     1      -6.595 -11.064  13.143  0.00  0.00    +0.149 HD
BRANCH  15  18
ATOM      2  F   UNL     1      -5.077 -10.448  18.964  0.00  0.00    -0.205 F 
ATOM     18  C   UNL     1      -7.262 -10.121  15.477  0.00  0.00    +0.037 A 
ATOM     22  C   UNL     1      -7.908 -10.402  16.680  0.00  0.00    +0.016 A 
ATOM     23  C   UNL     1      -5.877  -9.951  15.451  0.00  0.00    +0.016 A 
ATOM     24  C   UNL     1      -7.170 -10.512  17.859  0.00  0.00    +0.039 A 
ATOM     25  C   UNL     1      -5.140 -10.061  16.629  0.00  0.00    +0.039 A 
ATOM     26  C   UNL     1      -5.786 -10.341  17.833  0.00  0.00    +0.123 A 
ENDBRANCH  15  18
ENDBRANCH  12   7
ENDBRANCH  10  12
TORSDOF 7
ENDMDL
MODEL 4
REMARK VINA RESULT:      -4.6      3.369      6.618
REMARK  Name = 75536640
REMARK  7 active torsions:
REMARK  status: ('A' for Active; 'I' for Inactive)
REMARK    1  A    between atoms: O_4  and  C_9
REMARK    2  A    between atoms: N_6  and  C_8
REMARK    3  A    between atoms: N_6  and  C_13
REMARK    4  A    between atoms: N_7  and  C_12
REMARK    5  A    between atoms: C_10  and  C_12
REMARK    6  A    between atoms: C_13  and  C_14
REMARK    7  A    between atoms: C_15  and  C_18
REMARK                            x       y       z     vdW  Elec       q    Type
REMARK                         _______ _______ _______ _____ _____    ______ ____
ROOT
ATOM      3  O   UNL     1      -3.305   4.207  23.813  0.00  0.00    -0.371 OA
ATOM      8  C   UNL     1      -4.735   3.177  25.405  0.00  0.00    +0.111 C 
ATOM      9  C   UNL     1      -3.437   3.564  26.086  0.00  0.00    +0.164 C 
ATOM     10  C   UNL     1      -2.910   4.627  25.131  0.00  0.00    +0.165 C 
ATOM     11  C   UNL     1      -4.328   3.203  23.941  0.00  0.00    +0.181 C 
ENDROOT
BRANCH   9   4
ATOM      4  O   UNL     1      -3.636   4.078  27.389  0.00  0.00    -0.388 OA
ATOM     28  H   UNL     1      -3.622   5.049  27.340  0.00  0.00    +0.210 HD
ENDBRANCH   9   4
BRANCH   8   6
ATOM      6  N   UNL     1      -5.252   1.883  25.824  0.00  0.00    -0.305 NA
ATOM     27  H   UNL     1      -6.182   2.010  26.224  0.00  0.00    +0.123 HD
BRANCH   6  13
ATOM     13  C   UNL     1      -5.344   0.963  24.696  0.00  0.00    +0.116 C 
BRANCH  13  14
ATOM      1  F   UNL     1      -1.453  -3.103  24.982  0.00  0.00    -0.205 F 
ATOM     14  C   UNL     1      -4.305  -0.123  24.773  0.00  0.00    -0.033 A 
ATOM     16  C   UNL     1      -4.427  -1.262  23.977  0.00  0.00    +0.008 A 
ATOM     17  C   UNL     1      -3.220   0.009  25.639  0.00  0.00    +0.008 A 
ATOM     19  C   UNL     1      -3.464  -2.269  24.048  0.00  0.00    +0.038 A 
ATOM     20  C   UNL     1      -2.256  -0.998  25.710  0.00  0.00    +0.038 A 
ATOM     21  C   UNL     1      -2.379  -2.137  24.914  0.00  0.00    +0.123 A 
ENDBRANCH  13  14
ENDBRANCH   6  13
ENDBRANCH   8   6
BRANCH  10  12
ATOM     12  C   UNL     1      -1.402   4.791  25.187  0.00  0.00    +0.138 C 
BRANCH  12   7
ATOM      5  O   UNL     1      -0.196   2.423  26.274  0.00  0.00    -0.270 OA
ATOM      7  N   UNL     1      -0.736   3.754  24.452  0.00  0.00    -0.309 N 
ATOM     15  C   UNL     1      -0.177   2.637  25.064  0.00  0.00    +0.244 C 
ATOM     29  H   UNL     1      -0.624   3.904  23.455  0.00  0.00    +0.149 HD
BRANCH  15  18
ATOM      2  F   UNL     1       2.388  -1.027  21.670  0.00  0.00    -0.205 F 
ATOM     18  C   UNL     1       0.502   1.667  24.167  0.00  0.00    +0.037 A 
ATOM     22  C   UNL     1      -0.198   0.567  23.672  0.00  0.00    +0.016 A 
ATOM     23  C   UNL     1       1.839   1.857  23.818  0.00  0.00    +0.016 A 
ATOM     24  C   UNL     1       0.439  -0.344  22.829  0.00  0.00    +0.039 A 
ATOM     25  C   UNL     1       2.476   0.947  22.976  0.00  0.00    +0.039 A 
ATOM     26  C   UNL     1       1.776  -0.153  22.481  0.00  0.00    +0.123 A 
ENDBRANCH  15  18
ENDBRANCH  12   7
ENDBRANCH  10  12
TORSDOF 7
ENDMDL
MODEL 5
REMARK VINA RESULT:      -4.5      3.180      5.384
REMARK  Name = 75536640
REMARK  7 active torsions:
REMARK  status: ('A' for Active; 'I' for Inactive)
REMARK    1  A    between atoms: O_4  and  C_9
REMARK    2  A    between atoms: N_6  and  C_8
REMARK    3  A    between atoms: N_6  and  C_13
REMARK    4  A    between atoms: N_7  and  C_12
REMARK    5  A    between atoms: C_10  and  C_12
REMARK    6  A    between atoms: C_13  and  C_14
REMARK    7  A    between atoms: C_15  and  C_18
REMARK                            x       y       z     vdW  Elec       q    Type
REMARK                         _______ _______ _______ _____ _____    ______ ____
ROOT
ATOM      3  O   UNL     1      -3.814   3.957  26.863  0.00  0.00    -0.371 OA
ATOM      8  C   UNL     1      -2.131   4.604  25.317  0.00  0.00    +0.111 C 
ATOM      9  C   UNL     1      -3.346   4.119  24.549  0.00  0.00    +0.164 C 
ATOM     10  C   UNL     1      -4.436   4.265  25.603  0.00  0.00    +0.165 C 
ATOM     11  C   UNL     1      -2.386   4.010  26.693  0.00  0.00    +0.181 C 
ENDROOT
BRANCH   9   4
ATOM      4  O   UNL     1      -3.615   4.901  23.402  0.00  0.00    -0.388 OA
ATOM     28  H   UNL     1      -4.009   4.325  22.725  0.00  0.00    +0.210 HD
ENDBRANCH   9   4
BRANCH   8   6
ATOM      6  N   UNL     1      -0.866   4.173  24.742  0.00  0.00    -0.305 NA
ATOM     27  H   UNL     1      -0.271   4.989  24.598  0.00  0.00    +0.123 HD
BRANCH   6  13
ATOM     13  C   UNL     1      -0.180   3.236  25.623  0.00  0.00    +0.116 C 
BRANCH  13  14
ATOM      1  F   UNL     1      -0.596  -2.072  23.778  0.00  0.00    -0.205 F 
ATOM     14  C   UNL     1      -0.291   1.819  25.130  0.00  0.00    -0.033 A 
ATOM     16  C   UNL     1      -0.592   0.791  26.025  0.00  0.00    +0.008 A 
ATOM     17  C   UNL     1      -0.092   1.532  23.780  0.00  0.00    +0.008 A 
ATOM     19  C   UNL     1      -0.695  -0.523  25.568  0.00  0.00    +0.038 A 
ATOM     20  C   UNL     1      -0.195   0.217  23.323  0.00  0.00    +0.038 A 
ATOM     21  C   UNL     1      -0.497  -0.810  24.217  0.00  0.00    +0.123 A 
ENDBRANCH  13  14
ENDBRANCH   6  13
ENDBRANCH   8   6
BRANCH  10  12
ATOM     12  C   UNL     1      -5.619   3.342  25.375  0.00  0.00    +0.138 C 
BRANCH  12   7
ATOM      5  O   UNL     1      -4.071   1.908  23.427  0.00  0.00    -0.270 OA
ATOM      7  N   UNL     1      -5.226   1.963  25.440  0.00  0.00    -0.309 N 
ATOM     15  C   UNL     1      -4.472   1.348  24.444  0.00  0.00    +0.244 C 
ATOM     29  H   UNL     1      -5.584   1.424  26.220  0.00  0.00    +0.149 HD
BRANCH  15  18
ATOM      2  F   UNL     1      -3.329  -4.096  25.206  0.00  0.00    -0.205 F 
ATOM     18  C   UNL     1      -4.170  -0.093  24.646  0.00  0.00    +0.037 A 
ATOM     22  C   UNL     1      -4.254  -0.980  23.572  0.00  0.00    +0.016 A 
ATOM     23  C   UNL     1      -3.803  -0.559  25.908  0.00  0.00    +0.016 A 
ATOM     24  C   UNL     1      -3.970  -2.332  23.761  0.00  0.00    +0.039 A 
ATOM     25  C   UNL     1      -3.519  -1.910  26.097  0.00  0.00    +0.039 A 
ATOM     26  C   UNL     1      -3.603  -2.797  25.024  0.00  0.00    +0.123 A 
ENDBRANCH  15  18
ENDBRANCH  12   7
ENDBRANCH  10  12
TORSDOF 7
ENDMDL
MODEL 6
REMARK VINA RESULT:      -4.3      2.754      5.581
REMARK  Name = 75536640
REMARK  7 active torsions:
REMARK  status: ('A' for Active; 'I' for Inactive)
REMARK    1  A    between atoms: O_4  and  C_9
REMARK    2  A    between atoms: N_6  and  C_8
REMARK    3  A    between atoms: N_6  and  C_13
REMARK    4  A    between atoms: N_7  and  C_12
REMARK    5  A    between atoms: C_10  and  C_12
REMARK    6  A    between atoms: C_13  and  C_14
REMARK    7  A    between atoms: C_15  and  C_18
REMARK                            x       y       z     vdW  Elec       q    Type
REMARK                         _______ _______ _______ _____ _____    ______ ____
ROOT
ATOM      3  O   UNL     1       0.213   2.885  23.300  0.00  0.00    -0.371 OA
ATOM      8  C   UNL     1      -0.441   3.835  25.376  0.00  0.00    +0.111 C 
ATOM      9  C   UNL     1       0.040   2.416  25.612  0.00  0.00    +0.164 C 
ATOM     10  C   UNL     1       0.876   2.177  24.361  0.00  0.00    +0.165 C 
ATOM     11  C   UNL     1      -0.718   3.815  23.881  0.00  0.00    +0.181 C 
ENDROOT
BRANCH   9   4
ATOM      4  O   UNL     1       0.809   2.289  26.792  0.00  0.00    -0.388 OA
ATOM     28  H   UNL     1       1.116   3.174  27.054  0.00  0.00    +0.210 HD
ENDBRANCH   9   4
BRANCH   8   6
ATOM      6  N   UNL     1      -1.610   4.194  26.163  0.00  0.00    -0.305 NA
ATOM     27  H   UNL     1      -1.341   4.888  26.861  0.00  0.00    +0.123 HD
BRANCH   6  13
ATOM     13  C   UNL     1      -2.660   4.753  25.320  0.00  0.00    +0.116 C 
BRANCH  13  14
ATOM      1  F   UNL     1      -6.980   1.189  24.705  0.00  0.00    -0.205 F 
ATOM     14  C   UNL     1      -3.814   3.801  25.155  0.00  0.00    -0.033 A 
ATOM     16  C   UNL     1      -4.725   3.624  26.196  0.00  0.00    +0.008 A 
ATOM     17  C   UNL     1      -3.972   3.095  23.963  0.00  0.00    +0.008 A 
ATOM     19  C   UNL     1      -5.795   2.742  26.044  0.00  0.00    +0.038 A 
ATOM     20  C   UNL     1      -5.042   2.212  23.811  0.00  0.00    +0.038 A 
ATOM     21  C   UNL     1      -5.953   2.036  24.852  0.00  0.00    +0.123 A 
ENDBRANCH  13  14
ENDBRANCH   6  13
ENDBRANCH   8   6
BRANCH  10  12
ATOM     12  C   UNL     1       1.008   0.710  23.998  0.00  0.00    +0.138 C 
BRANCH  12   7
ATOM      5  O   UNL     1      -0.036  -1.427  25.607  0.00  0.00    -0.270 OA
ATOM      7  N   UNL     1      -0.278   0.087  23.865  0.00  0.00    -0.309 N 
ATOM     15  C   UNL     1      -0.703  -0.948  24.693  0.00  0.00    +0.244 C 
ATOM     29  H   UNL     1      -0.851   0.388  23.084  0.00  0.00    +0.149 HD
BRANCH  15  18
ATOM      2  F   UNL     1      -5.796  -3.052  23.620  0.00  0.00    -0.205 F 
ATOM     18  C   UNL     1      -2.051  -1.505  24.409  0.00  0.00    +0.037 A 
ATOM     22  C   UNL     1      -3.131  -0.646  24.205  0.00  0.00    +0.016 A 
ATOM     23  C   UNL     1      -2.236  -2.886  24.348  0.00  0.00    +0.016 A 
ATOM     24  C   UNL     1      -4.396  -1.169  23.938  0.00  0.00    +0.039 A 
ATOM     25  C   UNL     1      -3.501  -3.409  24.082  0.00  0.00    +0.039 A 
ATOM     26  C   UNL     1      -4.581  -2.550  23.877  0.00  0.00    +0.123 A 
ENDBRANCH  15  18
ENDBRANCH  12   7
ENDBRANCH  10  12
TORSDOF 7
ENDMDL
MODEL 7
REMARK VINA RESULT:      -4.2      3.927      7.390
REMARK  Name = 75536640
REMARK  7 active torsions:
REMARK  status: ('A' for Active; 'I' for Inactive)
REMARK    1  A    between atoms: O_4  and  C_9
REMARK    2  A    between atoms: N_6  and  C_8
REMARK    3  A    between atoms: N_6  and  C_13
REMARK    4  A    between atoms: N_7  and  C_12
REMARK    5  A    between atoms: C_10  and  C_12
REMARK    6  A    between atoms: C_13  and  C_14
REMARK    7  A    between atoms: C_15  and  C_18
REMARK                            x       y       z     vdW  Elec       q    Type
REMARK                         _______ _______ _______ _____ _____    ______ ____
ROOT
ATOM      3  O   UNL     1      -2.278   2.025  22.488  0.00  0.00    -0.371 OA
ATOM      8  C   UNL     1      -2.938   2.731  24.658  0.00  0.00    +0.111 C 
ATOM      9  C   UNL     1      -1.949   1.589  24.790  0.00  0.00    +0.164 C 
ATOM     10  C   UNL     1      -1.264   1.635  23.430  0.00  0.00    +0.165 C 
ATOM     11  C   UNL     1      -3.393   2.571  23.216  0.00  0.00    +0.181 C 
ENDROOT
BRANCH   9   4
ATOM      4  O   UNL     1      -1.031   1.781  25.849  0.00  0.00    -0.388 OA
ATOM     28  H   UNL     1      -1.533   1.983  26.656  0.00  0.00    +0.210 HD
ENDBRANCH   9   4
BRANCH   8   6
ATOM      6  N   UNL     1      -4.038   2.663  25.608  0.00  0.00    -0.305 NA
ATOM     27  H   UNL     1      -4.463   3.587  25.690  0.00  0.00    +0.123 HD
BRANCH   6  13
ATOM     13  C   UNL     1      -5.053   1.713  25.170  0.00  0.00    +0.116 C 
BRANCH  13  14
ATOM      1  F   UNL     1      -3.021  -3.534  24.865  0.00  0.00    -0.205 F 
ATOM     14  C   UNL     1      -4.510   0.311  25.089  0.00  0.00    -0.033 A 
ATOM     16  C   UNL     1      -4.649  -0.423  23.911  0.00  0.00    +0.008 A 
ATOM     17  C   UNL     1      -3.869  -0.254  26.191  0.00  0.00    +0.008 A 
ATOM     19  C   UNL     1      -4.146  -1.722  23.836  0.00  0.00    +0.038 A 
ATOM     20  C   UNL     1      -3.366  -1.553  26.115  0.00  0.00    +0.038 A 
ATOM     21  C   UNL     1      -3.505  -2.287  24.938  0.00  0.00    +0.123 A 
ENDBRANCH  13  14
ENDBRANCH   6  13
ENDBRANCH   8   6
BRANCH  10  12
ATOM     12  C   UNL     1      -0.662   0.305  23.015  0.00  0.00    +0.138 C 
BRANCH  12   7
ATOM      5  O   UNL     1       1.485  -0.393  21.241  0.00  0.00    -0.270 OA
ATOM      7  N   UNL     1       0.733   0.238  23.344  0.00  0.00    -0.309 N 
ATOM     15  C   UNL     1       1.710  -0.112  22.416  0.00  0.00    +0.244 C 
ATOM     29  H   UNL     1       0.979   0.391  24.316  0.00  0.00    +0.149 HD
BRANCH  15  18
ATOM      2  F   UNL     1       6.988  -0.300  24.317  0.00  0.00    -0.205 F 
ATOM     18  C   UNL     1       3.106  -0.161  22.920  0.00  0.00    +0.037 A 
ATOM     22  C   UNL     1       3.595  -1.330  23.504  0.00  0.00    +0.016 A 
ATOM     23  C   UNL     1       3.929   0.960  22.808  0.00  0.00    +0.016 A 
ATOM     24  C   UNL     1       4.907  -1.377  23.977  0.00  0.00    +0.039 A 
ATOM     25  C   UNL     1       5.239   0.913  23.280  0.00  0.00    +0.039 A 
ATOM     26  C   UNL     1       5.729  -0.255  23.865  0.00  0.00    +0.123 A 
ENDBRANCH  15  18
ENDBRANCH  12   7
ENDBRANCH  10  12
TORSDOF 7
ENDMDL
MODEL 8
REMARK VINA RESULT:      -3.9      1.207      4.211
REMARK  Name = 75536640
REMARK  7 active torsions:
REMARK  status: ('A' for Active; 'I' for Inactive)
REMARK    1  A    between atoms: O_4  and  C_9
REMARK    2  A    between atoms: N_6  and  C_8
REMARK    3  A    between atoms: N_6  and  C_13
REMARK    4  A    between atoms: N_7  and  C_12
REMARK    5  A    between atoms: C_10  and  C_12
REMARK    6  A    between atoms: C_13  and  C_14
REMARK    7  A    between atoms: C_15  and  C_18
REMARK                            x       y       z     vdW  Elec       q    Type
REMARK                         _______ _______ _______ _____ _____    ______ ____
ROOT
ATOM      3  O   UNL     1      -1.865  -1.438  26.735  0.00  0.00    -0.371 OA
ATOM      8  C   UNL     1      -3.336  -2.362  25.116  0.00  0.00    +0.111 C 
ATOM      9  C   UNL     1      -2.020  -2.017  24.446  0.00  0.00    +0.164 C 
ATOM     10  C   UNL     1      -1.085  -1.964  25.647  0.00  0.00    +0.165 C 
ATOM     11  C   UNL     1      -3.257  -1.529  26.385  0.00  0.00    +0.181 C 
ENDROOT
BRANCH   9   4
ATOM      4  O   UNL     1      -1.613  -2.991  23.505  0.00  0.00    -0.388 OA
ATOM     28  H   UNL     1      -0.873  -3.494  23.885  0.00  0.00    +0.210 HD
ENDBRANCH   9   4
BRANCH   8   6
ATOM      6  N   UNL     1      -4.503  -2.049  24.306  0.00  0.00    -0.305 NA
ATOM     27  H   UNL     1      -5.260  -1.743  24.918  0.00  0.00    +0.123 HD
BRANCH   6  13
ATOM     13  C   UNL     1      -4.210  -0.987  23.350  0.00  0.00    +0.116 C 
BRANCH  13  14
ATOM      1  F   UNL     1      -5.141   4.121  25.538  0.00  0.00    -0.205 F 
ATOM     14  C   UNL     1      -4.459   0.377  23.935  0.00  0.00    -0.033 A 
ATOM     16  C   UNL     1      -3.785   1.487  23.426  0.00  0.00    +0.008 A 
ATOM     17  C   UNL     1      -5.363   0.532  24.985  0.00  0.00    +0.008 A 
ATOM     19  C   UNL     1      -4.015   2.752  23.968  0.00  0.00    +0.038 A 
ATOM     20  C   UNL     1      -5.593   1.797  25.527  0.00  0.00    +0.038 A 
ATOM     21  C   UNL     1      -4.919   2.907  25.018  0.00  0.00    +0.123 A 
ENDBRANCH  13  14
ENDBRANCH   6  13
ENDBRANCH   8   6
BRANCH  10  12
ATOM     12  C   UNL     1       0.135  -1.090  25.421  0.00  0.00    +0.138 C 
BRANCH  12   7
ATOM      5  O   UNL     1       0.158   0.768  23.232  0.00  0.00    -0.270 OA
ATOM      7  N   UNL     1      -0.202   0.303  25.477  0.00  0.00    -0.309 N 
ATOM     15  C   UNL     1      -0.162   1.133  24.361  0.00  0.00    +0.244 C 
ATOM     29  H   UNL     1      -0.407   0.685  26.394  0.00  0.00    +0.149 HD
BRANCH  15  18
ATOM      2  F   UNL     1      -1.490   6.519  25.225  0.00  0.00    -0.205 F 
ATOM     18  C   UNL     1      -0.514   2.558  24.589  0.00  0.00    +0.037 A 
ATOM     22  C   UNL     1      -1.258   2.921  25.712  0.00  0.00    +0.016 A 
ATOM     23  C   UNL     1      -0.100   3.534  23.682  0.00  0.00    +0.016 A 
ATOM     24  C   UNL     1      -1.589   4.260  25.927  0.00  0.00    +0.039 A 
ATOM     25  C   UNL     1      -0.430   4.871  23.896  0.00  0.00    +0.039 A 
ATOM     26  C   UNL     1      -1.174   5.234  25.019  0.00  0.00    +0.123 A 
ENDBRANCH  15  18
ENDBRANCH  12   7
ENDBRANCH  10  12
TORSDOF 7
ENDMDL
MODEL 9
REMARK VINA RESULT:      -3.7      3.119      6.056
REMARK  Name = 75536640
REMARK  7 active torsions:
REMARK  status: ('A' for Active; 'I' for Inactive)
REMARK    1  A    between atoms: O_4  and  C_9
REMARK    2  A    between atoms: N_6  and  C_8
REMARK    3  A    between atoms: N_6  and  C_13
REMARK    4  A    between atoms: N_7  and  C_12
REMARK    5  A    between atoms: C_10  and  C_12
REMARK    6  A    between atoms: C_13  and  C_14
REMARK    7  A    between atoms: C_15  and  C_18
REMARK                            x       y       z     vdW  Elec       q    Type
REMARK                         _______ _______ _______ _____ _____    ______ ____
ROOT
ATOM      3  O   UNL     1      -0.191   4.407  23.898  0.00  0.00    -0.371 OA
ATOM      8  C   UNL     1      -1.677   4.709  25.726  0.00  0.00    +0.111 C 
ATOM      9  C   UNL     1      -1.091   3.311  25.792  0.00  0.00    +0.164 C 
ATOM     10  C   UNL     1       0.158   3.476  24.937  0.00  0.00    +0.165 C 
ATOM     11  C   UNL     1      -1.403   5.083  24.279  0.00  0.00    +0.181 C 
ENDROOT
BRANCH   9   4
ATOM      4  O   UNL     1      -0.777   2.911  27.112  0.00  0.00    -0.388 OA
ATOM     28  H   UNL     1      -0.118   2.198  27.067  0.00  0.00    +0.210 HD
ENDBRANCH   9   4
BRANCH   8   6
ATOM      6  N   UNL     1      -3.090   4.766  26.067  0.00  0.00    -0.305 NA
ATOM     27  H   UNL     1      -3.303   5.689  26.446  0.00  0.00    +0.123 HD
BRANCH   6  13
ATOM     13  C   UNL     1      -3.923   4.533  24.893  0.00  0.00    +0.116 C 
BRANCH  13  14
ATOM      1  F   UNL     1      -4.921  -0.954  24.087  0.00  0.00    -0.205 F 
ATOM     14  C   UNL     1      -4.190   3.067  24.678  0.00  0.00    -0.033 A 
ATOM     16  C   UNL     1      -5.111   2.400  25.485  0.00  0.00    +0.008 A 
ATOM     17  C   UNL     1      -3.515   2.376  23.672  0.00  0.00    +0.008 A 
ATOM     19  C   UNL     1      -5.358   1.042  25.285  0.00  0.00    +0.038 A 
ATOM     20  C   UNL     1      -3.762   1.017  23.472  0.00  0.00    +0.038 A 
ATOM     21  C   UNL     1      -4.683   0.350  24.279  0.00  0.00    +0.123 A 
ENDBRANCH  13  14
ENDBRANCH   6  13
ENDBRANCH   8   6
BRANCH  10  12
ATOM     12  C   UNL     1       0.641   2.176  24.321  0.00  0.00    +0.138 C 
BRANCH  12   7
ATOM      5  O   UNL     1       0.838  -0.522  23.357  0.00  0.00    -0.270 OA
ATOM      7  N   UNL     1      -0.256   1.095  24.613  0.00  0.00    -0.309 N 
ATOM     15  C   UNL     1      -0.083  -0.187  24.098  0.00  0.00    +0.244 C 
ATOM     29  H   UNL     1      -1.077   1.321  25.163  0.00  0.00    +0.149 HD
BRANCH  15  18
ATOM      2  F   UNL     1      -3.979  -3.974  25.511  0.00  0.00    -0.205 F 
ATOM     18  C   UNL     1      -1.114  -1.189  24.472  0.00  0.00    +0.037 A 
ATOM     22  C   UNL     1      -1.813  -1.056  25.672  0.00  0.00    +0.016 A 
ATOM     23  C   UNL     1      -1.383  -2.263  23.624  0.00  0.00    +0.016 A 
ATOM     24  C   UNL     1      -2.781  -1.997  26.023  0.00  0.00    +0.039 A 
ATOM     25  C   UNL     1      -2.350  -3.204  23.975  0.00  0.00    +0.039 A 
ATOM     26  C   UNL     1      -3.049  -3.071  25.174  0.00  0.00    +0.123 A 
ENDBRANCH  15  18
ENDBRANCH  12   7
ENDBRANCH  10  12
TORSDOF 7
ENDMDL
MODEL 10
REMARK VINA RESULT:      -3.5      2.861      5.474
REMARK  Name = 75536640
REMARK  7 active torsions:
REMARK  status: ('A' for Active; 'I' for Inactive)
REMARK    1  A    between atoms: O_4  and  C_9
REMARK    2  A    between atoms: N_6  and  C_8
REMARK    3  A    between atoms: N_6  and  C_13
REMARK    4  A    between atoms: N_7  and  C_12
REMARK    5  A    between atoms: C_10  and  C_12
REMARK    6  A    between atoms: C_13  and  C_14
REMARK    7  A    between atoms: C_15  and  C_18
REMARK                            x       y       z     vdW  Elec       q    Type
REMARK                         _______ _______ _______ _____ _____    ______ ____
ROOT
ATOM      3  O   UNL     1      -5.420   3.202  26.398  0.00  0.00    -0.371 OA
ATOM      8  C   UNL     1      -4.070   4.397  24.851  0.00  0.00    +0.111 C 
ATOM      9  C   UNL     1      -4.332   3.006  24.306  0.00  0.00    +0.164 C 
ATOM     10  C   UNL     1      -5.572   2.609  25.097  0.00  0.00    +0.165 C 
ATOM     11  C   UNL     1      -4.396   4.210  26.324  0.00  0.00    +0.181 C 
ENDROOT
BRANCH   9   4
ATOM      4  O   UNL     1      -4.571   3.000  22.912  0.00  0.00    -0.388 OA
ATOM     28  H   UNL     1      -4.248   3.840  22.544  0.00  0.00    +0.210 HD
ENDBRANCH   9   4
BRANCH   8   6
ATOM      6  N   UNL     1      -2.712   4.866  24.628  0.00  0.00    -0.305 NA
ATOM     27  H   UNL     1      -2.672   5.869  24.810  0.00  0.00    +0.123 HD
BRANCH   6  13
ATOM     13  C   UNL     1      -1.770   4.188  25.510  0.00  0.00    +0.116 C 
BRANCH  13  14
ATOM      1  F   UNL     1       0.774  -0.133  22.939  0.00  0.00    -0.205 F 
ATOM     14  C   UNL     1      -1.090   3.034  24.824  0.00  0.00    -0.033 A 
ATOM     16  C   UNL     1      -1.706   2.407  23.740  0.00  0.00    +0.008 A 
ATOM     17  C   UNL     1       0.154   2.590  25.270  0.00  0.00    +0.008 A 
ATOM     19  C   UNL     1      -1.076   1.337  23.104  0.00  0.00    +0.038 A 
ATOM     20  C   UNL     1       0.784   1.520  24.634  0.00  0.00    +0.038 A 
ATOM     21  C   UNL     1       0.169   0.894  23.550  0.00  0.00    +0.123 A 
ENDBRANCH  13  14
ENDBRANCH   6  13
ENDBRANCH   8   6
BRANCH  10  12
ATOM     12  C   UNL     1      -5.742   1.107  25.233  0.00  0.00    +0.138 C 
BRANCH  12   7
ATOM      5  O   UNL     1      -4.839  -1.215  23.807  0.00  0.00    -0.270 OA
ATOM      7  N   UNL     1      -4.476   0.449  25.383  0.00  0.00    -0.309 N 
ATOM     15  C   UNL     1      -4.122  -0.677  24.647  0.00  0.00    +0.244 C 
ATOM     29  H   UNL     1      -3.864   0.801  26.111  0.00  0.00    +0.149 HD
BRANCH  15  18
ATOM      2  F   UNL     1       0.929  -2.870  25.745  0.00  0.00    -0.205 F 
ATOM     18  C   UNL     1      -2.786  -1.258  24.937  0.00  0.00    +0.037 A 
ATOM     22  C   UNL     1      -2.329  -2.357  24.210  0.00  0.00    +0.016 A 
ATOM     23  C   UNL     1      -1.987  -0.704  25.938  0.00  0.00    +0.016 A 
ATOM     24  C   UNL     1      -1.075  -2.902  24.483  0.00  0.00    +0.039 A 
ATOM     25  C   UNL     1      -0.733  -1.249  26.211  0.00  0.00    +0.039 A 
ATOM     26  C   UNL     1      -0.277  -2.348  25.484  0.00  0.00    +0.123 A 
ENDBRANCH  15  18
ENDBRANCH  12   7
ENDBRANCH  10  12
TORSDOF 7
ENDMDL
