MODEL 1
REMARK VINA RESULT:       1.9      0.000      0.000
REMARK  Name = 45360665
REMARK  11 active torsions:
REMARK  status: ('A' for Active; 'I' for Inactive)
REMARK    1  A    between atoms: O_3  and  C_35
REMARK    2  A    between atoms: O_3  and  C_36
REMARK    3  A    between atoms: N_5  and  C_10
REMARK    4  A    between atoms: N_5  and  C_18
REMARK    5  A    between atoms: N_7  and  C_27
REMARK    6  A    between atoms: N_8  and  C_26
REMARK    7  A    between atoms: C_12  and  C_16
REMARK    8  A    between atoms: C_16  and  C_17
REMARK    9  A    between atoms: C_17  and  C_20
REMARK   10  A    between atoms: C_18  and  C_19
REMARK   11  A    between atoms: C_26  and  C_30
REMARK                            x       y       z     vdW  Elec       q    Type
REMARK                         _______ _______ _______ _____ _____    ______ ____
ROOT
ATOM      1  O   UNL     1       1.032   2.715  26.615  0.00  0.00    -0.274 OA
ATOM      4  N   UNL     1      -2.141   2.341  24.851  0.00  0.00    -0.286 NA
ATOM      6  N   UNL     1      -0.359   4.303  25.771  0.00  0.00    -0.313 N 
ATOM      9  C   UNL     1      -1.056   1.913  25.742  0.00  0.00    +0.145 C 
ATOM     10  C   UNL     1      -1.155   0.628  23.684  0.00  0.00    +0.070 C 
ATOM     11  C   UNL     1      -0.390   0.741  25.003  0.00  0.00    +0.048 C 
ATOM     12  C   UNL     1      -2.641   3.686  25.115  0.00  0.00    +0.075 C 
ATOM     13  C   UNL     1      -1.728   2.024  23.486  0.00  0.00    +0.104 C 
ATOM     14  C   UNL     1      -1.521   4.709  25.014  0.00  0.00    +0.123 C 
ATOM     15  C   UNL     1      -0.032   3.000  26.058  0.00  0.00    +0.230 C 
ATOM     38  H   UNL     1       0.321   5.020  26.006  0.00  0.00    +0.149 HD
ENDROOT
BRANCH  10   5
ATOM      5  N   UNL     1      -0.323   0.180  22.579  0.00  0.00    -0.308 NA
ATOM     37  H   UNL     1      -0.898  -0.348  21.923  0.00  0.00    +0.123 HD
BRANCH   5  18
ATOM     18  C   UNL     1       0.762  -0.671  23.051  0.00  0.00    +0.118 C 
BRANCH  18  19
ATOM      7  N   UNL     1       3.650   1.559  22.609  0.00  0.00    -0.349 N 
ATOM     19  C   UNL     1       2.093   0.019  22.973  0.00  0.00    -0.008 A 
ATOM     21  C   UNL     1       3.352  -0.526  23.348  0.00  0.00    +0.004 A 
ATOM     22  C   UNL     1       2.308   1.302  22.523  0.00  0.00    +0.091 A 
ATOM     23  C   UNL     1       4.313   0.460  23.110  0.00  0.00    +0.049 A 
ATOM     24  C   UNL     1       3.770  -1.767  23.869  0.00  0.00    +0.010 A 
ATOM     25  C   UNL     1       5.674   0.266  23.367  0.00  0.00    +0.026 A 
ATOM     27  C   UNL     1       4.267   2.809  22.222  0.00  0.00    +0.149 C 
ATOM     28  C   UNL     1       5.128  -1.975  24.131  0.00  0.00    +0.001 A 
ATOM     29  C   UNL     1       6.064  -0.973  23.883  0.00  0.00    +0.002 A 
ENDBRANCH  18  19
ENDBRANCH   5  18
ENDBRANCH  10   5
BRANCH  12  16
ATOM     16  C   UNL     1      -3.817   4.069  24.217  0.00  0.00    +0.029 C 
BRANCH  16  17
ATOM     17  C   UNL     1      -5.100   4.219  25.024  0.00  0.00    +0.097 C 
BRANCH  17  20
ATOM      2  O   UNL     1      -6.088   2.743  26.669  0.00  0.00    -0.276 OA
ATOM      8  N   UNL     1      -5.452   1.876  24.611  0.00  0.00    -0.311 N 
ATOM     20  C   UNL     1      -5.606   2.887  25.547  0.00  0.00    +0.213 C 
ATOM     39  H   UNL     1      -5.017   2.077  23.715  0.00  0.00    +0.149 HD
BRANCH   8  26
ATOM     26  C   UNL     1      -5.857   0.516  24.871  0.00  0.00    +0.139 C 
BRANCH  26  30
ATOM     30  C   UNL     1      -4.688  -0.427  24.884  0.00  0.00    -0.030 A 
ATOM     31  C   UNL     1      -3.870  -0.508  26.010  0.00  0.00    +0.009 A 
ATOM     32  C   UNL     1      -4.422  -1.223  23.770  0.00  0.00    +0.009 A 
ATOM     33  C   UNL     1      -2.784  -1.384  26.022  0.00  0.00    +0.046 A 
ATOM     34  C   UNL     1      -3.337  -2.099  23.782  0.00  0.00    +0.046 A 
ATOM     35  C   UNL     1      -2.517  -2.179  24.908  0.00  0.00    +0.120 A 
BRANCH  35   3
ATOM      3  O   UNL     1      -1.459  -3.035  24.920  0.00  0.00    -0.495 OA
ATOM     36  C   UNL     1      -0.244  -2.556  25.494  0.00  0.00    +0.277 C 
ENDBRANCH  35   3
ENDBRANCH  26  30
ENDBRANCH   8  26
ENDBRANCH  17  20
ENDBRANCH  16  17
ENDBRANCH  12  16
TORSDOF 9
ENDMDL
MODEL 2
REMARK VINA RESULT:       3.8      1.893      6.529
REMARK  Name = 45360665
REMARK  11 active torsions:
REMARK  status: ('A' for Active; 'I' for Inactive)
REMARK    1  A    between atoms: O_3  and  C_35
REMARK    2  A    between atoms: O_3  and  C_36
REMARK    3  A    between atoms: N_5  and  C_10
REMARK    4  A    between atoms: N_5  and  C_18
REMARK    5  A    between atoms: N_7  and  C_27
REMARK    6  A    between atoms: N_8  and  C_26
REMARK    7  A    between atoms: C_12  and  C_16
REMARK    8  A    between atoms: C_16  and  C_17
REMARK    9  A    between atoms: C_17  and  C_20
REMARK   10  A    between atoms: C_18  and  C_19
REMARK   11  A    between atoms: C_26  and  C_30
REMARK                            x       y       z     vdW  Elec       q    Type
REMARK                         _______ _______ _______ _____ _____    ______ ____
ROOT
ATOM      1  O   UNL     1      -3.634   4.120  28.178  0.00  0.00    -0.274 OA
ATOM      4  N   UNL     1      -2.490   4.058  24.713  0.00  0.00    -0.286 NA
ATOM      6  N   UNL     1      -1.599   3.566  27.328  0.00  0.00    -0.313 N 
ATOM      9  C   UNL     1      -3.360   4.475  25.820  0.00  0.00    +0.145 C 
ATOM     10  C   UNL     1      -4.500   3.082  24.191  0.00  0.00    +0.070 C 
ATOM     11  C   UNL     1      -4.729   3.862  25.486  0.00  0.00    +0.048 C 
ATOM     12  C   UNL     1      -1.063   4.144  25.005  0.00  0.00    +0.075 C 
ATOM     13  C   UNL     1      -3.007   2.787  24.214  0.00  0.00    +0.104 C 
ATOM     14  C   UNL     1      -0.708   3.304  26.222  0.00  0.00    +0.123 C 
ATOM     15  C   UNL     1      -2.889   4.020  27.199  0.00  0.00    +0.230 C 
ATOM     38  H   UNL     1      -1.291   3.287  28.255  0.00  0.00    +0.149 HD
ENDROOT
BRANCH  10   5
ATOM      5  N   UNL     1      -5.326   1.890  24.090  0.00  0.00    -0.308 NA
ATOM     37  H   UNL     1      -6.308   2.165  24.076  0.00  0.00    +0.123 HD
BRANCH   5  18
ATOM     18  C   UNL     1      -5.100   0.998  25.221  0.00  0.00    +0.118 C 
BRANCH  18  19
ATOM      7  N   UNL     1      -3.934  -2.219  23.879  0.00  0.00    -0.349 N 
ATOM     19  C   UNL     1      -4.382  -0.255  24.812  0.00  0.00    -0.008 A 
ATOM     21  C   UNL     1      -3.057  -0.627  25.174  0.00  0.00    +0.004 A 
ATOM     22  C   UNL     1      -4.895  -1.253  24.016  0.00  0.00    +0.091 A 
ATOM     23  C   UNL     1      -2.800  -1.863  24.575  0.00  0.00    +0.049 A 
ATOM     24  C   UNL     1      -2.047  -0.030  25.954  0.00  0.00    +0.010 A 
ATOM     25  C   UNL     1      -1.581  -2.533  24.719  0.00  0.00    +0.026 A 
ATOM     27  C   UNL     1      -4.103  -3.433  23.111  0.00  0.00    +0.149 C 
ATOM     28  C   UNL     1      -0.822  -0.690  26.107  0.00  0.00    +0.001 A 
ATOM     29  C   UNL     1      -0.595  -1.922  25.498  0.00  0.00    +0.002 A 
ENDBRANCH  18  19
ENDBRANCH   5  18
ENDBRANCH  10   5
BRANCH  12  16
ATOM     16  C   UNL     1      -0.189   3.772  23.807  0.00  0.00    +0.029 C 
BRANCH  16  17
ATOM     17  C   UNL     1      -0.643   2.461  23.180  0.00  0.00    +0.097 C 
BRANCH  17  20
ATOM      2  O   UNL     1       0.868   1.217  24.605  0.00  0.00    -0.276 OA
ATOM      8  N   UNL     1       0.377   0.395  22.490  0.00  0.00    -0.311 N 
ATOM     20  C   UNL     1       0.282   1.309  23.528  0.00  0.00    +0.213 C 
ATOM     39  H   UNL     1      -0.122   0.562  21.620  0.00  0.00    +0.149 HD
BRANCH   8  26
ATOM     26  C   UNL     1       1.197  -0.789  22.577  0.00  0.00    +0.139 C 
BRANCH  26  30
ATOM     30  C   UNL     1       2.630  -0.459  22.879  0.00  0.00    -0.030 A 
ATOM     31  C   UNL     1       3.398  -1.329  23.652  0.00  0.00    +0.009 A 
ATOM     32  C   UNL     1       3.195   0.717  22.383  0.00  0.00    +0.009 A 
ATOM     33  C   UNL     1       4.730  -1.023  23.932  0.00  0.00    +0.046 A 
ATOM     34  C   UNL     1       4.526   1.022  22.663  0.00  0.00    +0.046 A 
ATOM     35  C   UNL     1       5.294   0.153  23.438  0.00  0.00    +0.120 A 
BRANCH  35   3
ATOM      3  O   UNL     1       6.594   0.451  23.710  0.00  0.00    -0.495 OA
ATOM     36  C   UNL     1       7.589  -0.362  23.091  0.00  0.00    +0.277 C 
ENDBRANCH  35   3
ENDBRANCH  26  30
ENDBRANCH   8  26
ENDBRANCH  17  20
ENDBRANCH  16  17
ENDBRANCH  12  16
TORSDOF 9
ENDMDL
MODEL 3
REMARK VINA RESULT:       4.3      1.822      6.578
REMARK  Name = 45360665
REMARK  11 active torsions:
REMARK  status: ('A' for Active; 'I' for Inactive)
REMARK    1  A    between atoms: O_3  and  C_35
REMARK    2  A    between atoms: O_3  and  C_36
REMARK    3  A    between atoms: N_5  and  C_10
REMARK    4  A    between atoms: N_5  and  C_18
REMARK    5  A    between atoms: N_7  and  C_27
REMARK    6  A    between atoms: N_8  and  C_26
REMARK    7  A    between atoms: C_12  and  C_16
REMARK    8  A    between atoms: C_16  and  C_17
REMARK    9  A    between atoms: C_17  and  C_20
REMARK   10  A    between atoms: C_18  and  C_19
REMARK   11  A    between atoms: C_26  and  C_30
REMARK                            x       y       z     vdW  Elec       q    Type
REMARK                         _______ _______ _______ _____ _____    ______ ____
ROOT
ATOM      1  O   UNL     1      -3.825   3.962  28.102  0.00  0.00    -0.274 OA
ATOM      4  N   UNL     1      -2.515   4.188  24.704  0.00  0.00    -0.286 NA
ATOM      6  N   UNL     1      -1.726   3.562  27.323  0.00  0.00    -0.313 N 
ATOM      9  C   UNL     1      -3.456   4.488  25.789  0.00  0.00    +0.145 C 
ATOM     10  C   UNL     1      -4.447   3.158  24.017  0.00  0.00    +0.070 C 
ATOM     11  C   UNL     1      -4.776   3.837  25.346  0.00  0.00    +0.048 C 
ATOM     12  C   UNL     1      -1.109   4.321  25.073  0.00  0.00    +0.075 C 
ATOM     13  C   UNL     1      -2.944   2.931  24.096  0.00  0.00    +0.104 C 
ATOM     14  C   UNL     1      -0.772   3.417  26.249  0.00  0.00    +0.123 C 
ATOM     15  C   UNL     1      -3.030   3.964  27.158  0.00  0.00    +0.230 C 
ATOM     38  H   UNL     1      -1.450   3.236  28.244  0.00  0.00    +0.149 HD
ENDROOT
BRANCH  10   5
ATOM      5  N   UNL     1      -5.207   1.938  23.796  0.00  0.00    -0.308 NA
ATOM     37  H   UNL     1      -6.157   2.183  23.520  0.00  0.00    +0.123 HD
BRANCH   5  18
ATOM     18  C   UNL     1      -5.259   1.127  25.006  0.00  0.00    +0.118 C 
BRANCH  18  19
ATOM      7  N   UNL     1      -2.055  -0.531  25.715  0.00  0.00    -0.349 N 
ATOM     19  C   UNL     1      -4.056   0.236  25.137  0.00  0.00    -0.008 A 
ATOM     21  C   UNL     1      -3.895  -1.057  24.566  0.00  0.00    +0.004 A 
ATOM     22  C   UNL     1      -2.910   0.532  25.838  0.00  0.00    +0.091 A 
ATOM     23  C   UNL     1      -2.631  -1.516  24.944  0.00  0.00    +0.049 A 
ATOM     24  C   UNL     1      -4.704  -1.884  23.762  0.00  0.00    +0.010 A 
ATOM     25  C   UNL     1      -2.134  -2.765  24.556  0.00  0.00    +0.026 A 
ATOM     27  C   UNL     1      -0.740  -0.592  26.314  0.00  0.00    +0.149 C 
ATOM     28  C   UNL     1      -4.219  -3.135  23.366  0.00  0.00    +0.001 A 
ATOM     29  C   UNL     1      -2.954  -3.567  23.758  0.00  0.00    +0.002 A 
ENDBRANCH  18  19
ENDBRANCH   5  18
ENDBRANCH  10   5
BRANCH  12  16
ATOM     16  C   UNL     1      -0.162   4.072  23.900  0.00  0.00    +0.029 C 
BRANCH  16  17
ATOM     17  C   UNL     1      -0.503   2.773  23.181  0.00  0.00    +0.097 C 
BRANCH  17  20
ATOM      2  O   UNL     1       0.917   1.607  24.758  0.00  0.00    -0.276 OA
ATOM      8  N   UNL     1       0.362   0.570  22.756  0.00  0.00    -0.311 N 
ATOM     20  C   UNL     1       0.336   1.609  23.674  0.00  0.00    +0.213 C 
ATOM     39  H   UNL     1      -0.126   0.664  21.869  0.00  0.00    +0.149 HD
BRANCH   8  26
ATOM     26  C   UNL     1       1.094  -0.651  22.992  0.00  0.00    +0.139 C 
BRANCH  26  30
ATOM     30  C   UNL     1       2.569  -0.405  23.128  0.00  0.00    -0.030 A 
ATOM     31  C   UNL     1       3.130   0.768  22.625  0.00  0.00    +0.009 A 
ATOM     32  C   UNL     1       3.377  -1.349  23.762  0.00  0.00    +0.009 A 
ATOM     33  C   UNL     1       4.500   0.996  22.752  0.00  0.00    +0.046 A 
ATOM     34  C   UNL     1       4.747  -1.120  23.889  0.00  0.00    +0.046 A 
ATOM     35  C   UNL     1       5.309   0.052  23.384  0.00  0.00    +0.120 A 
BRANCH  35   3
ATOM      3  O   UNL     1       6.646   0.276  23.510  0.00  0.00    -0.495 OA
ATOM     36  C   UNL     1       7.520  -0.619  22.824  0.00  0.00    +0.277 C 
ENDBRANCH  35   3
ENDBRANCH  26  30
ENDBRANCH   8  26
ENDBRANCH  17  20
ENDBRANCH  16  17
ENDBRANCH  12  16
TORSDOF 9
ENDMDL
MODEL 4
REMARK VINA RESULT:       4.4      2.054      7.329
REMARK  Name = 45360665
REMARK  11 active torsions:
REMARK  status: ('A' for Active; 'I' for Inactive)
REMARK    1  A    between atoms: O_3  and  C_35
REMARK    2  A    between atoms: O_3  and  C_36
REMARK    3  A    between atoms: N_5  and  C_10
REMARK    4  A    between atoms: N_5  and  C_18
REMARK    5  A    between atoms: N_7  and  C_27
REMARK    6  A    between atoms: N_8  and  C_26
REMARK    7  A    between atoms: C_12  and  C_16
REMARK    8  A    between atoms: C_16  and  C_17
REMARK    9  A    between atoms: C_17  and  C_20
REMARK   10  A    between atoms: C_18  and  C_19
REMARK   11  A    between atoms: C_26  and  C_30
REMARK                            x       y       z     vdW  Elec       q    Type
REMARK                         _______ _______ _______ _____ _____    ______ ____
ROOT
ATOM      1  O   UNL     1      -4.330  -3.481  23.872  0.00  0.00    -0.274 OA
ATOM      4  N   UNL     1      -2.606  -0.519  25.127  0.00  0.00    -0.286 NA
ATOM      6  N   UNL     1      -2.248  -3.278  24.765  0.00  0.00    -0.313 N 
ATOM      9  C   UNL     1      -3.780  -1.315  24.750  0.00  0.00    +0.145 C 
ATOM     10  C   UNL     1      -3.416   0.587  23.287  0.00  0.00    +0.070 C 
ATOM     11  C   UNL     1      -4.369  -0.582  23.534  0.00  0.00    +0.048 C 
ATOM     12  C   UNL     1      -1.644  -1.226  25.965  0.00  0.00    +0.075 C 
ATOM     13  C   UNL     1      -2.109   0.119  23.910  0.00  0.00    +0.104 C 
ATOM     14  C   UNL     1      -1.152  -2.489  25.277  0.00  0.00    +0.123 C 
ATOM     15  C   UNL     1      -3.473  -2.770  24.404  0.00  0.00    +0.230 C 
ATOM     38  H   UNL     1      -2.064  -4.253  24.549  0.00  0.00    +0.149 HD
ENDROOT
BRANCH  10   5
ATOM      5  N   UNL     1      -3.296   0.937  21.880  0.00  0.00    -0.308 NA
ATOM     37  H   UNL     1      -2.485   0.461  21.487  0.00  0.00    +0.123 HD
BRANCH   5  18
ATOM     18  C   UNL     1      -3.130   2.376  21.711  0.00  0.00    +0.118 C 
BRANCH  18  19
ATOM      7  N   UNL     1      -1.916   4.247  24.633  0.00  0.00    -0.349 N 
ATOM     19  C   UNL     1      -2.886   3.071  23.020  0.00  0.00    -0.008 A 
ATOM     21  C   UNL     1      -3.782   3.133  24.124  0.00  0.00    +0.004 A 
ATOM     22  C   UNL     1      -1.749   3.765  23.362  0.00  0.00    +0.091 A 
ATOM     23  C   UNL     1      -3.148   3.877  25.123  0.00  0.00    +0.049 A 
ATOM     24  C   UNL     1      -5.073   2.628  24.371  0.00  0.00    +0.010 A 
ATOM     25  C   UNL     1      -3.745   4.141  26.360  0.00  0.00    +0.026 A 
ATOM     27  C   UNL     1      -0.928   5.030  25.344  0.00  0.00    +0.149 C 
ATOM     28  C   UNL     1      -5.682   2.884  25.605  0.00  0.00    +0.001 A 
ATOM     29  C   UNL     1      -5.026   3.630  26.583  0.00  0.00    +0.002 A 
ENDBRANCH  18  19
ENDBRANCH   5  18
ENDBRANCH  10   5
BRANCH  12  16
ATOM     16  C   UNL     1      -0.472  -0.344  26.397  0.00  0.00    +0.029 C 
BRANCH  16  17
ATOM     17  C   UNL     1      -0.582   1.051  25.797  0.00  0.00    +0.097 C 
BRANCH  17  20
ATOM      2  O   UNL     1       0.897   2.294  24.337  0.00  0.00    -0.276 OA
ATOM      8  N   UNL     1       0.444   0.068  23.857  0.00  0.00    -0.311 N 
ATOM     20  C   UNL     1       0.333   1.234  24.600  0.00  0.00    +0.213 C 
ATOM     39  H   UNL     1      -0.079  -0.759  24.130  0.00  0.00    +0.149 HD
BRANCH   8  26
ATOM     26  C   UNL     1       1.258  -0.014  22.668  0.00  0.00    +0.139 C 
BRANCH  26  30
ATOM     30  C   UNL     1       2.723  -0.071  22.991  0.00  0.00    -0.030 A 
ATOM     31  C   UNL     1       3.537   1.031  22.732  0.00  0.00    +0.009 A 
ATOM     32  C   UNL     1       3.268  -1.225  23.554  0.00  0.00    +0.009 A 
ATOM     33  C   UNL     1       4.899   0.978  23.034  0.00  0.00    +0.046 A 
ATOM     34  C   UNL     1       4.629  -1.278  23.854  0.00  0.00    +0.046 A 
ATOM     35  C   UNL     1       5.445  -0.176  23.594  0.00  0.00    +0.120 A 
BRANCH  35   3
ATOM      3  O   UNL     1       6.772  -0.227  23.889  0.00  0.00    -0.495 OA
ATOM     36  C   UNL     1       7.654  -0.641  22.846  0.00  0.00    +0.277 C 
ENDBRANCH  35   3
ENDBRANCH  26  30
ENDBRANCH   8  26
ENDBRANCH  17  20
ENDBRANCH  16  17
ENDBRANCH  12  16
TORSDOF 9
ENDMDL
MODEL 5
REMARK VINA RESULT:       4.6      2.012      7.329
REMARK  Name = 45360665
REMARK  11 active torsions:
REMARK  status: ('A' for Active; 'I' for Inactive)
REMARK    1  A    between atoms: O_3  and  C_35
REMARK    2  A    between atoms: O_3  and  C_36
REMARK    3  A    between atoms: N_5  and  C_10
REMARK    4  A    between atoms: N_5  and  C_18
REMARK    5  A    between atoms: N_7  and  C_27
REMARK    6  A    between atoms: N_8  and  C_26
REMARK    7  A    between atoms: C_12  and  C_16
REMARK    8  A    between atoms: C_16  and  C_17
REMARK    9  A    between atoms: C_17  and  C_20
REMARK   10  A    between atoms: C_18  and  C_19
REMARK   11  A    between atoms: C_26  and  C_30
REMARK                            x       y       z     vdW  Elec       q    Type
REMARK                         _______ _______ _______ _____ _____    ______ ____
ROOT
ATOM      1  O   UNL     1      -4.041  -3.680  23.848  0.00  0.00    -0.274 OA
ATOM      4  N   UNL     1      -2.801  -0.815  25.737  0.00  0.00    -0.286 NA
ATOM      6  N   UNL     1      -1.913  -2.923  24.113  0.00  0.00    -0.313 N 
ATOM      9  C   UNL     1      -3.767  -1.866  25.396  0.00  0.00    +0.145 C 
ATOM     10  C   UNL     1      -4.575   0.365  24.885  0.00  0.00    +0.070 C 
ATOM     11  C   UNL     1      -4.986  -1.107  24.849  0.00  0.00    +0.048 C 
ATOM     12  C   UNL     1      -1.425  -1.282  25.870  0.00  0.00    +0.075 C 
ATOM     13  C   UNL     1      -3.055   0.311  24.841  0.00  0.00    +0.104 C 
ATOM     14  C   UNL     1      -0.956  -1.951  24.587  0.00  0.00    +0.123 C 
ATOM     15  C   UNL     1      -3.262  -2.881  24.374  0.00  0.00    +0.230 C 
ATOM     38  H   UNL     1      -1.587  -3.617  23.447  0.00  0.00    +0.149 HD
ENDROOT
BRANCH  10   5
ATOM      5  N   UNL     1      -5.159   1.147  23.806  0.00  0.00    -0.308 NA
ATOM     37  H   UNL     1      -4.458   1.287  23.080  0.00  0.00    +0.123 HD
BRANCH   5  18
ATOM     18  C   UNL     1      -5.611   2.447  24.287  0.00  0.00    +0.118 C 
BRANCH  18  19
ATOM      7  N   UNL     1      -3.514   4.026  26.861  0.00  0.00    -0.349 N 
ATOM     19  C   UNL     1      -4.568   3.129  25.125  0.00  0.00    -0.008 A 
ATOM     21  C   UNL     1      -3.306   3.612  24.677  0.00  0.00    +0.004 A 
ATOM     22  C   UNL     1      -4.667   3.397  26.470  0.00  0.00    +0.091 A 
ATOM     23  C   UNL     1      -2.665   4.170  25.786  0.00  0.00    +0.049 A 
ATOM     24  C   UNL     1      -2.646   3.629  23.433  0.00  0.00    +0.010 A 
ATOM     25  C   UNL     1      -1.392   4.746  25.711  0.00  0.00    +0.026 A 
ATOM     27  C   UNL     1      -3.245   4.470  28.211  0.00  0.00    +0.149 C 
ATOM     28  C   UNL     1      -1.373   4.202  23.343  0.00  0.00    +0.001 A 
ATOM     29  C   UNL     1      -0.757   4.752  24.466  0.00  0.00    +0.002 A 
ENDBRANCH  18  19
ENDBRANCH   5  18
ENDBRANCH  10   5
BRANCH  12  16
ATOM     16  C   UNL     1      -0.461  -0.175  26.296  0.00  0.00    +0.029 C 
BRANCH  16  17
ATOM     17  C   UNL     1      -0.674   1.088  25.473  0.00  0.00    +0.097 C 
BRANCH  17  20
ATOM      2  O   UNL     1       1.104   2.222  24.283  0.00  0.00    -0.276 OA
ATOM      8  N   UNL     1       0.377   0.152  23.523  0.00  0.00    -0.311 N 
ATOM     20  C   UNL     1       0.368   1.242  24.380  0.00  0.00    +0.213 C 
ATOM     39  H   UNL     1      -0.285  -0.606  23.660  0.00  0.00    +0.149 HD
BRANCH   8  26
ATOM     26  C   UNL     1       1.279   0.061  22.401  0.00  0.00    +0.139 C 
BRANCH  26  30
ATOM     30  C   UNL     1       2.709  -0.082  22.837  0.00  0.00    -0.030 A 
ATOM     31  C   UNL     1       3.132  -1.253  23.466  0.00  0.00    +0.009 A 
ATOM     32  C   UNL     1       3.614   0.956  22.612  0.00  0.00    +0.009 A 
ATOM     33  C   UNL     1       4.461  -1.385  23.871  0.00  0.00    +0.046 A 
ATOM     34  C   UNL     1       4.941   0.822  23.017  0.00  0.00    +0.046 A 
ATOM     35  C   UNL     1       5.365  -0.348  23.647  0.00  0.00    +0.120 A 
BRANCH  35   3
ATOM      3  O   UNL     1       6.661  -0.478  24.041  0.00  0.00    -0.495 OA
ATOM     36  C   UNL     1       7.662  -0.359  23.031  0.00  0.00    +0.277 C 
ENDBRANCH  35   3
ENDBRANCH  26  30
ENDBRANCH   8  26
ENDBRANCH  17  20
ENDBRANCH  16  17
ENDBRANCH  12  16
TORSDOF 9
ENDMDL
MODEL 6
REMARK VINA RESULT:       5.1      1.994      7.085
REMARK  Name = 45360665
REMARK  11 active torsions:
REMARK  status: ('A' for Active; 'I' for Inactive)
REMARK    1  A    between atoms: O_3  and  C_35
REMARK    2  A    between atoms: O_3  and  C_36
REMARK    3  A    between atoms: N_5  and  C_10
REMARK    4  A    between atoms: N_5  and  C_18
REMARK    5  A    between atoms: N_7  and  C_27
REMARK    6  A    between atoms: N_8  and  C_26
REMARK    7  A    between atoms: C_12  and  C_16
REMARK    8  A    between atoms: C_16  and  C_17
REMARK    9  A    between atoms: C_17  and  C_20
REMARK   10  A    between atoms: C_18  and  C_19
REMARK   11  A    between atoms: C_26  and  C_30
REMARK                            x       y       z     vdW  Elec       q    Type
REMARK                         _______ _______ _______ _____ _____    ______ ____
ROOT
ATOM      1  O   UNL     1      -2.127   5.956  25.009  0.00  0.00    -0.274 OA
ATOM      4  N   UNL     1      -0.332   2.779  24.959  0.00  0.00    -0.286 NA
ATOM      6  N   UNL     1      -2.224   4.208  26.460  0.00  0.00    -0.313 N 
ATOM      9  C   UNL     1      -0.549   4.189  24.618  0.00  0.00    +0.145 C 
ATOM     10  C   UNL     1      -0.759   2.708  22.705  0.00  0.00    +0.070 C 
ATOM     11  C   UNL     1      -0.808   4.184  23.103  0.00  0.00    +0.048 C 
ATOM     12  C   UNL     1      -0.492   2.472  26.377  0.00  0.00    +0.075 C 
ATOM     13  C   UNL     1      -1.093   1.981  24.000  0.00  0.00    +0.104 C 
ATOM     14  C   UNL     1      -1.879   2.864  26.862  0.00  0.00    +0.123 C 
ATOM     15  C   UNL     1      -1.709   4.848  25.359  0.00  0.00    +0.230 C 
ATOM     38  H   UNL     1      -2.981   4.667  26.958  0.00  0.00    +0.149 HD
ENDROOT
BRANCH  10   5
ATOM      5  N   UNL     1      -1.657   2.383  21.609  0.00  0.00    -0.308 NA
ATOM     37  H   UNL     1      -1.381   2.914  20.784  0.00  0.00    +0.123 HD
BRANCH   5  18
ATOM     18  C   UNL     1      -3.036   2.712  21.946  0.00  0.00    +0.118 C 
BRANCH  18  19
ATOM      7  N   UNL     1      -4.104  -0.087  24.076  0.00  0.00    -0.349 N 
ATOM     19  C   UNL     1      -3.605   1.771  22.969  0.00  0.00    -0.008 A 
ATOM     21  C   UNL     1      -4.414   2.123  24.085  0.00  0.00    +0.004 A 
ATOM     22  C   UNL     1      -3.431   0.407  22.990  0.00  0.00    +0.091 A 
ATOM     23  C   UNL     1      -4.713   0.940  24.763  0.00  0.00    +0.049 A 
ATOM     24  C   UNL     1      -4.921   3.338  24.586  0.00  0.00    +0.010 A 
ATOM     25  C   UNL     1      -5.498   0.911  25.921  0.00  0.00    +0.026 A 
ATOM     27  C   UNL     1      -4.158  -1.488  24.434  0.00  0.00    +0.149 C 
ATOM     28  C   UNL     1      -5.708   3.324  25.743  0.00  0.00    +0.001 A 
ATOM     29  C   UNL     1      -5.991   2.128  26.399  0.00  0.00    +0.002 A 
ENDBRANCH  18  19
ENDBRANCH   5  18
ENDBRANCH  10   5
BRANCH  12  16
ATOM     16  C   UNL     1      -0.188   1.010  26.706  0.00  0.00    +0.029 C 
BRANCH  16  17
ATOM     17  C   UNL     1      -1.185   0.075  26.033  0.00  0.00    +0.097 C 
BRANCH  17  20
ATOM      2  O   UNL     1      -0.701  -2.018  24.917  0.00  0.00    -0.276 OA
ATOM      8  N   UNL     1       0.282  -0.067  24.132  0.00  0.00    -0.311 N 
ATOM     20  C   UNL     1      -0.527  -0.803  24.984  0.00  0.00    +0.213 C 
ATOM     39  H   UNL     1       0.392   0.933  24.275  0.00  0.00    +0.149 HD
BRANCH   8  26
ATOM     26  C   UNL     1       1.018  -0.675  23.050  0.00  0.00    +0.139 C 
BRANCH  26  30
ATOM     30  C   UNL     1       2.496  -0.437  23.171  0.00  0.00    -0.030 A 
ATOM     31  C   UNL     1       3.050   0.757  22.712  0.00  0.00    +0.009 A 
ATOM     32  C   UNL     1       3.313  -1.411  23.747  0.00  0.00    +0.009 A 
ATOM     33  C   UNL     1       4.423   0.977  22.826  0.00  0.00    +0.046 A 
ATOM     34  C   UNL     1       4.685  -1.189  23.859  0.00  0.00    +0.046 A 
ATOM     35  C   UNL     1       5.241   0.004  23.399  0.00  0.00    +0.120 A 
BRANCH  35   3
ATOM      3  O   UNL     1       6.580   0.220  23.511  0.00  0.00    -0.495 OA
ATOM     36  C   UNL     1       7.442  -0.663  22.795  0.00  0.00    +0.277 C 
ENDBRANCH  35   3
ENDBRANCH  26  30
ENDBRANCH   8  26
ENDBRANCH  17  20
ENDBRANCH  16  17
ENDBRANCH  12  16
TORSDOF 9
ENDMDL
MODEL 7
REMARK VINA RESULT:       5.6      1.938      6.736
REMARK  Name = 45360665
REMARK  11 active torsions:
REMARK  status: ('A' for Active; 'I' for Inactive)
REMARK    1  A    between atoms: O_3  and  C_35
REMARK    2  A    between atoms: O_3  and  C_36
REMARK    3  A    between atoms: N_5  and  C_10
REMARK    4  A    between atoms: N_5  and  C_18
REMARK    5  A    between atoms: N_7  and  C_27
REMARK    6  A    between atoms: N_8  and  C_26
REMARK    7  A    between atoms: C_12  and  C_16
REMARK    8  A    between atoms: C_16  and  C_17
REMARK    9  A    between atoms: C_17  and  C_20
REMARK   10  A    between atoms: C_18  and  C_19
REMARK   11  A    between atoms: C_26  and  C_30
REMARK                            x       y       z     vdW  Elec       q    Type
REMARK                         _______ _______ _______ _____ _____    ______ ____
ROOT
ATOM      1  O   UNL     1      -5.638   4.609  25.254  0.00  0.00    -0.274 OA
ATOM      4  N   UNL     1      -2.092   4.001  24.639  0.00  0.00    -0.286 NA
ATOM      6  N   UNL     1      -4.081   3.615  26.580  0.00  0.00    -0.313 N 
ATOM      9  C   UNL     1      -3.381   4.675  24.439  0.00  0.00    +0.145 C 
ATOM     10  C   UNL     1      -2.692   3.360  22.519  0.00  0.00    +0.070 C 
ATOM     11  C   UNL     1      -3.799   4.292  23.011  0.00  0.00    +0.048 C 
ATOM     12  C   UNL     1      -1.701   3.855  26.037  0.00  0.00    +0.075 C 
ATOM     13  C   UNL     1      -2.099   2.802  23.805  0.00  0.00    +0.104 C 
ATOM     14  C   UNL     1      -2.757   3.088  26.817  0.00  0.00    +0.123 C 
ATOM     15  C   UNL     1      -4.463   4.281  25.440  0.00  0.00    +0.230 C 
ATOM     38  H   UNL     1      -4.807   3.377  27.249  0.00  0.00    +0.149 HD
ENDROOT
BRANCH  10   5
ATOM      5  N   UNL     1      -3.172   2.333  21.608  0.00  0.00    -0.308 NA
ATOM     37  H   UNL     1      -4.191   2.358  21.587  0.00  0.00    +0.123 HD
BRANCH   5  18
ATOM     18  C   UNL     1      -2.739   1.008  22.037  0.00  0.00    +0.118 C 
BRANCH  18  19
ATOM      7  N   UNL     1      -4.773   0.533  25.062  0.00  0.00    -0.349 N 
ATOM     19  C   UNL     1      -3.400   0.589  23.319  0.00  0.00    -0.008 A 
ATOM     21  C   UNL     1      -3.039  -0.521  24.133  0.00  0.00    +0.004 A 
ATOM     22  C   UNL     1      -4.468   1.218  23.916  0.00  0.00    +0.091 A 
ATOM     23  C   UNL     1      -3.916  -0.533  25.220  0.00  0.00    +0.049 A 
ATOM     24  C   UNL     1      -2.049  -1.520  24.049  0.00  0.00    +0.010 A 
ATOM     25  C   UNL     1      -3.851  -1.498  26.231  0.00  0.00    +0.026 A 
ATOM     27  C   UNL     1      -5.842   0.895  25.967  0.00  0.00    +0.149 C 
ATOM     28  C   UNL     1      -1.972  -2.491  25.054  0.00  0.00    +0.001 A 
ATOM     29  C   UNL     1      -2.861  -2.478  26.127  0.00  0.00    +0.002 A 
ENDBRANCH  18  19
ENDBRANCH   5  18
ENDBRANCH  10   5
BRANCH  12  16
ATOM     16  C   UNL     1      -0.323   3.215  26.204  0.00  0.00    +0.029 C 
BRANCH  16  17
ATOM     17  C   UNL     1      -0.318   1.778  25.700  0.00  0.00    +0.097 C 
BRANCH  17  20
ATOM      2  O   UNL     1       1.153   2.535  23.933  0.00  0.00    -0.276 OA
ATOM      8  N   UNL     1       0.526   0.300  24.001  0.00  0.00    -0.311 N 
ATOM     20  C   UNL     1       0.536   1.610  24.457  0.00  0.00    +0.213 C 
ATOM     39  H   UNL     1      -0.034  -0.399  24.480  0.00  0.00    +0.149 HD
BRANCH   8  26
ATOM     26  C   UNL     1       1.262  -0.115  22.831  0.00  0.00    +0.139 C 
BRANCH  26  30
ATOM     30  C   UNL     1       2.740  -0.177  23.089  0.00  0.00    -0.030 A 
ATOM     31  C   UNL     1       3.552   0.906  22.754  0.00  0.00    +0.009 A 
ATOM     32  C   UNL     1       3.300  -1.317  23.666  0.00  0.00    +0.009 A 
ATOM     33  C   UNL     1       4.925   0.848  22.994  0.00  0.00    +0.046 A 
ATOM     34  C   UNL     1       4.672  -1.374  23.906  0.00  0.00    +0.046 A 
ATOM     35  C   UNL     1       5.485  -0.292  23.570  0.00  0.00    +0.120 A 
BRANCH  35   3
ATOM      3  O   UNL     1       6.825  -0.347  23.805  0.00  0.00    -0.495 OA
ATOM     36  C   UNL     1       7.663  -0.694  22.704  0.00  0.00    +0.277 C 
ENDBRANCH  35   3
ENDBRANCH  26  30
ENDBRANCH   8  26
ENDBRANCH  17  20
ENDBRANCH  16  17
ENDBRANCH  12  16
TORSDOF 9
ENDMDL
