MODEL 1
REMARK VINA RESULT:       2.0      0.000      0.000
REMARK  Name = 11884672
REMARK  6 active torsions:
REMARK  status: ('A' for Active; 'I' for Inactive)
REMARK    1  A    between atoms: S_1  and  N_9
REMARK    2  A    between atoms: S_1  and  C_23
REMARK    3  A    between atoms: N_11  and  C_21
REMARK    4  A    between atoms: C_26  and  C_30
REMARK    5  A    between atoms: C_28  and  C_31
REMARK    6  A    between atoms: C_31  and  C_32
REMARK                            x       y       z     vdW  Elec       q    Type
REMARK                         _______ _______ _______ _____ _____    ______ ____
ROOT
ATOM      7  O   UNL     1       0.375   1.472  25.921  0.00  0.00    -0.266 OA
ATOM      9  N   UNL     1      -4.436   2.603  25.291  0.00  0.00    -0.176 NA
ATOM     10  N   UNL     1      -1.301   2.750  24.913  0.00  0.00    -0.310 N 
ATOM     12  C   UNL     1      -2.858   4.291  26.238  0.00  0.00    +0.025 C 
ATOM     13  C   UNL     1      -3.118   4.098  23.804  0.00  0.00    +0.052 C 
ATOM     14  C   UNL     1      -2.933   5.093  24.946  0.00  0.00    +0.017 C 
ATOM     15  C   UNL     1      -4.154   3.493  26.454  0.00  0.00    +0.114 C 
ATOM     16  C   UNL     1      -4.444   3.339  23.992  0.00  0.00    +0.119 C 
ATOM     17  C   UNL     1      -1.617   3.391  26.196  0.00  0.00    +0.130 C 
ATOM     18  C   UNL     1      -1.957   3.125  23.735  0.00  0.00    +0.026 A 
ATOM     19  C   UNL     1      -1.574   2.607  22.556  0.00  0.00    +0.024 A 
ATOM     20  C   UNL     1      -0.242   1.820  24.913  0.00  0.00    +0.273 A 
ATOM     21  C   UNL     1       0.138   1.249  23.582  0.00  0.00    +0.099 A 
ATOM     22  C   UNL     1      -0.507   1.650  22.481  0.00  0.00    +0.030 A 
ENDROOT
BRANCH  21  11
ATOM      8  O   UNL     1       0.888  -0.355  21.334  0.00  0.00    -0.275 OA
ATOM     11  N   UNL     1       1.150   0.336  23.542  0.00  0.00    -0.281 N 
ATOM     28  C   UNL     1       1.466  -0.415  22.416  0.00  0.00    +0.222 C 
ATOM     38  H   UNL     1       1.529   0.044  24.439  0.00  0.00    +0.155 HD
BRANCH  28  31
ATOM     31  C   UNL     1       2.638  -1.341  22.684  0.00  0.00    +0.131 C 
BRANCH  31  32
ATOM     32  C   UNL     1       3.857  -0.625  23.205  0.00  0.00    -0.039 A 
ATOM     33  C   UNL     1       4.760  -1.310  24.007  0.00  0.00    +0.004 A 
ATOM     34  C   UNL     1       4.058   0.708  22.879  0.00  0.00    +0.004 A 
ATOM     35  C   UNL     1       5.888  -0.646  24.490  0.00  0.00    +0.000 A 
ATOM     36  C   UNL     1       5.185   1.371  23.362  0.00  0.00    +0.000 A 
ATOM     37  C   UNL     1       6.101   0.694  24.168  0.00  0.00    +0.000 A 
ENDBRANCH  31  32
ENDBRANCH  28  31
ENDBRANCH  21  11
BRANCH   9   1
ATOM      1  S   UNL     1      -5.706   1.477  25.512  0.00  0.00    +0.061 S 
ATOM      5  O   UNL     1      -6.766   1.769  24.571  0.00  0.00    -0.153 OA
ATOM      6  O   UNL     1      -5.981   1.349  26.928  0.00  0.00    -0.153 OA
BRANCH   1  23
ATOM     23  C   UNL     1      -4.904  -0.002  24.977  0.00  0.00    +0.106 A 
ATOM     24  C   UNL     1      -3.608  -0.258  25.391  0.00  0.00    +0.041 A 
ATOM     25  C   UNL     1      -5.586  -0.882  24.152  0.00  0.00    +0.028 A 
ATOM     26  C   UNL     1      -2.974  -1.427  24.966  0.00  0.00    +0.057 A 
ATOM     27  C   UNL     1      -4.953  -2.050  23.727  0.00  0.00    +0.002 A 
ATOM     29  C   UNL     1      -3.647  -2.322  24.135  0.00  0.00    +0.012 A 
BRANCH  26  30
ATOM      2  F   UNL     1      -1.363  -3.032  25.706  0.00  0.00    -0.166 F 
ATOM      3  F   UNL     1      -0.638  -1.413  24.459  0.00  0.00    -0.166 F 
ATOM      4  F   UNL     1      -1.218  -1.020  26.517  0.00  0.00    -0.166 F 
ATOM     30  C   UNL     1      -1.578  -1.718  25.401  0.00  0.00    +0.417 C 
ENDBRANCH  26  30
ENDBRANCH   1  23
ENDBRANCH   9   1
TORSDOF 6
ENDMDL
MODEL 2
REMARK VINA RESULT:       5.3      1.899      4.164
REMARK  Name = 11884672
REMARK  6 active torsions:
REMARK  status: ('A' for Active; 'I' for Inactive)
REMARK    1  A    between atoms: S_1  and  N_9
REMARK    2  A    between atoms: S_1  and  C_23
REMARK    3  A    between atoms: N_11  and  C_21
REMARK    4  A    between atoms: C_26  and  C_30
REMARK    5  A    between atoms: C_28  and  C_31
REMARK    6  A    between atoms: C_31  and  C_32
REMARK                            x       y       z     vdW  Elec       q    Type
REMARK                         _______ _______ _______ _____ _____    ______ ____
ROOT
ATOM      7  O   UNL     1      -1.046   0.354  21.914  0.00  0.00    -0.266 OA
ATOM      9  N   UNL     1      -4.643   1.150  25.268  0.00  0.00    -0.176 NA
ATOM     10  N   UNL     1      -2.367  -0.381  23.695  0.00  0.00    -0.310 N 
ATOM     12  C   UNL     1      -4.911  -0.622  23.529  0.00  0.00    +0.025 C 
ATOM     13  C   UNL     1      -3.773  -1.151  25.640  0.00  0.00    +0.052 C 
ATOM     14  C   UNL     1      -4.737  -1.699  24.592  0.00  0.00    +0.017 C 
ATOM     15  C   UNL     1      -5.496   0.658  24.148  0.00  0.00    +0.114 C 
ATOM     16  C   UNL     1      -4.384   0.100  26.299  0.00  0.00    +0.119 C 
ATOM     17  C   UNL     1      -3.563  -0.377  22.841  0.00  0.00    +0.130 C 
ATOM     18  C   UNL     1      -2.428  -0.819  25.023  0.00  0.00    +0.026 A 
ATOM     19  C   UNL     1      -1.303  -0.921  25.751  0.00  0.00    +0.024 A 
ATOM     20  C   UNL     1      -1.150  -0.022  23.082  0.00  0.00    +0.273 A 
ATOM     21  C   UNL     1       0.077  -0.128  23.935  0.00  0.00    +0.099 A 
ATOM     22  C   UNL     1      -0.028  -0.567  25.194  0.00  0.00    +0.030 A 
ENDROOT
BRANCH  21  11
ATOM      8  O   UNL     1       1.048  -0.899  21.356  0.00  0.00    -0.275 OA
ATOM     11  N   UNL     1       1.273   0.223  23.384  0.00  0.00    -0.281 N 
ATOM     28  C   UNL     1       1.690  -0.184  22.122  0.00  0.00    +0.222 C 
ATOM     38  H   UNL     1       1.966   0.608  24.020  0.00  0.00    +0.155 HD
BRANCH  28  31
ATOM     31  C   UNL     1       3.063   0.369  21.791  0.00  0.00    +0.131 C 
BRANCH  31  32
ATOM     32  C   UNL     1       4.113   0.007  22.807  0.00  0.00    -0.039 A 
ATOM     33  C   UNL     1       4.999   0.979  23.252  0.00  0.00    +0.004 A 
ATOM     34  C   UNL     1       4.183  -1.294  23.285  0.00  0.00    +0.004 A 
ATOM     35  C   UNL     1       5.971   0.644  24.194  0.00  0.00    +0.000 A 
ATOM     36  C   UNL     1       5.156  -1.630  24.226  0.00  0.00    +0.000 A 
ATOM     37  C   UNL     1       6.051  -0.661  24.680  0.00  0.00    +0.000 A 
ENDBRANCH  31  32
ENDBRANCH  28  31
ENDBRANCH  21  11
BRANCH   9   1
ATOM      1  S   UNL     1      -5.039   2.700  25.875  0.00  0.00    +0.061 S 
ATOM      5  O   UNL     1      -5.271   2.606  27.301  0.00  0.00    -0.153 OA
ATOM      6  O   UNL     1      -6.018   3.312  25.001  0.00  0.00    -0.153 OA
BRANCH   1  23
ATOM     23  C   UNL     1      -3.500   3.530  25.634  0.00  0.00    +0.106 A 
ATOM     24  C   UNL     1      -2.320   2.871  25.933  0.00  0.00    +0.041 A 
ATOM     25  C   UNL     1      -3.500   4.829  25.150  0.00  0.00    +0.028 A 
ATOM     26  C   UNL     1      -1.104   3.529  25.745  0.00  0.00    +0.057 A 
ATOM     27  C   UNL     1      -2.285   5.486  24.961  0.00  0.00    +0.002 A 
ATOM     29  C   UNL     1      -1.087   4.836  25.258  0.00  0.00    +0.012 A 
BRANCH  26  30
ATOM      2  F   UNL     1       0.877   2.445  24.957  0.00  0.00    -0.166 F 
ATOM      3  F   UNL     1       1.048   3.600  26.784  0.00  0.00    -0.166 F 
ATOM      4  F   UNL     1      -0.009   1.700  26.798  0.00  0.00    -0.166 F 
ATOM     30  C   UNL     1       0.177   2.835  26.063  0.00  0.00    +0.417 C 
ENDBRANCH  26  30
ENDBRANCH   1  23
ENDBRANCH   9   1
TORSDOF 6
ENDMDL
