MODEL 1
REMARK VINA RESULT:      -2.5      0.000      0.000
REMARK  Name = 11912310
REMARK  12 active torsions:
REMARK  status: ('A' for Active; 'I' for Inactive)
REMARK    1  A    between atoms: O_4  and  C_21
REMARK    2  A    between atoms: N_6  and  CA_17
REMARK    3  A    between atoms: C_7  and  C_12
REMARK    4  A    between atoms: C_8  and  C_13
REMARK    5  A    between atoms: C_12  and  C_14
REMARK    6  A    between atoms: C_13  and  C_15
REMARK    7  A    between atoms: C_16  and  C_19
REMARK    8  A    between atoms: CA_17  and  CB_18
REMARK    9  A    between atoms: CA_17  and  C_21
REMARK   10  A    between atoms: CB_18  and  CG_20
REMARK   11  A    between atoms: CG_20  and  CD1_22
REMARK   12  A    between atoms: CG_20  and  CD2_23
REMARK                            x       y       z     vdW  Elec       q    Type
REMARK                         _______ _______ _______ _____ _____    ______ ____
ROOT
ATOM      3  O   UNL     1       0.414  -0.921  22.180  0.00  0.00    -0.270 OA
ATOM      5  N   UNL     1       0.261   1.291  22.928  0.00  0.00    -0.297 N 
ATOM      7  C   UNL     1      -1.379   3.077  24.511  0.00  0.00    +0.004 C 
ATOM      8  C   UNL     1       0.137   2.923  24.797  0.00  0.00    +0.010 C 
ATOM      9  C   UNL     1      -1.961   1.814  23.854  0.00  0.00    +0.023 C 
ATOM     10  C   UNL     1       0.872   2.491  23.516  0.00  0.00    +0.112 C 
ATOM     11  C   UNL     1      -1.161   1.415  22.616  0.00  0.00    +0.108 C 
ATOM     16  C   UNL     1       0.922   0.088  22.666  0.00  0.00    +0.247 C 
ENDROOT
BRANCH  16  19
ATOM      1  F   UNL     1       6.369  -0.247  23.902  0.00  0.00    -0.205 F 
ATOM     19  C   UNL     1       2.350   0.001  22.991  0.00  0.00    +0.037 A 
ATOM     24  C   UNL     1       2.866  -1.163  23.561  0.00  0.00    +0.016 A 
ATOM     25  C   UNL     1       3.193   1.082  22.729  0.00  0.00    +0.016 A 
ATOM     26  C   UNL     1       4.223  -1.247  23.868  0.00  0.00    +0.039 A 
ATOM     27  C   UNL     1       4.550   0.997  23.037  0.00  0.00    +0.039 A 
ATOM     28  C   UNL     1       5.066  -0.166  23.607  0.00  0.00    +0.123 A 
ENDBRANCH  16  19
BRANCH   8  13
ATOM     13  C   UNL     1       0.458   1.959  25.946  0.00  0.00    +0.002 C 
ATOM     15  C   UNL     1       0.638   2.706  27.251  0.00  0.00    +0.004 C 
ENDBRANCH   8  13
BRANCH   7  12
ATOM     12  C   UNL     1      -2.189   3.463  25.748  0.00  0.00    +0.099 C 
BRANCH  12  14
ATOM      2  O   UNL     1      -4.599   3.648  25.839  0.00  0.00    -0.276 OA
ATOM      6  N   UNL     1      -3.627   1.571  25.458  0.00  0.00    -0.310 N 
ATOM     14  C   ACE A   0      -3.607   2.939  25.691  0.00  0.00    +0.214 C 
ATOM     29  H   UNL     1      -2.746   1.067  25.411  0.00  0.00    +0.149 HD
BRANCH   6  17
ATOM     17  CA  UNL     1      -4.847   0.804  25.359  0.00  0.00    +0.098 C 
BRANCH  17  18
ATOM     18  CB  UNL     1      -4.725  -0.290  24.283  0.00  0.00    +0.027 C 
BRANCH  18  20
ATOM     20  CG  UNL     1      -3.617  -1.336  24.539  0.00  0.00    -0.015 C 
ATOM     22  CD1 UNL     1      -4.023  -2.677  23.922  0.00  0.00    +0.007 C 
ATOM     23  CD2 UNL     1      -3.321  -1.523  26.027  0.00  0.00    +0.007 C 
ENDBRANCH  18  20
ENDBRANCH  17  18
BRANCH  17  21
ATOM     21  C   UNL     1      -6.033   1.738  25.091  0.00  0.00    +0.178 C 
BRANCH  21   4
ATOM      4  O   UNL     1      -6.777   1.961  26.281  0.00  0.00    -0.393 OA
ATOM     30  H   UNL     1      -6.155   1.895  27.025  0.00  0.00    +0.209 HD
ENDBRANCH  21   4
ENDBRANCH  17  21
ENDBRANCH   6  17
ENDBRANCH  12  14
ENDBRANCH   7  12
TORSDOF 9
ENDMDL
MODEL 2
REMARK VINA RESULT:      -2.4      1.592      3.123
REMARK  Name = 11912310
REMARK  12 active torsions:
REMARK  status: ('A' for Active; 'I' for Inactive)
REMARK    1  A    between atoms: O_4  and  C_21
REMARK    2  A    between atoms: N_6  and  CA_17
REMARK    3  A    between atoms: C_7  and  C_12
REMARK    4  A    between atoms: C_8  and  C_13
REMARK    5  A    between atoms: C_12  and  C_14
REMARK    6  A    between atoms: C_13  and  C_15
REMARK    7  A    between atoms: C_16  and  C_19
REMARK    8  A    between atoms: CA_17  and  CB_18
REMARK    9  A    between atoms: CA_17  and  C_21
REMARK   10  A    between atoms: CB_18  and  CG_20
REMARK   11  A    between atoms: CG_20  and  CD1_22
REMARK   12  A    between atoms: CG_20  and  CD2_23
REMARK                            x       y       z     vdW  Elec       q    Type
REMARK                         _______ _______ _______ _____ _____    ______ ____
ROOT
ATOM      3  O   UNL     1       1.511  -0.275  20.982  0.00  0.00    -0.270 OA
ATOM      5  N   UNL     1       0.509   0.483  22.956  0.00  0.00    -0.297 N 
ATOM      7  C   UNL     1      -1.878   0.215  24.575  0.00  0.00    +0.004 C 
ATOM      8  C   UNL     1      -0.469   0.006  25.190  0.00  0.00    +0.010 C 
ATOM      9  C   UNL     1      -1.886  -0.086  23.066  0.00  0.00    +0.023 C 
ATOM     10  C   UNL     1       0.577   0.802  24.388  0.00  0.00    +0.112 C 
ATOM     11  C   UNL     1      -0.798   0.700  22.339  0.00  0.00    +0.108 C 
ATOM     16  C   UNL     1       1.565  -0.001  22.180  0.00  0.00    +0.247 C 
ENDROOT
BRANCH  16  19
ATOM      1  F   UNL     1       6.514  -0.781  24.672  0.00  0.00    -0.205 F 
ATOM     19  C   UNL     1       2.863  -0.206  22.833  0.00  0.00    +0.037 A 
ATOM     24  C   UNL     1       3.800   0.827  22.861  0.00  0.00    +0.016 A 
ATOM     25  C   UNL     1       3.159  -1.433  23.426  0.00  0.00    +0.016 A 
ATOM     26  C   UNL     1       5.033   0.633  23.482  0.00  0.00    +0.039 A 
ATOM     27  C   UNL     1       4.393  -1.627  24.047  0.00  0.00    +0.039 A 
ATOM     28  C   UNL     1       5.330  -0.595  24.075  0.00  0.00    +0.123 A 
ENDBRANCH  16  19
BRANCH   8  13
ATOM     13  C   UNL     1      -0.051  -1.465  25.297  0.00  0.00    +0.002 C 
ATOM     15  C   UNL     1      -1.063  -2.371  24.629  0.00  0.00    +0.004 C 
ENDBRANCH   8  13
BRANCH   7  12
ATOM     12  C   UNL     1      -2.970  -0.579  25.289  0.00  0.00    +0.099 C 
BRANCH  12  14
ATOM      2  O   UNL     1      -5.302  -0.693  24.656  0.00  0.00    -0.276 OA
ATOM      6  N   UNL     1      -4.385   1.351  25.277  0.00  0.00    -0.310 N 
ATOM     14  C   ACE A   0      -4.350  -0.014  25.033  0.00  0.00    +0.214 C 
ATOM     29  H   UNL     1      -3.525   1.829  25.528  0.00  0.00    +0.149 HD
BRANCH   6  17
ATOM     17  CA  UNL     1      -5.576   2.152  25.111  0.00  0.00    +0.098 C 
BRANCH  17  18
ATOM     18  CB  UNL     1      -5.270   3.646  25.325  0.00  0.00    +0.027 C 
BRANCH  18  20
ATOM     20  CG  UNL     1      -3.962   4.144  24.672  0.00  0.00    -0.015 C 
ATOM     22  CD1 UNL     1      -3.668   3.320  23.415  0.00  0.00    +0.007 C 
ATOM     23  CD2 UNL     1      -2.768   4.073  25.624  0.00  0.00    +0.007 C 
ENDBRANCH  18  20
ENDBRANCH  17  18
BRANCH  17  21
ATOM     21  C   UNL     1      -6.678   1.654  26.052  0.00  0.00    +0.178 C 
BRANCH  21   4
ATOM      4  O   UNL     1      -6.561   2.262  27.332  0.00  0.00    -0.393 OA
ATOM     30  H   UNL     1      -6.318   1.561  27.960  0.00  0.00    +0.209 HD
ENDBRANCH  21   4
ENDBRANCH  17  21
ENDBRANCH   6  17
ENDBRANCH  12  14
ENDBRANCH   7  12
TORSDOF 9
ENDMDL
MODEL 3
REMARK VINA RESULT:      -2.1      2.134      4.305
REMARK  Name = 11912310
REMARK  12 active torsions:
REMARK  status: ('A' for Active; 'I' for Inactive)
REMARK    1  A    between atoms: O_4  and  C_21
REMARK    2  A    between atoms: N_6  and  CA_17
REMARK    3  A    between atoms: C_7  and  C_12
REMARK    4  A    between atoms: C_8  and  C_13
REMARK    5  A    between atoms: C_12  and  C_14
REMARK    6  A    between atoms: C_13  and  C_15
REMARK    7  A    between atoms: C_16  and  C_19
REMARK    8  A    between atoms: CA_17  and  CB_18
REMARK    9  A    between atoms: CA_17  and  C_21
REMARK   10  A    between atoms: CB_18  and  CG_20
REMARK   11  A    between atoms: CG_20  and  CD1_22
REMARK   12  A    between atoms: CG_20  and  CD2_23
REMARK                            x       y       z     vdW  Elec       q    Type
REMARK                         _______ _______ _______ _____ _____    ______ ____
ROOT
ATOM      3  O   UNL     1      -0.479  -0.682  26.565  0.00  0.00    -0.270 OA
ATOM      5  N   UNL     1      -2.206  -0.816  24.991  0.00  0.00    -0.297 N 
ATOM      7  C   UNL     1      -4.935   0.016  24.493  0.00  0.00    +0.004 C 
ATOM      8  C   UNL     1      -3.812   0.305  23.463  0.00  0.00    +0.010 C 
ATOM      9  C   UNL     1      -4.374  -0.106  25.920  0.00  0.00    +0.023 C 
ATOM     10  C   UNL     1      -2.688  -0.736  23.606  0.00  0.00    +0.112 C 
ATOM     11  C   UNL     1      -3.235  -1.120  25.983  0.00  0.00    +0.108 C 
ATOM     16  C   UNL     1      -0.886  -0.622  25.405  0.00  0.00    +0.247 C 
ENDROOT
BRANCH  16  19
ATOM      1  F   UNL     1       2.955   0.530  21.503  0.00  0.00    -0.205 F 
ATOM     19  C   UNL     1       0.121  -0.320  24.381  0.00  0.00    +0.037 A 
ATOM     24  C   UNL     1       0.700   0.947  24.326  0.00  0.00    +0.016 A 
ATOM     25  C   UNL     1       0.499  -1.301  23.464  0.00  0.00    +0.016 A 
ATOM     26  C   UNL     1       1.658   1.235  23.354  0.00  0.00    +0.039 A 
ATOM     27  C   UNL     1       1.457  -1.013  22.492  0.00  0.00    +0.039 A 
ATOM     28  C   UNL     1       2.036   0.254  22.436  0.00  0.00    +0.123 A 
ENDBRANCH  16  19
BRANCH   8  13
ATOM     13  C   UNL     1      -3.238   1.725  23.552  0.00  0.00    +0.002 C 
ATOM     15  C   UNL     1      -2.364   2.035  22.355  0.00  0.00    +0.004 C 
ENDBRANCH   8  13
BRANCH   7  12
ATOM     12  C   UNL     1      -6.072   1.034  24.445  0.00  0.00    +0.099 C 
BRANCH  12  14
ATOM      2  O   UNL     1      -6.318   2.355  26.457  0.00  0.00    -0.276 OA
ATOM      6  N   UNL     1      -4.952   3.129  24.743  0.00  0.00    -0.310 N 
ATOM     14  C   ACE A   0      -5.815   2.224  25.344  0.00  0.00    +0.214 C 
ATOM     29  H   UNL     1      -4.639   2.954  23.792  0.00  0.00    +0.149 HD
BRANCH   6  17
ATOM     17  CA  UNL     1      -4.534   4.360  25.373  0.00  0.00    +0.098 C 
BRANCH  17  18
ATOM     18  CB  UNL     1      -3.270   4.141  26.225  0.00  0.00    +0.027 C 
BRANCH  18  20
ATOM     20  CG  UNL     1      -1.970   3.923  25.420  0.00  0.00    -0.015 C 
ATOM     22  CD1 UNL     1      -1.011   3.036  26.220  0.00  0.00    +0.007 C 
ATOM     23  CD2 UNL     1      -1.275   5.238  25.062  0.00  0.00    +0.007 C 
ENDBRANCH  18  20
ENDBRANCH  17  18
BRANCH  17  21
ATOM     21  C   UNL     1      -5.685   4.943  26.199  0.00  0.00    +0.178 C 
BRANCH  21   4
ATOM      4  O   UNL     1      -6.759   5.340  25.357  0.00  0.00    -0.393 OA
ATOM     30  H   UNL     1      -6.407   5.397  24.453  0.00  0.00    +0.209 HD
ENDBRANCH  21   4
ENDBRANCH  17  21
ENDBRANCH   6  17
ENDBRANCH  12  14
ENDBRANCH   7  12
TORSDOF 9
ENDMDL
MODEL 4
REMARK VINA RESULT:      -1.1      3.183      7.810
REMARK  Name = 11912310
REMARK  12 active torsions:
REMARK  status: ('A' for Active; 'I' for Inactive)
REMARK    1  A    between atoms: O_4  and  C_21
REMARK    2  A    between atoms: N_6  and  CA_17
REMARK    3  A    between atoms: C_7  and  C_12
REMARK    4  A    between atoms: C_8  and  C_13
REMARK    5  A    between atoms: C_12  and  C_14
REMARK    6  A    between atoms: C_13  and  C_15
REMARK    7  A    between atoms: C_16  and  C_19
REMARK    8  A    between atoms: CA_17  and  CB_18
REMARK    9  A    between atoms: CA_17  and  C_21
REMARK   10  A    between atoms: CB_18  and  CG_20
REMARK   11  A    between atoms: CG_20  and  CD1_22
REMARK   12  A    between atoms: CG_20  and  CD2_23
REMARK                            x       y       z     vdW  Elec       q    Type
REMARK                         _______ _______ _______ _____ _____    ______ ____
ROOT
ATOM      3  O   UNL     1      -5.243  -0.903  23.648  0.00  0.00    -0.270 OA
ATOM      5  N   UNL     1      -3.433  -0.947  25.129  0.00  0.00    -0.297 N 
ATOM      7  C   UNL     1      -0.655  -1.736  25.345  0.00  0.00    +0.004 C 
ATOM      8  C   UNL     1      -1.103  -0.294  25.695  0.00  0.00    +0.010 C 
ATOM      9  C   UNL     1      -1.605  -2.393  24.329  0.00  0.00    +0.023 C 
ATOM     10  C   UNL     1      -2.579  -0.294  26.131  0.00  0.00    +0.112 C 
ATOM     11  C   UNL     1      -3.055  -2.320  24.801  0.00  0.00    +0.108 C 
ATOM     16  C   UNL     1      -4.530  -0.363  24.492  0.00  0.00    +0.247 C 
ENDROOT
BRANCH  16  19
ATOM      1  F   UNL     1      -5.867   4.900  25.845  0.00  0.00    -0.205 F 
ATOM     19  C   UNL     1      -4.880   1.017  24.847  0.00  0.00    +0.037 A 
ATOM     24  C   UNL     1      -4.227   2.084  24.230  0.00  0.00    +0.016 A 
ATOM     25  C   UNL     1      -5.867   1.263  25.802  0.00  0.00    +0.016 A 
ATOM     26  C   UNL     1      -4.560   3.395  24.566  0.00  0.00    +0.039 A 
ATOM     27  C   UNL     1      -6.200   2.575  26.139  0.00  0.00    +0.039 A 
ATOM     28  C   UNL     1      -5.546   3.641  25.521  0.00  0.00    +0.123 A 
ENDBRANCH  16  19
BRANCH   8  13
ATOM     13  C   UNL     1      -0.883   0.717  24.563  0.00  0.00    +0.002 C 
ATOM     15  C   UNL     1      -1.013   2.139  25.068  0.00  0.00    +0.004 C 
ENDBRANCH   8  13
BRANCH   7  12
ATOM     12  C   UNL     1       0.792  -1.816  24.859  0.00  0.00    +0.099 C 
BRANCH  12  14
ATOM      2  O   UNL     1       0.174  -0.708  22.799  0.00  0.00    -0.276 OA
ATOM      6  N   UNL     1       2.343  -0.491  23.605  0.00  0.00    -0.310 N 
ATOM     14  C   ACE A   0       1.035  -0.953  23.640  0.00  0.00    +0.214 C 
ATOM     29  H   UNL     1       2.994  -0.803  24.321  0.00  0.00    +0.149 HD
BRANCH   6  17
ATOM     17  CA  UNL     1       2.855   0.352  22.550  0.00  0.00    +0.098 C 
BRANCH  17  18
ATOM     18  CB  UNL     1       4.379   0.187  22.402  0.00  0.00    +0.027 C 
BRANCH  18  20
ATOM     20  CG  UNL     1       5.116  -0.245  23.689  0.00  0.00    -0.015 C 
ATOM     22  CD1 UNL     1       6.596   0.138  23.588  0.00  0.00    +0.007 C 
ATOM     23  CD2 UNL     1       4.992  -1.746  23.960  0.00  0.00    +0.007 C 
ENDBRANCH  18  20
ENDBRANCH  17  18
BRANCH  17  21
ATOM     21  C   UNL     1       2.462   1.811  22.808  0.00  0.00    +0.178 C 
BRANCH  21   4
ATOM      4  O   UNL     1       1.635   1.914  23.959  0.00  0.00    -0.393 OA
ATOM     30  H   UNL     1       1.812   1.133  24.510  0.00  0.00    +0.209 HD
ENDBRANCH  21   4
ENDBRANCH  17  21
ENDBRANCH   6  17
ENDBRANCH  12  14
ENDBRANCH   7  12
TORSDOF 9
ENDMDL
MODEL 5
REMARK VINA RESULT:       0.9      1.973      3.900
REMARK  Name = 11912310
REMARK  12 active torsions:
REMARK  status: ('A' for Active; 'I' for Inactive)
REMARK    1  A    between atoms: O_4  and  C_21
REMARK    2  A    between atoms: N_6  and  CA_17
REMARK    3  A    between atoms: C_7  and  C_12
REMARK    4  A    between atoms: C_8  and  C_13
REMARK    5  A    between atoms: C_12  and  C_14
REMARK    6  A    between atoms: C_13  and  C_15
REMARK    7  A    between atoms: C_16  and  C_19
REMARK    8  A    between atoms: CA_17  and  CB_18
REMARK    9  A    between atoms: CA_17  and  C_21
REMARK   10  A    between atoms: CB_18  and  CG_20
REMARK   11  A    between atoms: CG_20  and  CD1_22
REMARK   12  A    between atoms: CG_20  and  CD2_23
REMARK                            x       y       z     vdW  Elec       q    Type
REMARK                         _______ _______ _______ _____ _____    ______ ____
ROOT
ATOM      3  O   UNL     1       0.386  -2.913  25.464  0.00  0.00    -0.270 OA
ATOM      5  N   UNL     1      -1.389  -1.737  24.493  0.00  0.00    -0.297 N 
ATOM      7  C   UNL     1      -3.891  -0.420  25.118  0.00  0.00    +0.004 C 
ATOM      8  C   UNL     1      -2.774   0.320  24.339  0.00  0.00    +0.010 C 
ATOM      9  C   UNL     1      -3.315  -1.529  26.015  0.00  0.00    +0.023 C 
ATOM     10  C   UNL     1      -1.895  -0.696  23.588  0.00  0.00    +0.112 C 
ATOM     11  C   UNL     1      -2.420  -2.475  25.219  0.00  0.00    +0.108 C 
ATOM     16  C   UNL     1      -0.043  -2.048  24.702  0.00  0.00    +0.247 C 
ENDROOT
BRANCH  16  19
ATOM      1  F   UNL     1       3.801   0.855  21.854  0.00  0.00    -0.205 F 
ATOM     19  C   UNL     1       0.965  -1.286  23.956  0.00  0.00    +0.037 A 
ATOM     24  C   UNL     1       2.321  -1.477  24.221  0.00  0.00    +0.016 A 
ATOM     25  C   UNL     1       0.567  -0.371  22.981  0.00  0.00    +0.016 A 
ATOM     26  C   UNL     1       3.279  -0.754  23.511  0.00  0.00    +0.039 A 
ATOM     27  C   UNL     1       1.525   0.352  22.272  0.00  0.00    +0.039 A 
ATOM     28  C   UNL     1       2.881   0.161  22.536  0.00  0.00    +0.123 A 
ENDBRANCH  16  19
BRANCH   8  13
ATOM     13  C   UNL     1      -1.904   1.231  25.216  0.00  0.00    +0.002 C 
ATOM     15  C   UNL     1      -0.789   1.862  24.408  0.00  0.00    +0.004 C 
ENDBRANCH   8  13
BRANCH   7  12
ATOM     12  C   UNL     1      -4.784   0.519  25.928  0.00  0.00    +0.099 C 
BRANCH  12  14
ATOM      2  O   UNL     1      -6.353   1.611  24.446  0.00  0.00    -0.276 OA
ATOM      6  N   UNL     1      -4.470   2.767  25.166  0.00  0.00    -0.310 N 
ATOM     14  C   ACE A   0      -5.312   1.667  25.096  0.00  0.00    +0.214 C 
ATOM     29  H   UNL     1      -3.600   2.688  25.686  0.00  0.00    +0.149 HD
BRANCH   6  17
ATOM     17  CA  UNL     1      -4.726   4.004  24.466  0.00  0.00    +0.098 C 
BRANCH  17  18
ATOM     18  CB  UNL     1      -3.419   4.781  24.224  0.00  0.00    +0.027 C 
BRANCH  18  20
ATOM     20  CG  UNL     1      -2.250   4.401  25.159  0.00  0.00    -0.015 C 
ATOM     22  CD1 UNL     1      -2.713   4.471  26.617  0.00  0.00    +0.007 C 
ATOM     23  CD2 UNL     1      -1.028   5.300  24.964  0.00  0.00    +0.007 C 
ENDBRANCH  18  20
ENDBRANCH  17  18
BRANCH  17  21
ATOM     21  C   UNL     1      -5.753   4.840  25.238  0.00  0.00    +0.178 C 
BRANCH  21   4
ATOM      4  O   UNL     1      -6.513   4.020  26.116  0.00  0.00    -0.393 OA
ATOM     30  H   UNL     1      -6.653   3.171  25.664  0.00  0.00    +0.209 HD
ENDBRANCH  21   4
ENDBRANCH  17  21
ENDBRANCH   6  17
ENDBRANCH  12  14
ENDBRANCH   7  12
TORSDOF 9
ENDMDL
MODEL 6
REMARK VINA RESULT:       0.9      2.637      7.054
REMARK  Name = 11912310
REMARK  12 active torsions:
REMARK  status: ('A' for Active; 'I' for Inactive)
REMARK    1  A    between atoms: O_4  and  C_21
REMARK    2  A    between atoms: N_6  and  CA_17
REMARK    3  A    between atoms: C_7  and  C_12
REMARK    4  A    between atoms: C_8  and  C_13
REMARK    5  A    between atoms: C_12  and  C_14
REMARK    6  A    between atoms: C_13  and  C_15
REMARK    7  A    between atoms: C_16  and  C_19
REMARK    8  A    between atoms: CA_17  and  CB_18
REMARK    9  A    between atoms: CA_17  and  C_21
REMARK   10  A    between atoms: CB_18  and  CG_20
REMARK   11  A    between atoms: CG_20  and  CD1_22
REMARK   12  A    between atoms: CG_20  and  CD2_23
REMARK                            x       y       z     vdW  Elec       q    Type
REMARK                         _______ _______ _______ _____ _____    ______ ____
ROOT
ATOM      3  O   UNL     1      -5.248   1.054  25.902  0.00  0.00    -0.270 OA
ATOM      5  N   UNL     1      -3.636   1.563  24.284  0.00  0.00    -0.297 N 
ATOM      7  C   UNL     1      -1.263   3.157  23.822  0.00  0.00    +0.004 C 
ATOM      8  C   UNL     1      -1.258   1.628  23.566  0.00  0.00    +0.010 C 
ATOM      9  C   UNL     1      -2.307   3.549  24.882  0.00  0.00    +0.023 C 
ATOM     10  C   UNL     1      -2.685   1.145  23.245  0.00  0.00    +0.112 C 
ATOM     11  C   UNL     1      -3.687   3.003  24.527  0.00  0.00    +0.108 C 
ATOM     16  C   UNL     1      -4.455   0.709  25.027  0.00  0.00    +0.247 C 
ENDROOT
BRANCH  16  19
ATOM      1  F   UNL     1      -4.161  -4.782  23.991  0.00  0.00    -0.205 F 
ATOM     19  C   UNL     1      -4.377  -0.731  24.755  0.00  0.00    +0.037 A 
ATOM     24  C   UNL     1      -3.680  -1.569  25.625  0.00  0.00    +0.016 A 
ATOM     25  C   UNL     1      -5.001  -1.262  23.626  0.00  0.00    +0.016 A 
ATOM     26  C   UNL     1      -3.607  -2.937  25.368  0.00  0.00    +0.039 A 
ATOM     27  C   UNL     1      -4.928  -2.631  23.369  0.00  0.00    +0.039 A 
ATOM     28  C   UNL     1      -4.231  -3.468  24.239  0.00  0.00    +0.123 A 
ENDBRANCH  16  19
BRANCH   8  13
ATOM     13  C   UNL     1      -0.664   0.806  24.716  0.00  0.00    +0.002 C 
ATOM     15  C   UNL     1      -0.803  -0.679  24.455  0.00  0.00    +0.004 C 
ENDBRANCH   8  13
BRANCH   7  12
ATOM     12  C   UNL     1       0.113   3.709  24.191  0.00  0.00    +0.099 C 
BRANCH  12  14
ATOM      2  O   UNL     1       1.460   2.361  25.682  0.00  0.00    -0.276 OA
ATOM      6  N   UNL     1       1.526   1.947  23.395  0.00  0.00    -0.310 N 
ATOM     14  C   ACE A   0       1.097   2.612  24.535  0.00  0.00    +0.214 C 
ATOM     29  H   UNL     1       1.209   2.274  22.487  0.00  0.00    +0.149 HD
BRANCH   6  17
ATOM     17  CA  UNL     1       2.471   0.855  23.427  0.00  0.00    +0.098 C 
BRANCH  17  18
ATOM     18  CB  UNL     1       3.839   1.295  22.875  0.00  0.00    +0.027 C 
BRANCH  18  20
ATOM     20  CG  UNL     1       5.013   0.348  23.210  0.00  0.00    -0.015 C 
ATOM     22  CD1 UNL     1       4.470  -1.036  23.576  0.00  0.00    +0.007 C 
ATOM     23  CD2 UNL     1       5.884   0.876  24.351  0.00  0.00    +0.007 C 
ENDBRANCH  18  20
ENDBRANCH  17  18
BRANCH  17  21
ATOM     21  C   UNL     1       1.907  -0.348  22.663  0.00  0.00    +0.178 C 
BRANCH  21   4
ATOM      4  O   UNL     1       1.885  -0.093  21.265  0.00  0.00    -0.393 OA
ATOM     30  H   UNL     1       2.384  -0.808  20.836  0.00  0.00    +0.209 HD
ENDBRANCH  21   4
ENDBRANCH  17  21
ENDBRANCH   6  17
ENDBRANCH  12  14
ENDBRANCH   7  12
TORSDOF 9
ENDMDL
MODEL 7
REMARK VINA RESULT:       1.3      1.991      3.622
REMARK  Name = 11912310
REMARK  12 active torsions:
REMARK  status: ('A' for Active; 'I' for Inactive)
REMARK    1  A    between atoms: O_4  and  C_21
REMARK    2  A    between atoms: N_6  and  CA_17
REMARK    3  A    between atoms: C_7  and  C_12
REMARK    4  A    between atoms: C_8  and  C_13
REMARK    5  A    between atoms: C_12  and  C_14
REMARK    6  A    between atoms: C_13  and  C_15
REMARK    7  A    between atoms: C_16  and  C_19
REMARK    8  A    between atoms: CA_17  and  CB_18
REMARK    9  A    between atoms: CA_17  and  C_21
REMARK   10  A    between atoms: CB_18  and  CG_20
REMARK   11  A    between atoms: CG_20  and  CD1_22
REMARK   12  A    between atoms: CG_20  and  CD2_23
REMARK                            x       y       z     vdW  Elec       q    Type
REMARK                         _______ _______ _______ _____ _____    ______ ____
ROOT
ATOM      3  O   UNL     1       0.323   3.117  23.893  0.00  0.00    -0.270 OA
ATOM      5  N   UNL     1      -0.060   1.177  25.143  0.00  0.00    -0.297 N 
ATOM      7  C   UNL     1      -2.169  -0.543  26.135  0.00  0.00    +0.004 C 
ATOM      8  C   UNL     1      -0.988  -1.122  25.314  0.00  0.00    +0.010 C 
ATOM      9  C   UNL     1      -2.424   0.935  25.793  0.00  0.00    +0.023 C 
ATOM     10  C   UNL     1       0.251  -0.222  25.469  0.00  0.00    +0.112 C 
ATOM     11  C   UNL     1      -1.148   1.762  25.924  0.00  0.00    +0.108 C 
ATOM     16  C   UNL     1       0.584   1.948  24.173  0.00  0.00    +0.247 C 
ENDROOT
BRANCH  16  19
ATOM      1  F   UNL     1       4.736  -0.420  21.264  0.00  0.00    -0.205 F 
ATOM     19  C   UNL     1       1.673   1.327  23.410  0.00  0.00    +0.037 A 
ATOM     24  C   UNL     1       2.976   1.809  23.535  0.00  0.00    +0.016 A 
ATOM     25  C   UNL     1       1.405   0.255  22.559  0.00  0.00    +0.016 A 
ATOM     26  C   UNL     1       4.011   1.219  22.810  0.00  0.00    +0.039 A 
ATOM     27  C   UNL     1       2.440  -0.335  21.834  0.00  0.00    +0.039 A 
ATOM     28  C   UNL     1       3.743   0.147  21.960  0.00  0.00    +0.123 A 
ENDBRANCH  16  19
BRANCH   8  13
ATOM     13  C   UNL     1      -1.309  -1.334  23.829  0.00  0.00    +0.002 C 
ATOM     15  C   UNL     1      -1.647  -2.783  23.546  0.00  0.00    +0.004 C 
ENDBRANCH   8  13
BRANCH   7  12
ATOM     12  C   UNL     1      -3.454  -1.358  25.998  0.00  0.00    +0.099 C 
BRANCH  12  14
ATOM      2  O   UNL     1      -4.914  -1.240  24.074  0.00  0.00    -0.276 OA
ATOM      6  N   UNL     1      -4.774   0.579  25.515  0.00  0.00    -0.310 N 
ATOM     14  C   ACE A   0      -4.456  -0.699  25.077  0.00  0.00    +0.214 C 
ATOM     29  H   UNL     1      -4.292   0.956  26.326  0.00  0.00    +0.149 HD
BRANCH   6  17
ATOM     17  CA  UNL     1      -5.705   1.441  24.824  0.00  0.00    +0.098 C 
BRANCH  17  18
ATOM     18  CB  UNL     1      -5.061   2.051  23.565  0.00  0.00    +0.027 C 
BRANCH  18  20
ATOM     20  CG  UNL     1      -3.585   2.475  23.727  0.00  0.00    -0.015 C 
ATOM     22  CD1 UNL     1      -3.508   3.979  24.005  0.00  0.00    +0.007 C 
ATOM     23  CD2 UNL     1      -2.739   2.135  22.499  0.00  0.00    +0.007 C 
ENDBRANCH  18  20
ENDBRANCH  17  18
BRANCH  17  21
ATOM     21  C   UNL     1      -6.228   2.520  25.778  0.00  0.00    +0.178 C 
BRANCH  21   4
ATOM      4  O   UNL     1      -6.627   1.947  27.016  0.00  0.00    -0.393 OA
ATOM     30  H   UNL     1      -6.825   2.682  27.620  0.00  0.00    +0.209 HD
ENDBRANCH  21   4
ENDBRANCH  17  21
ENDBRANCH   6  17
ENDBRANCH  12  14
ENDBRANCH   7  12
TORSDOF 9
ENDMDL
MODEL 8
REMARK VINA RESULT:       1.5      3.166      6.029
REMARK  Name = 11912310
REMARK  12 active torsions:
REMARK  status: ('A' for Active; 'I' for Inactive)
REMARK    1  A    between atoms: O_4  and  C_21
REMARK    2  A    between atoms: N_6  and  CA_17
REMARK    3  A    between atoms: C_7  and  C_12
REMARK    4  A    between atoms: C_8  and  C_13
REMARK    5  A    between atoms: C_12  and  C_14
REMARK    6  A    between atoms: C_13  and  C_15
REMARK    7  A    between atoms: C_16  and  C_19
REMARK    8  A    between atoms: CA_17  and  CB_18
REMARK    9  A    between atoms: CA_17  and  C_21
REMARK   10  A    between atoms: CB_18  and  CG_20
REMARK   11  A    between atoms: CG_20  and  CD1_22
REMARK   12  A    between atoms: CG_20  and  CD2_23
REMARK                            x       y       z     vdW  Elec       q    Type
REMARK                         _______ _______ _______ _____ _____    ______ ____
ROOT
ATOM      3  O   UNL     1      -3.558  -0.923  26.998  0.00  0.00    -0.270 OA
ATOM      5  N   UNL     1      -4.401   0.521  25.362  0.00  0.00    -0.297 N 
ATOM      7  C   UNL     1      -4.214   3.236  24.372  0.00  0.00    +0.004 C 
ATOM      8  C   UNL     1      -4.019   2.026  23.422  0.00  0.00    +0.010 C 
ATOM      9  C   UNL     1      -3.854   2.878  25.823  0.00  0.00    +0.023 C 
ATOM     10  C   UNL     1      -4.776   0.802  23.969  0.00  0.00    +0.112 C 
ATOM     11  C   UNL     1      -4.603   1.632  26.289  0.00  0.00    +0.108 C 
ATOM     16  C   UNL     1      -3.879  -0.685  25.835  0.00  0.00    +0.247 C 
ENDROOT
BRANCH  16  19
ATOM      1  F   UNL     1      -3.162  -4.860  22.178  0.00  0.00    -0.205 F 
ATOM     19  C   UNL     1      -3.691  -1.779  24.876  0.00  0.00    +0.037 A 
ATOM     24  C   UNL     1      -2.455  -2.417  24.779  0.00  0.00    +0.016 A 
ATOM     25  C   UNL     1      -4.749  -2.182  24.060  0.00  0.00    +0.016 A 
ATOM     26  C   UNL     1      -2.275  -3.458  23.868  0.00  0.00    +0.039 A 
ATOM     27  C   UNL     1      -4.570  -3.222  23.149  0.00  0.00    +0.039 A 
ATOM     28  C   UNL     1      -3.333  -3.860  23.053  0.00  0.00    +0.123 A 
ENDBRANCH  16  19
BRANCH   8  13
ATOM     13  C   UNL     1      -2.550   1.671  23.160  0.00  0.00    +0.002 C 
ATOM     15  C   UNL     1      -2.235   1.712  21.680  0.00  0.00    +0.004 C 
ENDBRANCH   8  13
BRANCH   7  12
ATOM     12  C   UNL     1      -3.456   4.484  23.919  0.00  0.00    +0.099 C 
BRANCH  12  14
ATOM      2  O   UNL     1      -1.682   5.655  25.073  0.00  0.00    -0.276 OA
ATOM      6  N   UNL     1      -1.426   3.398  24.577  0.00  0.00    -0.310 N 
ATOM     14  C   ACE A   0      -2.105   4.608  24.589  0.00  0.00    +0.214 C 
ATOM     29  H   UNL     1      -1.842   2.605  24.096  0.00  0.00    +0.149 HD
BRANCH   6  17
ATOM     17  CA  UNL     1      -0.110   3.226  25.146  0.00  0.00    +0.098 C 
BRANCH  17  18
ATOM     18  CB  UNL     1       0.698   2.178  24.358  0.00  0.00    +0.027 C 
BRANCH  18  20
ATOM     20  CG  UNL     1      -0.072   0.883  24.015  0.00  0.00    -0.015 C 
ATOM     22  CD1 UNL     1      -0.505   0.184  25.307  0.00  0.00    +0.007 C 
ATOM     23  CD2 UNL     1       0.754  -0.080  23.161  0.00  0.00    +0.007 C 
ENDBRANCH  18  20
ENDBRANCH  17  18
BRANCH  17  21
ATOM     21  C   UNL     1      -0.223   2.862  26.630  0.00  0.00    +0.178 C 
BRANCH  21   4
ATOM      4  O   UNL     1       1.045   2.496  27.157  0.00  0.00    -0.393 OA
ATOM     30  H   UNL     1       1.701   3.097  26.767  0.00  0.00    +0.209 HD
ENDBRANCH  21   4
ENDBRANCH  17  21
ENDBRANCH   6  17
ENDBRANCH  12  14
ENDBRANCH   7  12
TORSDOF 9
ENDMDL
