MODEL 1
REMARK VINA RESULT:       4.9      0.000      0.000
REMARK  Name = 26743344
REMARK  9 active torsions:
REMARK  status: ('A' for Active; 'I' for Inactive)
REMARK    1  A    between atoms: O_4  and  C_29
REMARK    2  A    between atoms: O_4  and  C_36
REMARK    3  A    between atoms: N_7  and  C_25
REMARK    4  A    between atoms: N_9  and  C_26
REMARK    5  A    between atoms: C_10  and  C_14
REMARK    6  A    between atoms: C_11  and  C_15
REMARK    7  A    between atoms: C_14  and  C_17
REMARK    8  A    between atoms: C_15  and  C_18
REMARK    9  A    between atoms: C_24  and  C_26
REMARK                            x       y       z     vdW  Elec       q    Type
REMARK                         _______ _______ _______ _____ _____    ______ ____
ROOT
ATOM      5  N   UNL     1      -3.419   3.236  22.484  0.00  0.00    -0.316 NA
ATOM     10  C   UNL     1      -2.755   5.274  24.512  0.00  0.00    +0.004 C 
ATOM     11  C   UNL     1      -1.689   4.353  23.871  0.00  0.00    +0.012 C 
ATOM     12  C   UNL     1      -3.951   5.397  23.554  0.00  0.00    +0.019 C 
ATOM     13  C   UNL     1      -2.298   3.021  23.400  0.00  0.00    +0.085 C 
ATOM     16  C   UNL     1      -4.476   4.037  23.097  0.00  0.00    +0.081 C 
ATOM     37  H   UNL     1      -3.800   2.333  22.201  0.00  0.00    +0.122 HD
ENDROOT
BRANCH  10  14
ATOM     14  C   UNL     1      -3.214   4.823  25.903  0.00  0.00    +0.100 C 
BRANCH  14  17
ATOM      1  O   UNL     1      -5.527   4.442  25.553  0.00  0.00    -0.276 OA
ATOM      6  N   UNL     1      -4.215   2.568  25.945  0.00  0.00    -0.298 N 
ATOM      7  N   UNL     1      -3.762  -0.067  25.039  0.00  0.00    -0.324 N 
ATOM     17  C   UNL     1      -4.427   3.934  25.784  0.00  0.00    +0.216 C 
ATOM     19  C   UNL     1      -2.927   1.928  26.220  0.00  0.00    +0.126 C 
ATOM     20  C   UNL     1      -5.336   1.634  25.869  0.00  0.00    +0.126 C 
ATOM     21  C   UNL     1      -2.624   0.854  25.174  0.00  0.00    +0.124 C 
ATOM     22  C   UNL     1      -5.075   0.559  24.816  0.00  0.00    +0.124 C 
BRANCH   7  25
ATOM     25  C   UNL     1      -3.556  -1.349  24.516  0.00  0.00    +0.072 A 
ATOM     29  C   UNL     1      -2.330  -1.993  24.681  0.00  0.00    +0.141 A 
ATOM     30  C   UNL     1      -4.590  -1.981  23.826  0.00  0.00    +0.027 A 
ATOM     33  C   UNL     1      -2.139  -3.271  24.156  0.00  0.00    +0.047 A 
ATOM     34  C   UNL     1      -4.398  -3.259  23.301  0.00  0.00    +0.002 A 
ATOM     35  C   UNL     1      -3.173  -3.904  23.466  0.00  0.00    +0.004 A 
BRANCH  29   4
ATOM      4  O   UNL     1      -1.308  -1.393  25.352  0.00  0.00    -0.493 OA
ATOM     36  C   UNL     1      -0.096  -2.134  25.483  0.00  0.00    +0.277 C 
ENDBRANCH  29   4
ENDBRANCH   7  25
ENDBRANCH  14  17
ENDBRANCH  10  14
BRANCH  11  15
ATOM     15  C   UNL     1      -0.488   4.101  24.784  0.00  0.00    +0.064 C 
BRANCH  15  18
ATOM      2  O   UNL     1       1.120   0.881  24.897  0.00  0.00    -0.358 OA
ATOM      8  N   UNL     1       0.608   2.022  25.503  0.00  0.00    -0.083 NA
ATOM     18  C   UNL     1       0.148   2.772  24.497  0.00  0.00    +0.084 A 
ATOM     23  C   UNL     1       0.340   2.160  23.245  0.00  0.00    +0.072 A 
ATOM     24  C   UNL     1       0.954   0.975  23.553  0.00  0.00    +0.151 A 
BRANCH  24  26
ATOM     26  C   UNL     1       1.443  -0.154  22.753  0.00  0.00    +0.161 C 
BRANCH  26   9
ATOM      3  O   UNL     1       5.433  -0.094  24.050  0.00  0.00    -0.377 OA
ATOM      9  N   UNL     1       2.898  -0.286  22.771  0.00  0.00    -0.291 NA
ATOM     27  C   UNL     1       3.536   1.014  23.022  0.00  0.00    +0.113 C 
ATOM     28  C   UNL     1       3.322  -1.258  23.788  0.00  0.00    +0.113 C 
ATOM     31  C   UNL     1       5.053   0.849  23.048  0.00  0.00    +0.175 C 
ATOM     32  C   UNL     1       4.843  -1.370  23.797  0.00  0.00    +0.175 C 
ENDBRANCH  26   9
ENDBRANCH  24  26
ENDBRANCH  15  18
ENDBRANCH  11  15
TORSDOF 8
ENDMDL
MODEL 2
REMARK VINA RESULT:       5.5      1.819      7.065
REMARK  Name = 26743344
REMARK  9 active torsions:
REMARK  status: ('A' for Active; 'I' for Inactive)
REMARK    1  A    between atoms: O_4  and  C_29
REMARK    2  A    between atoms: O_4  and  C_36
REMARK    3  A    between atoms: N_7  and  C_25
REMARK    4  A    between atoms: N_9  and  C_26
REMARK    5  A    between atoms: C_10  and  C_14
REMARK    6  A    between atoms: C_11  and  C_15
REMARK    7  A    between atoms: C_14  and  C_17
REMARK    8  A    between atoms: C_15  and  C_18
REMARK    9  A    between atoms: C_24  and  C_26
REMARK                            x       y       z     vdW  Elec       q    Type
REMARK                         _______ _______ _______ _____ _____    ______ ____
ROOT
ATOM      5  N   UNL     1      -3.579  -3.347  24.358  0.00  0.00    -0.316 NA
ATOM     10  C   UNL     1      -3.069  -0.455  24.647  0.00  0.00    +0.004 C 
ATOM     11  C   UNL     1      -4.490  -1.064  24.710  0.00  0.00    +0.012 C 
ATOM     12  C   UNL     1      -2.044  -1.535  25.033  0.00  0.00    +0.019 C 
ATOM     13  C   UNL     1      -4.582  -2.378  23.915  0.00  0.00    +0.085 C 
ATOM     16  C   UNL     1      -2.222  -2.823  24.230  0.00  0.00    +0.081 C 
ATOM     37  H   UNL     1      -3.665  -4.199  23.803  0.00  0.00    +0.122 HD
ENDROOT
BRANCH  10  14
ATOM     14  C   UNL     1      -2.718   0.170  23.292  0.00  0.00    +0.100 C 
BRANCH  14  17
ATOM      1  O   UNL     1      -2.009   2.313  24.017  0.00  0.00    -0.276 OA
ATOM      6  N   UNL     1      -0.403   0.974  23.010  0.00  0.00    -0.298 N 
ATOM      7  N   UNL     1       2.277   0.127  23.270  0.00  0.00    -0.324 N 
ATOM     17  C   UNL     1      -1.685   1.253  23.475  0.00  0.00    +0.216 C 
ATOM     19  C   UNL     1       0.021  -0.268  22.362  0.00  0.00    +0.126 C 
ATOM     20  C   UNL     1       0.656   1.974  23.123  0.00  0.00    +0.126 C 
ATOM     21  C   UNL     1       1.218  -0.877  23.093  0.00  0.00    +0.124 C 
ATOM     22  C   UNL     1       1.861   1.404  23.870  0.00  0.00    +0.124 C 
BRANCH   7  25
ATOM     25  C   UNL     1       3.597  -0.290  23.478  0.00  0.00    +0.072 A 
ATOM     29  C   UNL     1       4.655   0.608  23.339  0.00  0.00    +0.141 A 
ATOM     30  C   UNL     1       3.849  -1.617  23.827  0.00  0.00    +0.027 A 
ATOM     33  C   UNL     1       5.965   0.180  23.550  0.00  0.00    +0.047 A 
ATOM     34  C   UNL     1       5.160  -2.045  24.038  0.00  0.00    +0.002 A 
ATOM     35  C   UNL     1       6.217  -1.147  23.900  0.00  0.00    +0.004 A 
BRANCH  29   4
ATOM      4  O   UNL     1       4.430   1.909  22.999  0.00  0.00    -0.493 OA
ATOM     36  C   UNL     1       3.979   2.160  21.670  0.00  0.00    +0.277 C 
ENDBRANCH  29   4
ENDBRANCH   7  25
ENDBRANCH  14  17
ENDBRANCH  10  14
BRANCH  11  15
ATOM     15  C   UNL     1      -5.580  -0.089  24.264  0.00  0.00    +0.064 C 
BRANCH  15  18
ATOM      2  O   UNL     1      -5.775   2.707  26.524  0.00  0.00    -0.358 OA
ATOM      8  N   UNL     1      -6.090   1.408  26.145  0.00  0.00    -0.083 NA
ATOM     18  C   UNL     1      -5.463   1.226  24.979  0.00  0.00    +0.084 A 
ATOM     23  C   UNL     1      -4.743   2.365  24.577  0.00  0.00    +0.072 A 
ATOM     24  C   UNL     1      -4.972   3.266  25.582  0.00  0.00    +0.151 A 
BRANCH  24  26
ATOM     26  C   UNL     1      -4.541   4.647  25.826  0.00  0.00    +0.161 C 
BRANCH  26   9
ATOM      3  O   UNL     1      -0.403   4.135  25.343  0.00  0.00    -0.377 OA
ATOM      9  N   UNL     1      -3.096   4.776  26.007  0.00  0.00    -0.291 NA
ATOM     27  C   UNL     1      -2.500   3.484  26.376  0.00  0.00    +0.113 C 
ATOM     28  C   UNL     1      -2.460   5.292  24.786  0.00  0.00    +0.113 C 
ATOM     31  C   UNL     1      -0.992   3.641  26.547  0.00  0.00    +0.175 C 
ATOM     32  C   UNL     1      -0.954   5.405  24.993  0.00  0.00    +0.175 C 
ENDBRANCH  26   9
ENDBRANCH  24  26
ENDBRANCH  15  18
ENDBRANCH  11  15
TORSDOF 8
ENDMDL
MODEL 3
REMARK VINA RESULT:       6.4      1.780      5.226
REMARK  Name = 26743344
REMARK  9 active torsions:
REMARK  status: ('A' for Active; 'I' for Inactive)
REMARK    1  A    between atoms: O_4  and  C_29
REMARK    2  A    between atoms: O_4  and  C_36
REMARK    3  A    between atoms: N_7  and  C_25
REMARK    4  A    between atoms: N_9  and  C_26
REMARK    5  A    between atoms: C_10  and  C_14
REMARK    6  A    between atoms: C_11  and  C_15
REMARK    7  A    between atoms: C_14  and  C_17
REMARK    8  A    between atoms: C_15  and  C_18
REMARK    9  A    between atoms: C_24  and  C_26
REMARK                            x       y       z     vdW  Elec       q    Type
REMARK                         _______ _______ _______ _____ _____    ______ ____
ROOT
ATOM      5  N   UNL     1      -1.900  -1.008  26.577  0.00  0.00    -0.316 NA
ATOM     10  C   UNL     1      -2.738  -2.693  24.304  0.00  0.00    +0.004 C 
ATOM     11  C   UNL     1      -1.396  -1.923  24.324  0.00  0.00    +0.012 C 
ATOM     12  C   UNL     1      -3.194  -2.942  25.751  0.00  0.00    +0.019 C 
ATOM     13  C   UNL     1      -1.470  -0.674  25.218  0.00  0.00    +0.085 C 
ATOM     16  C   UNL     1      -3.205  -1.664  26.589  0.00  0.00    +0.081 C 
ATOM     37  H   UNL     1      -1.945  -0.156  27.135  0.00  0.00    +0.122 HD
ENDROOT
BRANCH  10  14
ATOM     14  C   UNL     1      -3.842  -2.001  23.496  0.00  0.00    +0.100 C 
BRANCH  14  17
ATOM      1  O   UNL     1      -5.268  -1.357  25.275  0.00  0.00    -0.276 OA
ATOM      6  N   UNL     1      -4.321   0.359  24.032  0.00  0.00    -0.298 N 
ATOM      7  N   UNL     1      -3.052   2.866  24.295  0.00  0.00    -0.324 N 
ATOM     17  C   UNL     1      -4.545  -0.978  24.351  0.00  0.00    +0.216 C 
ATOM     19  C   UNL     1      -3.472   0.849  22.945  0.00  0.00    +0.126 C 
ATOM     20  C   UNL     1      -4.980   1.418  24.792  0.00  0.00    +0.126 C 
ATOM     21  C   UNL     1      -2.419   1.820  23.478  0.00  0.00    +0.124 C 
ATOM     22  C   UNL     1      -3.953   2.396  25.359  0.00  0.00    +0.124 C 
BRANCH   7  25
ATOM     25  C   UNL     1      -2.390   4.084  24.493  0.00  0.00    +0.072 A 
ATOM     29  C   UNL     1      -1.067   4.109  24.931  0.00  0.00    +0.141 A 
ATOM     30  C   UNL     1      -3.068   5.278  24.248  0.00  0.00    +0.027 A 
ATOM     33  C   UNL     1      -0.419   5.329  25.123  0.00  0.00    +0.047 A 
ATOM     34  C   UNL     1      -2.420   6.499  24.441  0.00  0.00    +0.002 A 
ATOM     35  C   UNL     1      -1.096   6.524  24.878  0.00  0.00    +0.004 A 
BRANCH  29   4
ATOM      4  O   UNL     1      -0.387   2.953  25.175  0.00  0.00    -0.493 OA
ATOM     36  C   UNL     1      -0.193   2.594  26.541  0.00  0.00    +0.277 C 
ENDBRANCH  29   4
ENDBRANCH   7  25
ENDBRANCH  14  17
ENDBRANCH  10  14
BRANCH  11  15
ATOM     15  C   UNL     1      -0.895  -1.555  22.927  0.00  0.00    +0.064 C 
BRANCH  15  18
ATOM      2  O   UNL     1       1.397   1.130  23.633  0.00  0.00    -0.358 OA
ATOM      8  N   UNL     1       0.193   0.460  23.817  0.00  0.00    -0.083 NA
ATOM     18  C   UNL     1       0.253  -0.591  22.994  0.00  0.00    +0.084 A 
ATOM     23  C   UNL     1       1.460  -0.636  22.273  0.00  0.00    +0.072 A 
ATOM     24  C   UNL     1       2.143   0.467  22.712  0.00  0.00    +0.151 A 
BRANCH  24  26
ATOM     26  C   UNL     1       3.455   1.042  22.396  0.00  0.00    +0.161 C 
BRANCH  26   9
ATOM      3  O   UNL     1       6.157  -1.131  24.762  0.00  0.00    -0.377 OA
ATOM      9  N   UNL     1       4.570   0.187  22.801  0.00  0.00    -0.291 NA
ATOM     27  C   UNL     1       5.512   0.927  23.652  0.00  0.00    +0.113 C 
ATOM     28  C   UNL     1       4.084  -1.006  23.508  0.00  0.00    +0.113 C 
ATOM     31  C   UNL     1       6.659   0.013  24.071  0.00  0.00    +0.175 C 
ATOM     32  C   UNL     1       5.264  -1.875  23.931  0.00  0.00    +0.175 C 
ENDBRANCH  26   9
ENDBRANCH  24  26
ENDBRANCH  15  18
ENDBRANCH  11  15
TORSDOF 8
ENDMDL
MODEL 4
REMARK VINA RESULT:       6.7      1.696      6.355
REMARK  Name = 26743344
REMARK  9 active torsions:
REMARK  status: ('A' for Active; 'I' for Inactive)
REMARK    1  A    between atoms: O_4  and  C_29
REMARK    2  A    between atoms: O_4  and  C_36
REMARK    3  A    between atoms: N_7  and  C_25
REMARK    4  A    between atoms: N_9  and  C_26
REMARK    5  A    between atoms: C_10  and  C_14
REMARK    6  A    between atoms: C_11  and  C_15
REMARK    7  A    between atoms: C_14  and  C_17
REMARK    8  A    between atoms: C_15  and  C_18
REMARK    9  A    between atoms: C_24  and  C_26
REMARK                            x       y       z     vdW  Elec       q    Type
REMARK                         _______ _______ _______ _____ _____    ______ ____
ROOT
ATOM      5  N   UNL     1      -0.942   4.645  26.092  0.00  0.00    -0.316 NA
ATOM     10  C   UNL     1      -2.125   3.752  23.540  0.00  0.00    +0.004 C 
ATOM     11  C   UNL     1      -2.866   4.690  24.523  0.00  0.00    +0.012 C 
ATOM     12  C   UNL     1      -0.610   3.887  23.765  0.00  0.00    +0.019 C 
ATOM     13  C   UNL     1      -2.392   4.485  25.971  0.00  0.00    +0.085 C 
ATOM     16  C   UNL     1      -0.219   3.711  25.232  0.00  0.00    +0.081 C 
ATOM     37  H   UNL     1      -0.665   4.494  27.062  0.00  0.00    +0.122 HD
ENDROOT
BRANCH  10  14
ATOM     14  C   UNL     1      -2.561   2.284  23.630  0.00  0.00    +0.100 C 
BRANCH  14  17
ATOM      1  O   UNL     1      -2.304   1.613  21.372  0.00  0.00    -0.276 OA
ATOM      6  N   UNL     1      -0.875   0.632  22.915  0.00  0.00    -0.298 N 
ATOM      7  N   UNL     1       1.827  -0.082  23.314  0.00  0.00    -0.324 N 
ATOM     17  C   UNL     1      -1.908   1.483  22.533  0.00  0.00    +0.216 C 
ATOM     19  C   UNL     1      -0.377   0.449  24.280  0.00  0.00    +0.126 C 
ATOM     20  C   UNL     1      -0.200  -0.201  21.922  0.00  0.00    +0.126 C 
ATOM     21  C   UNL     1       1.130   0.703  24.343  0.00  0.00    +0.124 C 
ATOM     22  C   UNL     1       1.307   0.045  21.944  0.00  0.00    +0.124 C 
BRANCH   7  25
ATOM     25  C   UNL     1       3.187  -0.372  23.470  0.00  0.00    +0.072 A 
ATOM     29  C   UNL     1       4.146   0.632  23.345  0.00  0.00    +0.141 A 
ATOM     30  C   UNL     1       3.580  -1.681  23.752  0.00  0.00    +0.027 A 
ATOM     33  C   UNL     1       5.498   0.329  23.504  0.00  0.00    +0.047 A 
ATOM     34  C   UNL     1       4.933  -1.984  23.909  0.00  0.00    +0.002 A 
ATOM     35  C   UNL     1       5.891  -0.979  23.786  0.00  0.00    +0.004 A 
BRANCH  29   4
ATOM      4  O   UNL     1       3.782   1.917  23.070  0.00  0.00    -0.493 OA
ATOM     36  C   UNL     1       4.014   2.385  21.743  0.00  0.00    +0.277 C 
ENDBRANCH  29   4
ENDBRANCH   7  25
ENDBRANCH  14  17
ENDBRANCH  10  14
BRANCH  11  15
ATOM     15  C   UNL     1      -4.388   4.570  24.433  0.00  0.00    +0.064 C 
BRANCH  15  18
ATOM      2  O   UNL     1      -5.899   1.706  26.007  0.00  0.00    -0.358 OA
ATOM      8  N   UNL     1      -5.668   3.072  25.901  0.00  0.00    -0.083 NA
ATOM     18  C   UNL     1      -4.854   3.205  24.851  0.00  0.00    +0.084 A 
ATOM     23  C   UNL     1      -4.540   1.968  24.259  0.00  0.00    +0.072 A 
ATOM     24  C   UNL     1      -5.223   1.060  25.024  0.00  0.00    +0.151 A 
BRANCH  24  26
ATOM     26  C   UNL     1      -5.357  -0.401  24.987  0.00  0.00    +0.161 C 
BRANCH  26   9
ATOM      3  O   UNL     1      -2.276  -3.247  24.851  0.00  0.00    -0.377 OA
ATOM      9  N   UNL     1      -4.114  -1.085  24.636  0.00  0.00    -0.291 NA
ATOM     27  C   UNL     1      -3.258  -1.252  25.819  0.00  0.00    +0.113 C 
ATOM     28  C   UNL     1      -4.391  -2.394  24.028  0.00  0.00    +0.113 C 
ATOM     31  C   UNL     1      -1.974  -1.978  25.430  0.00  0.00    +0.175 C 
ATOM     32  C   UNL     1      -3.081  -3.093  23.682  0.00  0.00    +0.175 C 
ENDBRANCH  26   9
ENDBRANCH  24  26
ENDBRANCH  15  18
ENDBRANCH  11  15
TORSDOF 8
ENDMDL
MODEL 5
REMARK VINA RESULT:       7.0      1.854      6.950
REMARK  Name = 26743344
REMARK  9 active torsions:
REMARK  status: ('A' for Active; 'I' for Inactive)
REMARK    1  A    between atoms: O_4  and  C_29
REMARK    2  A    between atoms: O_4  and  C_36
REMARK    3  A    between atoms: N_7  and  C_25
REMARK    4  A    between atoms: N_9  and  C_26
REMARK    5  A    between atoms: C_10  and  C_14
REMARK    6  A    between atoms: C_11  and  C_15
REMARK    7  A    between atoms: C_14  and  C_17
REMARK    8  A    between atoms: C_15  and  C_18
REMARK    9  A    between atoms: C_24  and  C_26
REMARK                            x       y       z     vdW  Elec       q    Type
REMARK                         _______ _______ _______ _____ _____    ______ ____
ROOT
ATOM      5  N   UNL     1      -3.538  -3.335  24.379  0.00  0.00    -0.316 NA
ATOM     10  C   UNL     1      -3.044  -0.435  24.608  0.00  0.00    +0.004 C 
ATOM     11  C   UNL     1      -4.457  -1.054  24.727  0.00  0.00    +0.012 C 
ATOM     12  C   UNL     1      -1.997  -1.500  24.976  0.00  0.00    +0.019 C 
ATOM     13  C   UNL     1      -4.563  -2.380  23.955  0.00  0.00    +0.085 C 
ATOM     16  C   UNL     1      -2.190  -2.802  24.199  0.00  0.00    +0.081 C 
ATOM     37  H   UNL     1      -3.636  -4.196  23.841  0.00  0.00    +0.122 HD
ENDROOT
BRANCH  10  14
ATOM     14  C   UNL     1      -2.743   0.173  23.232  0.00  0.00    +0.100 C 
BRANCH  14  17
ATOM      1  O   UNL     1      -2.149   2.373  23.883  0.00  0.00    -0.276 OA
ATOM      6  N   UNL     1      -0.476   1.091  22.911  0.00  0.00    -0.298 N 
ATOM      7  N   UNL     1       2.247   0.399  23.182  0.00  0.00    -0.324 N 
ATOM     17  C   UNL     1      -1.769   1.315  23.374  0.00  0.00    +0.216 C 
ATOM     19  C   UNL     1       0.012  -0.147  22.300  0.00  0.00    +0.126 C 
ATOM     20  C   UNL     1       0.528   2.150  22.986  0.00  0.00    +0.126 C 
ATOM     21  C   UNL     1       1.244  -0.666  23.044  0.00  0.00    +0.124 C 
ATOM     22  C   UNL     1       1.764   1.671  23.743  0.00  0.00    +0.124 C 
BRANCH   7  25
ATOM     25  C   UNL     1       3.589   0.062  23.395  0.00  0.00    +0.072 A 
ATOM     29  C   UNL     1       3.951  -1.250  23.700  0.00  0.00    +0.141 A 
ATOM     30  C   UNL     1       4.567   1.052  23.301  0.00  0.00    +0.027 A 
ATOM     33  C   UNL     1       5.291  -1.572  23.909  0.00  0.00    +0.047 A 
ATOM     34  C   UNL     1       5.908   0.729  23.511  0.00  0.00    +0.002 A 
ATOM     35  C   UNL     1       6.270  -0.583  23.814  0.00  0.00    +0.004 A 
BRANCH  29   4
ATOM      4  O   UNL     1       3.010  -2.232  23.796  0.00  0.00    -0.493 OA
ATOM     36  C   UNL     1       2.253  -2.285  25.004  0.00  0.00    +0.277 C 
ENDBRANCH  29   4
ENDBRANCH   7  25
ENDBRANCH  14  17
ENDBRANCH  10  14
BRANCH  11  15
ATOM     15  C   UNL     1      -5.569  -0.095  24.302  0.00  0.00    +0.064 C 
BRANCH  15  18
ATOM      2  O   UNL     1      -5.812   2.713  26.543  0.00  0.00    -0.358 OA
ATOM      8  N   UNL     1      -6.134   1.418  26.154  0.00  0.00    -0.083 NA
ATOM     18  C   UNL     1      -5.460   1.220  25.018  0.00  0.00    +0.084 A 
ATOM     23  C   UNL     1      -4.701   2.344  24.645  0.00  0.00    +0.072 A 
ATOM     24  C   UNL     1      -4.958   3.254  25.637  0.00  0.00    +0.151 A 
BRANCH  24  26
ATOM     26  C   UNL     1      -4.511   4.627  25.895  0.00  0.00    +0.161 C 
BRANCH  26   9
ATOM      3  O   UNL     1      -0.388   4.109  25.306  0.00  0.00    -0.377 OA
ATOM      9  N   UNL     1      -3.062   4.743  26.048  0.00  0.00    -0.291 NA
ATOM     27  C   UNL     1      -2.466   3.437  26.364  0.00  0.00    +0.113 C 
ATOM     28  C   UNL     1      -2.451   5.293  24.830  0.00  0.00    +0.113 C 
ATOM     31  C   UNL     1      -0.953   3.581  26.506  0.00  0.00    +0.175 C 
ATOM     32  C   UNL     1      -0.940   5.392  25.008  0.00  0.00    +0.175 C 
ENDBRANCH  26   9
ENDBRANCH  24  26
ENDBRANCH  15  18
ENDBRANCH  11  15
TORSDOF 8
ENDMDL
MODEL 6
REMARK VINA RESULT:       7.6      1.968      6.301
REMARK  Name = 26743344
REMARK  9 active torsions:
REMARK  status: ('A' for Active; 'I' for Inactive)
REMARK    1  A    between atoms: O_4  and  C_29
REMARK    2  A    between atoms: O_4  and  C_36
REMARK    3  A    between atoms: N_7  and  C_25
REMARK    4  A    between atoms: N_9  and  C_26
REMARK    5  A    between atoms: C_10  and  C_14
REMARK    6  A    between atoms: C_11  and  C_15
REMARK    7  A    between atoms: C_14  and  C_17
REMARK    8  A    between atoms: C_15  and  C_18
REMARK    9  A    between atoms: C_24  and  C_26
REMARK                            x       y       z     vdW  Elec       q    Type
REMARK                         _______ _______ _______ _____ _____    ______ ____
ROOT
ATOM      5  N   UNL     1      -3.380   0.904  22.507  0.00  0.00    -0.316 NA
ATOM     10  C   UNL     1      -4.619  -0.821  24.555  0.00  0.00    +0.004 C 
ATOM     11  C   UNL     1      -5.166   0.583  24.202  0.00  0.00    +0.012 C 
ATOM     12  C   UNL     1      -3.837  -1.371  23.351  0.00  0.00    +0.019 C 
ATOM     13  C   UNL     1      -4.060   1.503  23.656  0.00  0.00    +0.085 C 
ATOM     16  C   UNL     1      -2.785  -0.388  22.839  0.00  0.00    +0.081 C 
ATOM     37  H   UNL     1      -2.651   1.537  22.179  0.00  0.00    +0.122 HD
ENDROOT
BRANCH  10  14
ATOM     14  C   UNL     1      -3.761  -0.855  25.825  0.00  0.00    +0.100 C 
BRANCH  14  17
ATOM      1  O   UNL     1      -3.018  -3.098  25.650  0.00  0.00    -0.276 OA
ATOM      6  N   UNL     1      -1.376  -1.458  25.640  0.00  0.00    -0.298 N 
ATOM      7  N   UNL     1       1.001  -0.689  24.326  0.00  0.00    -0.324 N 
ATOM     17  C   UNL     1      -2.691  -1.909  25.698  0.00  0.00    +0.216 C 
ATOM     19  C   UNL     1      -0.948  -0.058  25.694  0.00  0.00    +0.126 C 
ATOM     20  C   UNL     1      -0.273  -2.410  25.540  0.00  0.00    +0.126 C 
ATOM     21  C   UNL     1      -0.085   0.290  24.481  0.00  0.00    +0.124 C 
ATOM     22  C   UNL     1       0.599  -2.104  24.324  0.00  0.00    +0.124 C 
BRANCH   7  25
ATOM     25  C   UNL     1       2.150  -0.338  23.608  0.00  0.00    +0.072 A 
ATOM     29  C   UNL     1       2.062   0.043  22.270  0.00  0.00    +0.141 A 
ATOM     30  C   UNL     1       3.392  -0.373  24.244  0.00  0.00    +0.027 A 
ATOM     33  C   UNL     1       3.215   0.391  21.567  0.00  0.00    +0.047 A 
ATOM     34  C   UNL     1       4.545  -0.025  23.539  0.00  0.00    +0.002 A 
ATOM     35  C   UNL     1       4.456   0.357  22.202  0.00  0.00    +0.004 A 
BRANCH  29   4
ATOM      4  O   UNL     1       0.858   0.084  21.631  0.00  0.00    -0.493 OA
ATOM     36  C   UNL     1       0.554  -1.000  20.756  0.00  0.00    +0.277 C 
ENDBRANCH  29   4
ENDBRANCH   7  25
ENDBRANCH  14  17
ENDBRANCH  10  14
BRANCH  11  15
ATOM     15  C   UNL     1      -5.895   1.253  25.367  0.00  0.00    +0.064 C 
BRANCH  15  18
ATOM      2  O   UNL     1      -5.279   4.732  26.061  0.00  0.00    -0.358 OA
ATOM      8  N   UNL     1      -6.123   3.664  25.783  0.00  0.00    -0.083 NA
ATOM     18  C   UNL     1      -5.317   2.605  25.669  0.00  0.00    +0.084 A 
ATOM     23  C   UNL     1      -3.965   2.941  25.864  0.00  0.00    +0.072 A 
ATOM     24  C   UNL     1      -3.996   4.289  26.107  0.00  0.00    +0.151 A 
BRANCH  24  26
ATOM     26  C   UNL     1      -2.966   5.294  26.393  0.00  0.00    +0.161 C 
BRANCH  26   9
ATOM      3  O   UNL     1      -0.000   3.493  24.031  0.00  0.00    -0.377 OA
ATOM      9  N   UNL     1      -1.670   4.974  25.798  0.00  0.00    -0.291 NA
ATOM     27  C   UNL     1      -1.295   3.582  26.081  0.00  0.00    +0.113 C 
ATOM     28  C   UNL     1      -1.690   5.204  24.346  0.00  0.00    +0.113 C 
ATOM     31  C   UNL     1       0.054   3.269  25.440  0.00  0.00    +0.175 C 
ATOM     32  C   UNL     1      -0.333   4.853  23.746  0.00  0.00    +0.175 C 
ENDBRANCH  26   9
ENDBRANCH  24  26
ENDBRANCH  15  18
ENDBRANCH  11  15
TORSDOF 8
ENDMDL
MODEL 7
REMARK VINA RESULT:       7.7      1.685      5.281
REMARK  Name = 26743344
REMARK  9 active torsions:
REMARK  status: ('A' for Active; 'I' for Inactive)
REMARK    1  A    between atoms: O_4  and  C_29
REMARK    2  A    between atoms: O_4  and  C_36
REMARK    3  A    between atoms: N_7  and  C_25
REMARK    4  A    between atoms: N_9  and  C_26
REMARK    5  A    between atoms: C_10  and  C_14
REMARK    6  A    between atoms: C_11  and  C_15
REMARK    7  A    between atoms: C_14  and  C_17
REMARK    8  A    between atoms: C_15  and  C_18
REMARK    9  A    between atoms: C_24  and  C_26
REMARK                            x       y       z     vdW  Elec       q    Type
REMARK                         _______ _______ _______ _____ _____    ______ ____
ROOT
ATOM      5  N   UNL     1      -2.523  -3.708  23.895  0.00  0.00    -0.316 NA
ATOM     10  C   UNL     1      -3.701  -1.064  24.467  0.00  0.00    +0.004 C 
ATOM     11  C   UNL     1      -2.176  -1.288  24.333  0.00  0.00    +0.012 C 
ATOM     12  C   UNL     1      -4.440  -2.166  23.689  0.00  0.00    +0.019 C 
ATOM     13  C   UNL     1      -1.780  -2.730  24.692  0.00  0.00    +0.085 C 
ATOM     16  C   UNL     1      -3.966  -3.568  24.069  0.00  0.00    +0.081 C 
ATOM     37  H   UNL     1      -2.239  -4.649  24.167  0.00  0.00    +0.122 HD
ENDROOT
BRANCH  10  14
ATOM     14  C   UNL     1      -4.197  -0.995  25.916  0.00  0.00    +0.100 C 
BRANCH  14  17
ATOM      1  O   UNL     1      -5.950   0.181  26.993  0.00  0.00    -0.276 OA
ATOM      6  N   UNL     1      -4.917   1.259  25.216  0.00  0.00    -0.298 N 
ATOM      7  N   UNL     1      -3.881   3.761  24.422  0.00  0.00    -0.324 N 
ATOM     17  C   UNL     1      -5.104   0.196  26.096  0.00  0.00    +0.216 C 
ATOM     19  C   UNL     1      -3.926   1.314  24.140  0.00  0.00    +0.126 C 
ATOM     20  C   UNL     1      -5.766   2.444  25.301  0.00  0.00    +0.126 C 
ATOM     21  C   UNL     1      -3.048   2.559  24.279  0.00  0.00    +0.124 C 
ATOM     22  C   UNL     1      -4.920   3.706  25.462  0.00  0.00    +0.124 C 
BRANCH   7  25
ATOM     25  C   UNL     1      -3.346   5.015  24.104  0.00  0.00    +0.072 A 
ATOM     29  C   UNL     1      -2.165   5.455  24.700  0.00  0.00    +0.141 A 
ATOM     30  C   UNL     1      -4.006   5.826  23.181  0.00  0.00    +0.027 A 
ATOM     33  C   UNL     1      -1.642   6.705  24.373  0.00  0.00    +0.047 A 
ATOM     34  C   UNL     1      -3.483   7.078  22.854  0.00  0.00    +0.002 A 
ATOM     35  C   UNL     1      -2.301   7.517  23.450  0.00  0.00    +0.004 A 
BRANCH  29   4
ATOM      4  O   UNL     1      -1.505   4.677  25.604  0.00  0.00    -0.493 OA
ATOM     36  C   UNL     1      -0.180   4.273  25.264  0.00  0.00    +0.277 C 
ENDBRANCH  29   4
ENDBRANCH   7  25
ENDBRANCH  14  17
ENDBRANCH  10  14
BRANCH  11  15
ATOM     15  C   UNL     1      -1.350  -0.287  25.141  0.00  0.00    +0.064 C 
BRANCH  15  18
ATOM      2  O   UNL     1       1.450   1.505  23.759  0.00  0.00    -0.358 OA
ATOM      8  N   UNL     1       0.387   1.378  24.646  0.00  0.00    -0.083 NA
ATOM     18  C   UNL     1      -0.158   0.192  24.364  0.00  0.00    +0.084 A 
ATOM     23  C   UNL     1       0.512  -0.470  23.320  0.00  0.00    +0.072 A 
ATOM     24  C   UNL     1       1.514   0.399  22.975  0.00  0.00    +0.151 A 
BRANCH  24  26
ATOM     26  C   UNL     1       2.588   0.366  21.975  0.00  0.00    +0.161 C 
BRANCH  26   9
ATOM      3  O   UNL     1       5.680  -0.626  24.633  0.00  0.00    -0.377 OA
ATOM      9  N   UNL     1       3.854  -0.135  22.506  0.00  0.00    -0.291 NA
ATOM     27  C   UNL     1       4.627   0.952  23.122  0.00  0.00    +0.113 C 
ATOM     28  C   UNL     1       3.623  -1.206  23.487  0.00  0.00    +0.113 C 
ATOM     31  C   UNL     1       5.938   0.404  23.679  0.00  0.00    +0.175 C 
ATOM     32  C   UNL     1       4.956  -1.703  24.035  0.00  0.00    +0.175 C 
ENDBRANCH  26   9
ENDBRANCH  24  26
ENDBRANCH  15  18
ENDBRANCH  11  15
TORSDOF 8
ENDMDL
MODEL 8
REMARK VINA RESULT:       7.8      2.648      5.707
REMARK  Name = 26743344
REMARK  9 active torsions:
REMARK  status: ('A' for Active; 'I' for Inactive)
REMARK    1  A    between atoms: O_4  and  C_29
REMARK    2  A    between atoms: O_4  and  C_36
REMARK    3  A    between atoms: N_7  and  C_25
REMARK    4  A    between atoms: N_9  and  C_26
REMARK    5  A    between atoms: C_10  and  C_14
REMARK    6  A    between atoms: C_11  and  C_15
REMARK    7  A    between atoms: C_14  and  C_17
REMARK    8  A    between atoms: C_15  and  C_18
REMARK    9  A    between atoms: C_24  and  C_26
REMARK                            x       y       z     vdW  Elec       q    Type
REMARK                         _______ _______ _______ _____ _____    ______ ____
ROOT
ATOM      5  N   UNL     1      -6.644   1.948  25.195  0.00  0.00    -0.316 NA
ATOM     10  C   UNL     1      -3.694   1.890  25.177  0.00  0.00    +0.004 C 
ATOM     11  C   UNL     1      -4.504   3.104  25.691  0.00  0.00    +0.012 C 
ATOM     12  C   UNL     1      -4.561   0.625  25.291  0.00  0.00    +0.019 C 
ATOM     13  C   UNL     1      -5.888   3.189  25.025  0.00  0.00    +0.085 C 
ATOM     16  C   UNL     1      -5.934   0.797  24.643  0.00  0.00    +0.081 C 
ATOM     37  H   UNL     1      -7.550   2.039  24.734  0.00  0.00    +0.122 HD
ENDROOT
BRANCH  10  14
ATOM     14  C   UNL     1      -3.159   2.056  23.749  0.00  0.00    +0.100 C 
BRANCH  14  17
ATOM      1  O   UNL     1      -3.369   0.130  22.384  0.00  0.00    -0.276 OA
ATOM      6  N   UNL     1      -1.472   0.256  23.715  0.00  0.00    -0.298 N 
ATOM      7  N   UNL     1       1.320  -0.153  23.665  0.00  0.00    -0.324 N 
ATOM     17  C   UNL     1      -2.684   0.728  23.218  0.00  0.00    +0.216 C 
ATOM     19  C   UNL     1      -0.631   0.934  24.704  0.00  0.00    +0.126 C 
ATOM     20  C   UNL     1      -0.946  -1.033  23.275  0.00  0.00    +0.126 C 
ATOM     21  C   UNL     1       0.788   1.122  24.167  0.00  0.00    +0.124 C 
ATOM     22  C   UNL     1       0.465  -0.878  22.711  0.00  0.00    +0.124 C 
BRANCH   7  25
ATOM     25  C   UNL     1       2.705  -0.333  23.564  0.00  0.00    +0.072 A 
ATOM     29  C   UNL     1       3.533   0.726  23.196  0.00  0.00    +0.141 A 
ATOM     30  C   UNL     1       3.253  -1.587  23.835  0.00  0.00    +0.027 A 
ATOM     33  C   UNL     1       4.911   0.533  23.100  0.00  0.00    +0.047 A 
ATOM     34  C   UNL     1       4.632  -1.779  23.739  0.00  0.00    +0.002 A 
ATOM     35  C   UNL     1       5.460  -0.720  23.372  0.00  0.00    +0.004 A 
BRANCH  29   4
ATOM      4  O   UNL     1       3.016   1.959  22.927  0.00  0.00    -0.493 OA
ATOM     36  C   UNL     1       3.721   2.763  21.984  0.00  0.00    +0.277 C 
ENDBRANCH  29   4
ENDBRANCH   7  25
ENDBRANCH  14  17
ENDBRANCH  10  14
BRANCH  11  15
ATOM     15  C   UNL     1      -3.755   4.429  25.543  0.00  0.00    +0.064 C 
BRANCH  15  18
ATOM      2  O   UNL     1      -0.183   4.541  25.104  0.00  0.00    -0.358 OA
ATOM      8  N   UNL     1      -1.471   4.984  24.828  0.00  0.00    -0.083 NA
ATOM     18  C   UNL     1      -2.269   4.225  25.584  0.00  0.00    +0.084 A 
ATOM     23  C   UNL     1      -1.547   3.293  26.351  0.00  0.00    +0.072 A 
ATOM     24  C   UNL     1      -0.242   3.534  26.012  0.00  0.00    +0.151 A 
BRANCH  24  26
ATOM     26  C   UNL     1       1.039   2.944  26.420  0.00  0.00    +0.161 C 
BRANCH  26   9
ATOM      3  O   UNL     1       2.229   2.113  30.358  0.00  0.00    -0.377 OA
ATOM      9  N   UNL     1       1.312   3.094  27.848  0.00  0.00    -0.291 NA
ATOM     27  C   UNL     1       0.523   2.134  28.633  0.00  0.00    +0.113 C 
ATOM     28  C   UNL     1       2.744   2.914  28.127  0.00  0.00    +0.113 C 
ATOM     31  C   UNL     1       0.834   2.301  30.118  0.00  0.00    +0.175 C 
ATOM     32  C   UNL     1       3.004   3.061  29.622  0.00  0.00    +0.175 C 
ENDBRANCH  26   9
ENDBRANCH  24  26
ENDBRANCH  15  18
ENDBRANCH  11  15
TORSDOF 8
ENDMDL
MODEL 9
REMARK VINA RESULT:       8.6      2.577      5.020
REMARK  Name = 26743344
REMARK  9 active torsions:
REMARK  status: ('A' for Active; 'I' for Inactive)
REMARK    1  A    between atoms: O_4  and  C_29
REMARK    2  A    between atoms: O_4  and  C_36
REMARK    3  A    between atoms: N_7  and  C_25
REMARK    4  A    between atoms: N_9  and  C_26
REMARK    5  A    between atoms: C_10  and  C_14
REMARK    6  A    between atoms: C_11  and  C_15
REMARK    7  A    between atoms: C_14  and  C_17
REMARK    8  A    between atoms: C_15  and  C_18
REMARK    9  A    between atoms: C_24  and  C_26
REMARK                            x       y       z     vdW  Elec       q    Type
REMARK                         _______ _______ _______ _____ _____    ______ ____
ROOT
ATOM      5  N   UNL     1      -6.820   2.339  27.133  0.00  0.00    -0.316 NA
ATOM     10  C   UNL     1      -4.669   1.853  25.172  0.00  0.00    +0.004 C 
ATOM     11  C   UNL     1      -4.674   3.074  26.124  0.00  0.00    +0.012 C 
ATOM     12  C   UNL     1      -5.510   0.727  25.797  0.00  0.00    +0.019 C 
ATOM     13  C   UNL     1      -6.102   3.467  26.538  0.00  0.00    +0.085 C 
ATOM     16  C   UNL     1      -6.899   1.202  26.220  0.00  0.00    +0.081 C 
ATOM     37  H   UNL     1      -7.763   2.635  27.386  0.00  0.00    +0.122 HD
ENDROOT
BRANCH  10  14
ATOM     14  C   UNL     1      -5.152   2.169  23.751  0.00  0.00    +0.100 C 
BRANCH  14  17
ATOM      1  O   UNL     1      -4.081   3.953  22.617  0.00  0.00    -0.276 OA
ATOM      6  N   UNL     1      -2.976   1.912  22.616  0.00  0.00    -0.298 N 
ATOM      7  N   UNL     1      -0.425   0.756  22.966  0.00  0.00    -0.324 N 
ATOM     17  C   UNL     1      -4.027   2.765  22.944  0.00  0.00    +0.216 C 
ATOM     19  C   UNL     1      -2.875   0.498  22.984  0.00  0.00    +0.126 C 
ATOM     20  C   UNL     1      -1.855   2.397  21.816  0.00  0.00    +0.126 C 
ATOM     21  C   UNL     1      -1.566   0.226  23.726  0.00  0.00    +0.124 C 
ATOM     22  C   UNL     1      -0.531   2.160  22.539  0.00  0.00    +0.124 C 
BRANCH   7  25
ATOM     25  C   UNL     1       0.856   0.240  23.193  0.00  0.00    +0.072 A 
ATOM     29  C   UNL     1       1.024  -0.987  23.835  0.00  0.00    +0.141 A 
ATOM     30  C   UNL     1       1.970   0.964  22.769  0.00  0.00    +0.027 A 
ATOM     33  C   UNL     1       2.306  -1.490  24.053  0.00  0.00    +0.047 A 
ATOM     34  C   UNL     1       3.253   0.461  22.989  0.00  0.00    +0.002 A 
ATOM     35  C   UNL     1       3.420  -0.766  23.630  0.00  0.00    +0.004 A 
BRANCH  29   4
ATOM      4  O   UNL     1      -0.053  -1.710  24.255  0.00  0.00    -0.493 OA
ATOM     36  C   UNL     1      -0.034  -2.173  25.604  0.00  0.00    +0.277 C 
ENDBRANCH  29   4
ENDBRANCH   7  25
ENDBRANCH  14  17
ENDBRANCH  10  14
BRANCH  11  15
ATOM     15  C   UNL     1      -3.928   4.281  25.553  0.00  0.00    +0.064 C 
BRANCH  15  18
ATOM      2  O   UNL     1      -0.350   4.453  25.195  0.00  0.00    -0.358 OA
ATOM      8  N   UNL     1      -1.634   4.927  24.956  0.00  0.00    -0.083 NA
ATOM     18  C   UNL     1      -2.442   4.075  25.593  0.00  0.00    +0.084 A 
ATOM     23  C   UNL     1      -1.731   3.053  26.247  0.00  0.00    +0.072 A 
ATOM     24  C   UNL     1      -0.420   3.337  25.965  0.00  0.00    +0.151 A 
BRANCH  24  26
ATOM     26  C   UNL     1       0.855   2.702  26.317  0.00  0.00    +0.161 C 
BRANCH  26   9
ATOM      3  O   UNL     1       2.356   2.142  30.196  0.00  0.00    -0.377 OA
ATOM      9  N   UNL     1       1.264   2.956  27.696  0.00  0.00    -0.291 NA
ATOM     27  C   UNL     1       0.504   2.114  28.629  0.00  0.00    +0.113 C 
ATOM     28  C   UNL     1       2.705   2.720  27.866  0.00  0.00    +0.113 C 
ATOM     31  C   UNL     1       0.956   2.388  30.060  0.00  0.00    +0.175 C 
ATOM     32  C   UNL     1       3.105   2.980  29.314  0.00  0.00    +0.175 C 
ENDBRANCH  26   9
ENDBRANCH  24  26
ENDBRANCH  15  18
ENDBRANCH  11  15
TORSDOF 8
ENDMDL
