MODEL 1
REMARK VINA RESULT:      -0.9      0.000      0.000
REMARK  Name = 45361453
REMARK  9 active torsions:
REMARK  status: ('A' for Active; 'I' for Inactive)
REMARK    1  A    between atoms: O_1  and  C_9
REMARK    2  A    between atoms: N_4  and  C_13
REMARK    3  A    between atoms: N_5  and  C_22
REMARK    4  A    between atoms: C_6  and  C_16
REMARK    5  A    between atoms: C_8  and  C_18
REMARK    6  A    between atoms: C_11  and  C_17
REMARK    7  A    between atoms: C_17  and  C_19
REMARK    8  A    between atoms: C_17  and  C_20
REMARK    9  A    between atoms: C_21  and  C_23
REMARK                            x       y       z     vdW  Elec       q    Type
REMARK                         _______ _______ _______ _____ _____    ______ ____
ROOT
ATOM      6  C   UNL     1      16.220  -6.758  26.388  0.00  0.00    -0.027 C 
ATOM      7  C   UNL     1      16.759  -5.695  27.402  0.00  0.00    +0.028 C 
ATOM      8  C   UNL     1      16.066  -5.856  28.803  0.00  0.00    +0.012 C 
ATOM      9  C   UNL     1      16.712  -4.263  26.795  0.00  0.00    +0.122 C 
ATOM     10  C   UNL     1      17.001  -6.645  25.058  0.00  0.00    +0.007 C 
ATOM     11  C   UNL     1      17.405  -4.180  25.415  0.00  0.00    +0.029 C 
ATOM     12  C   UNL     1      16.469  -8.172  26.962  0.00  0.00    +0.009 C 
ATOM     13  C   UNL     1      16.259  -7.304  29.335  0.00  0.00    +0.076 C 
ATOM     14  C   UNL     1      16.926  -5.254  24.440  0.00  0.00    +0.007 C 
ATOM     15  C   UNL     1      15.843  -8.380  28.333  0.00  0.00    +0.023 C 
ATOM     16  C   UNL     1      14.708  -6.586  26.094  0.00  0.00    +0.011 C 
ATOM     18  C   UNL     1      16.571  -4.858  29.858  0.00  0.00    +0.010 C 
ENDROOT
BRANCH  13   4
ATOM      3  O   UNL     1      13.547  -6.477  29.963  0.00  0.00    -0.276 OA
ATOM      4  N   UNL     1      15.535  -7.523  30.570  0.00  0.00    -0.312 N 
ATOM     21  C   UNL     1      14.239  -7.088  30.773  0.00  0.00    +0.216 C 
ATOM     31  H   UNL     1      16.034  -7.977  31.331  0.00  0.00    +0.149 HD
BRANCH  21  23
ATOM     23  C   UNL     1      13.721  -7.470  32.129  0.00  0.00    +0.075 C 
ATOM     26  C   UNL     1      13.832  -8.983  32.329  0.00  0.00    +0.013 C 
ATOM     27  C   UNL     1      12.297  -6.948  32.340  0.00  0.00    +0.013 C 
ATOM     28  C   UNL     1      12.761  -9.767  31.574  0.00  0.00    +0.001 C 
ATOM     29  C   UNL     1      11.236  -7.761  31.601  0.00  0.00    +0.001 C 
ATOM     30  C   UNL     1      11.360  -9.253  31.889  0.00  0.00    +0.000 C 
ENDBRANCH  21  23
ENDBRANCH  13   4
BRANCH   9   1
ATOM      1  O   UNL     1      17.405  -3.358  27.655  0.00  0.00    -0.391 OA
ATOM     32  H   UNL     1      17.668  -2.582  27.130  0.00  0.00    +0.210 HD
ENDBRANCH   9   1
BRANCH  11  17
ATOM     17  C   UNL     1      17.236  -2.796  24.775  0.00  0.00    +0.077 C 
ATOM     19  C   UNL     1      16.297  -1.940  25.619  0.00  0.00    +0.017 C 
BRANCH  17  20
ATOM      2  O   UNL     1      17.399  -3.306  22.410  0.00  0.00    -0.276 OA
ATOM      5  N   UNL     1      15.381  -2.529  23.244  0.00  0.00    -0.312 N 
ATOM     20  C   UNL     1      16.709  -2.916  23.350  0.00  0.00    +0.216 C 
ATOM     33  H   UNL     1      14.878  -2.213  24.069  0.00  0.00    +0.149 HD
BRANCH   5  22
ATOM     22  C   UNL     1      14.668  -2.549  21.999  0.00  0.00    +0.073 C 
ATOM     24  C   UNL     1      13.366  -1.823  21.838  0.00  0.00    +0.024 C 
ATOM     25  C   UNL     1      13.393  -3.323  21.846  0.00  0.00    +0.024 C 
ENDBRANCH   5  22
ENDBRANCH  17  20
ENDBRANCH  11  17
TORSDOF 6
ENDMDL
MODEL 2
REMARK VINA RESULT:      -0.2      1.638      2.243
REMARK  Name = 45361453
REMARK  9 active torsions:
REMARK  status: ('A' for Active; 'I' for Inactive)
REMARK    1  A    between atoms: O_1  and  C_9
REMARK    2  A    between atoms: N_4  and  C_13
REMARK    3  A    between atoms: N_5  and  C_22
REMARK    4  A    between atoms: C_6  and  C_16
REMARK    5  A    between atoms: C_8  and  C_18
REMARK    6  A    between atoms: C_11  and  C_17
REMARK    7  A    between atoms: C_17  and  C_19
REMARK    8  A    between atoms: C_17  and  C_20
REMARK    9  A    between atoms: C_21  and  C_23
REMARK                            x       y       z     vdW  Elec       q    Type
REMARK                         _______ _______ _______ _____ _____    ______ ____
ROOT
ATOM      6  C   UNL     1      16.042  -8.420  25.578  0.00  0.00    -0.027 C 
ATOM      7  C   UNL     1      16.405  -7.655  26.895  0.00  0.00    +0.028 C 
ATOM      8  C   UNL     1      15.476  -8.107  28.079  0.00  0.00    +0.012 C 
ATOM      9  C   UNL     1      16.481  -6.121  26.653  0.00  0.00    +0.122 C 
ATOM     10  C   UNL     1      17.045  -8.036  24.466  0.00  0.00    +0.007 C 
ATOM     11  C   UNL     1      17.405  -5.750  25.470  0.00  0.00    +0.029 C 
ATOM     12  C   UNL     1      16.172  -9.940  25.827  0.00  0.00    +0.009 C 
ATOM     13  C   UNL     1      15.558  -9.647  28.270  0.00  0.00    +0.076 C 
ATOM     14  C   UNL     1      17.093  -6.537  24.199  0.00  0.00    +0.007 C 
ATOM     15  C   UNL     1      15.313 -10.433  26.982  0.00  0.00    +0.023 C 
ATOM     16  C   UNL     1      14.607  -8.105  25.085  0.00  0.00    +0.011 C 
ATOM     18  C   UNL     1      15.798  -7.414  29.413  0.00  0.00    +0.010 C 
ENDROOT
BRANCH  13   4
ATOM      3  O   UNL     1      16.088 -10.107  31.088  0.00  0.00    -0.276 OA
ATOM      4  N   UNL     1      14.627 -10.114  29.276  0.00  0.00    -0.312 N 
ATOM     21  C   UNL     1      14.978 -10.302  30.600  0.00  0.00    +0.216 C 
ATOM     31  H   UNL     1      13.689 -10.357  28.970  0.00  0.00    +0.149 HD
BRANCH  21  23
ATOM     23  C   UNL     1      13.817 -10.767  31.431  0.00  0.00    +0.075 C 
ATOM     26  C   UNL     1      12.501 -10.483  30.704  0.00  0.00    +0.013 C 
ATOM     27  C   UNL     1      13.864 -10.151  32.832  0.00  0.00    +0.013 C 
ATOM     28  C   UNL     1      12.094  -9.012  30.754  0.00  0.00    +0.001 C 
ATOM     29  C   UNL     1      13.427  -8.688  32.868  0.00  0.00    +0.001 C 
ATOM     30  C   UNL     1      12.081  -8.480  32.183  0.00  0.00    +0.000 C 
ENDBRANCH  21  23
ENDBRANCH  13   4
BRANCH   9   1
ATOM      1  O   UNL     1      17.021  -5.481  27.810  0.00  0.00    -0.391 OA
ATOM     32  H   UNL     1      16.714  -5.966  28.595  0.00  0.00    +0.210 HD
ENDBRANCH   9   1
BRANCH  11  17
ATOM     17  C   UNL     1      17.365  -4.247  25.165  0.00  0.00    +0.077 C 
ATOM     19  C   UNL     1      16.409  -3.543  26.124  0.00  0.00    +0.017 C 
BRANCH  17  20
ATOM      2  O   UNL     1      17.405  -4.630  22.771  0.00  0.00    -0.276 OA
ATOM      5  N   UNL     1      16.015  -2.976  23.610  0.00  0.00    -0.312 N 
ATOM     20  C   UNL     1      16.949  -3.996  23.720  0.00  0.00    +0.216 C 
ATOM     33  H   UNL     1      15.690  -2.494  24.443  0.00  0.00    +0.149 HD
BRANCH   5  22
ATOM     22  C   UNL     1      15.479  -2.554  22.347  0.00  0.00    +0.073 C 
ATOM     24  C   UNL     1      14.382  -1.534  22.271  0.00  0.00    +0.024 C 
ATOM     25  C   UNL     1      14.104  -2.963  21.911  0.00  0.00    +0.024 C 
ENDBRANCH   5  22
ENDBRANCH  17  20
ENDBRANCH  11  17
TORSDOF 6
ENDMDL
MODEL 3
REMARK VINA RESULT:      -0.0     15.710     18.952
REMARK  Name = 45361453
REMARK  9 active torsions:
REMARK  status: ('A' for Active; 'I' for Inactive)
REMARK    1  A    between atoms: O_1  and  C_9
REMARK    2  A    between atoms: N_4  and  C_13
REMARK    3  A    between atoms: N_5  and  C_22
REMARK    4  A    between atoms: C_6  and  C_16
REMARK    5  A    between atoms: C_8  and  C_18
REMARK    6  A    between atoms: C_11  and  C_17
REMARK    7  A    between atoms: C_17  and  C_19
REMARK    8  A    between atoms: C_17  and  C_20
REMARK    9  A    between atoms: C_21  and  C_23
REMARK                            x       y       z     vdW  Elec       q    Type
REMARK                         _______ _______ _______ _____ _____    ______ ____
ROOT
ATOM      6  C   UNL     1      -2.042  -0.863  25.246  0.00  0.00    -0.027 C 
ATOM      7  C   UNL     1      -2.243   0.147  24.067  0.00  0.00    +0.028 C 
ATOM      8  C   UNL     1      -0.861   0.577  23.457  0.00  0.00    +0.012 C 
ATOM      9  C   UNL     1      -3.183   1.316  24.481  0.00  0.00    +0.122 C 
ATOM     10  C   UNL     1      -3.421  -1.350  25.748  0.00  0.00    +0.007 C 
ATOM     11  C   UNL     1      -4.520   0.821  25.080  0.00  0.00    +0.029 C 
ATOM     12  C   UNL     1      -1.267  -2.095  24.726  0.00  0.00    +0.009 C 
ATOM     13  C   UNL     1      -0.059  -0.676  23.007  0.00  0.00    +0.076 C 
ATOM     14  C   UNL     1      -4.330  -0.211  26.191  0.00  0.00    +0.007 C 
ATOM     15  C   UNL     1       0.072  -1.739  24.098  0.00  0.00    +0.023 C 
ATOM     16  C   UNL     1      -1.270  -0.240  26.437  0.00  0.00    +0.011 C 
ATOM     18  C   UNL     1      -0.986   1.549  22.272  0.00  0.00    +0.010 C 
ENDROOT
BRANCH  13   4
ATOM      3  O   UNL     1       1.734   1.314  24.129  0.00  0.00    -0.276 OA
ATOM      4  N   UNL     1       1.269  -0.327  22.546  0.00  0.00    -0.312 N 
ATOM     21  C   UNL     1       2.049   0.640  23.151  0.00  0.00    +0.216 C 
ATOM     31  H   UNL     1       1.610  -0.789  21.707  0.00  0.00    +0.149 HD
BRANCH  21  23
ATOM     23  C   UNL     1       3.388   0.784  22.489  0.00  0.00    +0.075 C 
ATOM     26  C   UNL     1       3.937  -0.593  22.106  0.00  0.00    +0.013 C 
ATOM     27  C   UNL     1       4.354   1.582  23.368  0.00  0.00    +0.013 C 
ATOM     28  C   UNL     1       4.484  -1.372  23.300  0.00  0.00    +0.001 C 
ATOM     29  C   UNL     1       4.914   0.779  24.541  0.00  0.00    +0.001 C 
ATOM     30  C   UNL     1       5.501  -0.553  24.089  0.00  0.00    +0.000 C 
ENDBRANCH  21  23
ENDBRANCH  13   4
BRANCH   9   1
ATOM      1  O   UNL     1      -3.515   2.092  23.328  0.00  0.00    -0.391 OA
ATOM     32  H   UNL     1      -3.082   1.688  22.557  0.00  0.00    +0.210 HD
ENDBRANCH   9   1
BRANCH  11  17
ATOM     17  C   UNL     1      -5.376   1.982  25.600  0.00  0.00    +0.077 C 
ATOM     19  C   UNL     1      -6.669   2.082  24.796  0.00  0.00    +0.017 C 
BRANCH  17  20
ATOM      2  O   UNL     1      -5.099   4.343  25.118  0.00  0.00    -0.276 OA
ATOM      5  N   UNL     1      -3.302   3.167  25.990  0.00  0.00    -0.312 N 
ATOM     20  C   UNL     1      -4.606   3.297  25.535  0.00  0.00    +0.216 C 
ATOM     33  H   UNL     1      -2.966   2.265  26.316  0.00  0.00    +0.149 HD
BRANCH   5  22
ATOM     22  C   UNL     1      -2.382   4.268  26.018  0.00  0.00    +0.073 C 
ATOM     24  C   UNL     1      -1.923   4.928  24.752  0.00  0.00    +0.024 C 
ATOM     25  C   UNL     1      -0.963   4.106  25.560  0.00  0.00    +0.024 C 
ENDBRANCH   5  22
ENDBRANCH  17  20
ENDBRANCH  11  17
TORSDOF 6
ENDMDL
