MODEL 1
REMARK VINA RESULT:      -2.9      0.000      0.000
REMARK  Name = 71693643
REMARK  9 active torsions:
REMARK  status: ('A' for Active; 'I' for Inactive)
REMARK    1  A    between atoms: O_2  and  C_10
REMARK    2  A    between atoms: N_5  and  C_13
REMARK    3  A    between atoms: N_6  and  C_17
REMARK    4  A    between atoms: C_7  and  C_10
REMARK    5  A    between atoms: C_8  and  C_9
REMARK    6  A    between atoms: C_14  and  C_20
REMARK    7  A    between atoms: C_14  and  C_21
REMARK    8  A    between atoms: C_14  and  C_22
REMARK    9  A    between atoms: C_14  and  C_23
REMARK                            x       y       z     vdW  Elec       q    Type
REMARK                         _______ _______ _______ _____ _____    ______ ____
ROOT
ATOM      9  C   UNL     1      16.819  -5.324  26.248  0.00  0.00    -0.017 A 
ATOM     15  C   UNL     1      15.958  -6.350  25.862  0.00  0.00    +0.008 A 
ATOM     16  C   UNL     1      17.236  -5.225  27.576  0.00  0.00    +0.008 A 
ATOM     17  C   UNL     1      15.931  -7.181  28.130  0.00  0.00    +0.033 A 
ATOM     18  C   UNL     1      15.513  -7.279  26.803  0.00  0.00    +0.023 A 
ATOM     19  C   UNL     1      16.793  -6.154  28.517  0.00  0.00    +0.023 A 
ENDROOT
BRANCH   9   8
ATOM      1  O   UNL     1      16.797  -4.733  23.957  0.00  0.00    -0.361 OA
ATOM      3  O   UNL     1      17.405  -1.808  22.014  0.00  0.00    -0.273 OA
ATOM      5  N   UNL     1      17.111  -1.998  24.319  0.00  0.00    -0.295 N 
ATOM      7  C   UNL     1      16.818  -2.875  25.479  0.00  0.00    +0.134 C 
ATOM      8  C   UNL     1      17.302  -4.316  25.225  0.00  0.00    +0.171 C 
ATOM     11  C   UNL     1      17.404  -4.007  22.914  0.00  0.00    +0.256 C 
ATOM     12  C   UNL     1      17.285  -2.500  23.027  0.00  0.00    +0.242 C 
ATOM     13  C   UNL     1      16.972  -0.556  24.495  0.00  0.00    +0.132 C 
BRANCH   7  10
ATOM     10  C   UNL     1      17.404  -2.331  26.791  0.00  0.00    +0.181 C 
BRANCH  10   2
ATOM      2  O   UNL     1      16.348  -1.781  27.551  0.00  0.00    -0.393 OA
ATOM     25  H   UNL     1      15.521  -1.975  27.077  0.00  0.00    +0.209 HD
ENDBRANCH  10   2
ENDBRANCH   7  10
ENDBRANCH   9   8
BRANCH  17   6
ATOM      4  O   UNL     1      13.618  -7.060  30.009  0.00  0.00    -0.275 OA
ATOM      6  N   UNL     1      15.487  -8.110  29.072  0.00  0.00    -0.285 N 
ATOM     20  C   UNL     1      14.388  -8.015  29.942  0.00  0.00    +0.223 C 
ATOM     24  H   UNL     1      16.044  -8.959  29.120  0.00  0.00    +0.155 HD
BRANCH  20  14
ATOM     14  C   UNL     1      14.203  -9.253  30.854  0.00  0.00    +0.039 C 
ATOM     21  C   UNL     1      13.707  -8.821  32.242  0.00  0.00    +0.020 C 
ATOM     22  C   UNL     1      13.210 -10.238  30.217  0.00  0.00    +0.020 C 
ATOM     23  C   UNL     1      15.556  -9.969  31.024  0.00  0.00    +0.020 C 
ENDBRANCH  20  14
ENDBRANCH  17   6
TORSDOF 5
ENDMDL
MODEL 2
REMARK VINA RESULT:      -0.8     18.112     19.314
REMARK  Name = 71693643
REMARK  9 active torsions:
REMARK  status: ('A' for Active; 'I' for Inactive)
REMARK    1  A    between atoms: O_2  and  C_10
REMARK    2  A    between atoms: N_5  and  C_13
REMARK    3  A    between atoms: N_6  and  C_17
REMARK    4  A    between atoms: C_7  and  C_10
REMARK    5  A    between atoms: C_8  and  C_9
REMARK    6  A    between atoms: C_14  and  C_20
REMARK    7  A    between atoms: C_14  and  C_21
REMARK    8  A    between atoms: C_14  and  C_22
REMARK    9  A    between atoms: C_14  and  C_23
REMARK                            x       y       z     vdW  Elec       q    Type
REMARK                         _______ _______ _______ _____ _____    ______ ____
ROOT
ATOM      9  C   UNL     1      -1.640   0.979  23.973  0.00  0.00    -0.017 A 
ATOM     15  C   UNL     1      -0.639   1.948  23.927  0.00  0.00    +0.008 A 
ATOM     16  C   UNL     1      -1.302  -0.375  23.953  0.00  0.00    +0.008 A 
ATOM     17  C   UNL     1       1.039   0.213  23.844  0.00  0.00    +0.033 A 
ATOM     18  C   UNL     1       0.701   1.566  23.862  0.00  0.00    +0.023 A 
ATOM     19  C   UNL     1       0.038  -0.758  23.889  0.00  0.00    +0.023 A 
ENDROOT
BRANCH   9   8
ATOM      1  O   UNL     1      -3.820   0.288  24.582  0.00  0.00    -0.361 OA
ATOM      3  O   UNL     1      -6.929   1.852  25.348  0.00  0.00    -0.273 OA
ATOM      5  N   UNL     1      -4.814   2.814  25.165  0.00  0.00    -0.295 N 
ATOM      7  C   UNL     1      -3.360   2.619  24.941  0.00  0.00    +0.134 C 
ATOM      8  C   UNL     1      -3.095   1.395  24.044  0.00  0.00    +0.171 C 
ATOM     11  C   UNL     1      -5.207   0.486  24.445  0.00  0.00    +0.256 C 
ATOM     12  C   UNL     1      -5.735   1.771  25.051  0.00  0.00    +0.242 C 
ATOM     13  C   UNL     1      -5.254   4.074  25.757  0.00  0.00    +0.132 C 
BRANCH   7  10
ATOM     10  C   UNL     1      -2.681   3.869  24.364  0.00  0.00    +0.181 C 
BRANCH  10   2
ATOM      2  O   UNL     1      -2.017   4.537  25.417  0.00  0.00    -0.393 OA
ATOM     25  H   UNL     1      -1.842   3.877  26.110  0.00  0.00    +0.209 HD
ENDBRANCH  10   2
ENDBRANCH   7  10
ENDBRANCH   9   8
BRANCH  17   6
ATOM      4  O   UNL     1       3.413   1.687  22.801  0.00  0.00    -0.275 OA
ATOM      6  N   UNL     1       2.379  -0.170  23.779  0.00  0.00    -0.285 N 
ATOM     20  C   UNL     1       3.472   0.556  23.278  0.00  0.00    +0.223 C 
ATOM     24  H   UNL     1       2.569  -1.099  24.147  0.00  0.00    +0.155 HD
BRANCH  20  14
ATOM     14  C   UNL     1       4.821  -0.200  23.373  0.00  0.00    +0.039 C 
ATOM     21  C   UNL     1       4.587  -1.649  23.825  0.00  0.00    +0.020 C 
ATOM     22  C   UNL     1       5.540  -0.176  22.015  0.00  0.00    +0.020 C 
ATOM     23  C   UNL     1       5.723   0.493  24.412  0.00  0.00    +0.020 C 
ENDBRANCH  20  14
ENDBRANCH  17   6
TORSDOF 5
ENDMDL
MODEL 3
REMARK VINA RESULT:       0.1     18.563     19.817
REMARK  Name = 71693643
REMARK  9 active torsions:
REMARK  status: ('A' for Active; 'I' for Inactive)
REMARK    1  A    between atoms: O_2  and  C_10
REMARK    2  A    between atoms: N_5  and  C_13
REMARK    3  A    between atoms: N_6  and  C_17
REMARK    4  A    between atoms: C_7  and  C_10
REMARK    5  A    between atoms: C_8  and  C_9
REMARK    6  A    between atoms: C_14  and  C_20
REMARK    7  A    between atoms: C_14  and  C_21
REMARK    8  A    between atoms: C_14  and  C_22
REMARK    9  A    between atoms: C_14  and  C_23
REMARK                            x       y       z     vdW  Elec       q    Type
REMARK                         _______ _______ _______ _____ _____    ______ ____
ROOT
ATOM      9  C   UNL     1      -1.752   1.659  25.043  0.00  0.00    -0.017 A 
ATOM     15  C   UNL     1      -1.517   0.285  25.052  0.00  0.00    +0.008 A 
ATOM     16  C   UNL     1      -0.756   2.535  24.607  0.00  0.00    +0.008 A 
ATOM     17  C   UNL     1       0.707   0.659  24.187  0.00  0.00    +0.033 A 
ATOM     18  C   UNL     1      -0.287  -0.216  24.624  0.00  0.00    +0.023 A 
ATOM     19  C   UNL     1       0.473   2.035  24.179  0.00  0.00    +0.023 A 
ENDROOT
BRANCH   9   8
ATOM      1  O   UNL     1      -3.071   3.611  25.272  0.00  0.00    -0.361 OA
ATOM      3  O   UNL     1      -6.523   4.387  25.692  0.00  0.00    -0.273 OA
ATOM      5  N   UNL     1      -5.543   2.360  25.089  0.00  0.00    -0.295 N 
ATOM      7  C   UNL     1      -4.303   1.611  24.768  0.00  0.00    +0.134 C 
ATOM      8  C   UNL     1      -3.088   2.202  25.508  0.00  0.00    +0.171 C 
ATOM     11  C   UNL     1      -4.161   4.237  25.905  0.00  0.00    +0.256 C 
ATOM     12  C   UNL     1      -5.523   3.684  25.533  0.00  0.00    +0.242 C 
ATOM     13  C   UNL     1      -6.821   1.773  24.698  0.00  0.00    +0.132 C 
BRANCH   7  10
ATOM     10  C   UNL     1      -4.432   0.108  25.057  0.00  0.00    +0.181 C 
BRANCH  10   2
ATOM      2  O   UNL     1      -4.348  -0.586  23.829  0.00  0.00    -0.393 OA
ATOM     25  H   UNL     1      -4.827  -0.059  23.167  0.00  0.00    +0.209 HD
ENDBRANCH  10   2
ENDBRANCH   7  10
ENDBRANCH   9   8
BRANCH  17   6
ATOM      4  O   UNL     1       3.107   2.091  23.143  0.00  0.00    -0.275 OA
ATOM      6  N   UNL     1       1.938   0.160  23.759  0.00  0.00    -0.285 N 
ATOM     20  C   UNL     1       3.047   0.870  23.271  0.00  0.00    +0.223 C 
ATOM     24  H   UNL     1       2.023  -0.852  23.814  0.00  0.00    +0.155 HD
BRANCH  20  14
ATOM     14  C   UNL     1       4.248  -0.031  22.889  0.00  0.00    +0.039 C 
ATOM     21  C   UNL     1       4.026  -1.459  23.410  0.00  0.00    +0.020 C 
ATOM     22  C   UNL     1       4.438  -0.045  21.364  0.00  0.00    +0.020 C 
ATOM     23  C   UNL     1       5.531   0.527  23.534  0.00  0.00    +0.020 C 
ENDBRANCH  20  14
ENDBRANCH  17   6
TORSDOF 5
ENDMDL
