MODEL 1
REMARK VINA RESULT:       6.6      0.000      0.000
REMARK  Name = 25317485
REMARK  6 active torsions:
REMARK  status: ('A' for Active; 'I' for Inactive)
REMARK    1  A    between atoms: O_6  and  C_13
REMARK    2  A    between atoms: N_8  and  C_12
REMARK    3  A    between atoms: N_9  and  C_14
REMARK    4  A    between atoms: N_10  and  C_23
REMARK    5  A    between atoms: N_11  and  C_28
REMARK    6  A    between atoms: C_32  and  C_35
REMARK                            x       y       z     vdW  Elec       q    Type
REMARK                         _______ _______ _______ _____ _____    ______ ____
ROOT
ATOM      4  O   UNL     1      -3.873   3.466  26.658  0.00  0.00    -0.342 OA
ATOM      5  O   UNL     1      -4.753   5.550  26.145  0.00  0.00    -0.347 OA
ATOM     12  C   UNL     1      -4.347   3.982  24.350  0.00  0.00    +0.144 C 
ATOM     13  C   UNL     1      -2.917   4.537  24.160  0.00  0.00    +0.159 C 
ATOM     14  C   UNL     1      -2.016   4.354  25.401  0.00  0.00    +0.136 C 
ATOM     15  C   UNL     1      -4.804   4.154  25.810  0.00  0.00    +0.270 C 
ATOM     16  C   UNL     1      -2.797   4.407  26.731  0.00  0.00    +0.170 C 
ATOM     17  C   UNL     1      -3.569   5.694  26.946  0.00  0.00    +0.196 C 
ENDROOT
BRANCH  14   9
ATOM      7  O   UNL     1      -0.190   3.586  23.334  0.00  0.00    -0.252 OA
ATOM      9  N   UNL     1      -1.288   3.107  25.310  0.00  0.00    -0.291 N 
ATOM     11  N   UNL     1       0.142   1.542  24.439  0.00  0.00    -0.269 N 
ATOM     22  C   UNL     1      -0.413   2.813  24.261  0.00  0.00    +0.304 C 
ATOM     36  H   UNL     1      -1.482   2.385  25.997  0.00  0.00    +0.151 HD
ATOM     38  H   UNL     1      -0.149   1.028  25.267  0.00  0.00    +0.156 HD
BRANCH  11  28
ATOM     28  C   UNL     1       1.070   0.876  23.604  0.00  0.00    +0.035 A 
ATOM     30  C   UNL     1       2.435   0.945  23.884  0.00  0.00    +0.035 A 
ATOM     31  C   UNL     1       0.619   0.151  22.501  0.00  0.00    +0.023 A 
ATOM     32  C   UNL     1       3.349   0.287  23.061  0.00  0.00    +0.057 A 
ATOM     33  C   UNL     1       1.534  -0.506  21.678  0.00  0.00    +0.002 A 
ATOM     34  C   UNL     1       2.899  -0.438  21.958  0.00  0.00    +0.012 A 
BRANCH  32  35
ATOM      1  F   UNL     1       5.214   1.584  23.812  0.00  0.00    -0.166 F 
ATOM      2  F   UNL     1       5.581   0.101  22.265  0.00  0.00    -0.166 F 
ATOM      3  F   UNL     1       5.216  -0.526  24.315  0.00  0.00    -0.166 F 
ATOM     35  C   UNL     1       4.809   0.360  23.359  0.00  0.00    +0.417 C 
ENDBRANCH  32  35
ENDBRANCH  11  28
ENDBRANCH  14   9
BRANCH  12   8
ATOM      8  N   UNL     1      -4.391   2.566  23.981  0.00  0.00    -0.290 NA
ATOM     10  N   UNL     1      -3.576  -0.171  24.041  0.00  0.00    -0.327 N 
ATOM     18  C   UNL     1      -4.665   1.735  25.159  0.00  0.00    +0.104 C 
ATOM     19  C   UNL     1      -3.124   2.155  23.362  0.00  0.00    +0.104 C 
ATOM     20  C   UNL     1      -4.769   0.256  24.778  0.00  0.00    +0.120 C 
ATOM     21  C   UNL     1      -3.179   0.691  22.921  0.00  0.00    +0.120 C 
BRANCH  10  23
ATOM     23  C   UNL     1      -3.253  -1.530  23.971  0.00  0.00    +0.030 A 
ATOM     24  C   UNL     1      -1.931  -1.942  24.137  0.00  0.00    +0.023 A 
ATOM     25  C   UNL     1      -4.252  -2.475  23.737  0.00  0.00    +0.023 A 
ATOM     26  C   UNL     1      -1.607  -3.297  24.067  0.00  0.00    +0.002 A 
ATOM     27  C   UNL     1      -3.930  -3.830  23.667  0.00  0.00    +0.002 A 
ATOM     29  C   UNL     1      -2.607  -4.241  23.832  0.00  0.00    +0.000 A 
ENDBRANCH  10  23
ENDBRANCH  12   8
BRANCH  13   6
ATOM      6  O   UNL     1      -3.026   5.937  23.872  0.00  0.00    -0.388 OA
ATOM     37  H   UNL     1      -3.017   6.413  24.719  0.00  0.00    +0.210 HD
ENDBRANCH  13   6
TORSDOF 6
ENDMDL
MODEL 2
REMARK VINA RESULT:       8.7      4.095      7.583
REMARK  Name = 25317485
REMARK  6 active torsions:
REMARK  status: ('A' for Active; 'I' for Inactive)
REMARK    1  A    between atoms: O_6  and  C_13
REMARK    2  A    between atoms: N_8  and  C_12
REMARK    3  A    between atoms: N_9  and  C_14
REMARK    4  A    between atoms: N_10  and  C_23
REMARK    5  A    between atoms: N_11  and  C_28
REMARK    6  A    between atoms: C_32  and  C_35
REMARK                            x       y       z     vdW  Elec       q    Type
REMARK                         _______ _______ _______ _____ _____    ______ ____
ROOT
ATOM      4  O   UNL     1       4.073   0.351  24.605  0.00  0.00    -0.342 OA
ATOM      5  O   UNL     1       5.343   0.781  22.712  0.00  0.00    -0.347 OA
ATOM     12  C   UNL     1       3.059   1.572  22.788  0.00  0.00    +0.144 C 
ATOM     13  C   UNL     1       2.559   0.253  22.156  0.00  0.00    +0.159 C 
ATOM     14  C   UNL     1       2.847  -0.993  23.022  0.00  0.00    +0.136 C 
ATOM     15  C   UNL     1       4.349   1.330  23.593  0.00  0.00    +0.270 C 
ATOM     16  C   UNL     1       4.139  -0.867  23.856  0.00  0.00    +0.170 C 
ATOM     17  C   UNL     1       5.387  -0.618  23.032  0.00  0.00    +0.196 C 
ENDROOT
BRANCH  14   9
ATOM      7  O   UNL     1       0.080  -1.042  22.285  0.00  0.00    -0.252 OA
ATOM      9  N   UNL     1       1.725  -1.264  23.894  0.00  0.00    -0.291 N 
ATOM     11  N   UNL     1      -0.464  -1.559  24.510  0.00  0.00    -0.269 N 
ATOM     22  C   UNL     1       0.400  -1.268  23.449  0.00  0.00    +0.304 C 
ATOM     36  H   UNL     1       1.903  -1.380  24.887  0.00  0.00    +0.151 HD
ATOM     38  H   UNL     1      -0.034  -1.722  25.417  0.00  0.00    +0.156 HD
BRANCH  11  28
ATOM     28  C   UNL     1      -1.874  -1.658  24.478  0.00  0.00    +0.035 A 
ATOM     30  C   UNL     1      -2.656  -0.508  24.591  0.00  0.00    +0.035 A 
ATOM     31  C   UNL     1      -2.483  -2.904  24.333  0.00  0.00    +0.023 A 
ATOM     32  C   UNL     1      -4.047  -0.605  24.559  0.00  0.00    +0.057 A 
ATOM     33  C   UNL     1      -3.874  -3.000  24.301  0.00  0.00    +0.002 A 
ATOM     34  C   UNL     1      -4.656  -1.851  24.414  0.00  0.00    +0.012 A 
BRANCH  32  35
ATOM      1  F   UNL     1      -6.220   0.396  24.507  0.00  0.00    -0.166 F 
ATOM      2  F   UNL     1      -4.553   1.577  23.762  0.00  0.00    -0.166 F 
ATOM      3  F   UNL     1      -4.782   1.237  25.898  0.00  0.00    -0.166 F 
ATOM     35  C   UNL     1      -4.884   0.624  24.681  0.00  0.00    +0.417 C 
ENDBRANCH  32  35
ENDBRANCH  11  28
ENDBRANCH  14   9
BRANCH  12   8
ATOM      8  N   UNL     1       2.028   2.134  23.662  0.00  0.00    -0.290 NA
ATOM     10  N   UNL     1      -0.611   2.949  24.393  0.00  0.00    -0.327 N 
ATOM     18  C   UNL     1       0.993   1.133  23.947  0.00  0.00    +0.104 C 
ATOM     19  C   UNL     1       1.420   3.320  23.046  0.00  0.00    +0.104 C 
ATOM     20  C   UNL     1      -0.063   1.690  24.906  0.00  0.00    +0.120 C 
ATOM     21  C   UNL     1       0.380   3.949  23.975  0.00  0.00    +0.120 C 
BRANCH  10  23
ATOM     23  C   UNL     1      -1.851   3.405  24.852  0.00  0.00    +0.030 A 
ATOM     24  C   UNL     1      -2.076   3.557  26.220  0.00  0.00    +0.023 A 
ATOM     25  C   UNL     1      -2.864   3.708  23.942  0.00  0.00    +0.023 A 
ATOM     26  C   UNL     1      -3.312   4.011  26.679  0.00  0.00    +0.002 A 
ATOM     27  C   UNL     1      -4.101   4.162  24.400  0.00  0.00    +0.002 A 
ATOM     29  C   UNL     1      -4.325   4.314  25.768  0.00  0.00    +0.000 A 
ENDBRANCH  10  23
ENDBRANCH  12   8
BRANCH  13   6
ATOM      6  O   UNL     1       3.217   0.098  20.891  0.00  0.00    -0.388 OA
ATOM     37  H   UNL     1       2.607   0.410  20.202  0.00  0.00    +0.210 HD
ENDBRANCH  13   6
TORSDOF 6
ENDMDL
MODEL 3
REMARK VINA RESULT:      10.0      2.082      4.992
REMARK  Name = 25317485
REMARK  6 active torsions:
REMARK  status: ('A' for Active; 'I' for Inactive)
REMARK    1  A    between atoms: O_6  and  C_13
REMARK    2  A    between atoms: N_8  and  C_12
REMARK    3  A    between atoms: N_9  and  C_14
REMARK    4  A    between atoms: N_10  and  C_23
REMARK    5  A    between atoms: N_11  and  C_28
REMARK    6  A    between atoms: C_32  and  C_35
REMARK                            x       y       z     vdW  Elec       q    Type
REMARK                         _______ _______ _______ _____ _____    ______ ____
ROOT
ATOM      4  O   UNL     1      -4.518   3.990  23.939  0.00  0.00    -0.342 OA
ATOM      5  O   UNL     1      -4.495   5.710  25.494  0.00  0.00    -0.347 OA
ATOM     12  C   UNL     1      -3.136   3.752  25.902  0.00  0.00    +0.144 C 
ATOM     13  C   UNL     1      -4.300   3.077  26.663  0.00  0.00    +0.159 C 
ATOM     14  C   UNL     1      -5.549   2.833  25.787  0.00  0.00    +0.136 C 
ATOM     15  C   UNL     1      -3.679   4.726  24.839  0.00  0.00    +0.270 C 
ATOM     16  C   UNL     1      -5.735   3.898  24.686  0.00  0.00    +0.170 C 
ATOM     17  C   UNL     1      -5.846   5.317  25.208  0.00  0.00    +0.196 C 
ENDROOT
BRANCH  14   9
ATOM      7  O   UNL     1      -3.317   1.040  25.817  0.00  0.00    -0.252 OA
ATOM      9  N   UNL     1      -5.490   1.517  25.191  0.00  0.00    -0.291 N 
ATOM     11  N   UNL     1      -4.590  -0.505  24.591  0.00  0.00    -0.269 N 
ATOM     22  C   UNL     1      -4.355   0.704  25.253  0.00  0.00    +0.304 C 
ATOM     36  H   UNL     1      -6.281   1.202  24.637  0.00  0.00    +0.151 HD
ATOM     38  H   UNL     1      -5.510  -0.626  24.175  0.00  0.00    +0.156 HD
BRANCH  11  28
ATOM     28  C   UNL     1      -3.701  -1.592  24.428  0.00  0.00    +0.035 A 
ATOM     30  C   UNL     1      -2.398  -1.506  24.919  0.00  0.00    +0.035 A 
ATOM     31  C   UNL     1      -4.126  -2.749  23.776  0.00  0.00    +0.023 A 
ATOM     32  C   UNL     1      -1.520  -2.579  24.758  0.00  0.00    +0.057 A 
ATOM     33  C   UNL     1      -3.248  -3.822  23.615  0.00  0.00    +0.002 A 
ATOM     34  C   UNL     1      -1.945  -3.737  24.107  0.00  0.00    +0.012 A 
BRANCH  32  35
ATOM      1  F   UNL     1       0.419  -3.700  25.599  0.00  0.00    -0.166 F 
ATOM      2  F   UNL     1      -0.043  -1.741  26.422  0.00  0.00    -0.166 F 
ATOM      3  F   UNL     1       0.752  -1.920  24.405  0.00  0.00    -0.166 F 
ATOM     35  C   UNL     1      -0.127  -2.488  25.283  0.00  0.00    +0.417 C 
ENDBRANCH  32  35
ENDBRANCH  11  28
ENDBRANCH  14   9
BRANCH  12   8
ATOM      8  N   UNL     1      -2.297   2.737  25.261  0.00  0.00    -0.290 NA
ATOM     10  N   UNL     1       0.021   1.734  23.927  0.00  0.00    -0.327 N 
ATOM     18  C   UNL     1      -1.031   2.584  25.986  0.00  0.00    +0.104 C 
ATOM     19  C   UNL     1      -2.032   3.097  23.862  0.00  0.00    +0.104 C 
ATOM     20  C   UNL     1      -0.167   1.486  25.359  0.00  0.00    +0.120 C 
ATOM     21  C   UNL     1      -1.203   2.016  23.166  0.00  0.00    +0.120 C 
BRANCH  10  23
ATOM     23  C   UNL     1       1.091   1.136  23.253  0.00  0.00    +0.030 A 
ATOM     24  C   UNL     1       0.854   0.104  22.345  0.00  0.00    +0.023 A 
ATOM     25  C   UNL     1       2.395   1.570  23.489  0.00  0.00    +0.023 A 
ATOM     26  C   UNL     1       1.920  -0.493  21.673  0.00  0.00    +0.002 A 
ATOM     27  C   UNL     1       3.462   0.974  22.816  0.00  0.00    +0.002 A 
ATOM     29  C   UNL     1       3.225  -0.058  21.909  0.00  0.00    +0.000 A 
ENDBRANCH  10  23
ENDBRANCH  12   8
BRANCH  13   6
ATOM      6  O   UNL     1      -4.662   3.933  27.755  0.00  0.00    -0.388 OA
ATOM     37  H   UNL     1      -4.574   4.852  27.449  0.00  0.00    +0.210 HD
ENDBRANCH  13   6
TORSDOF 6
ENDMDL
MODEL 4
REMARK VINA RESULT:      10.2      2.662      5.636
REMARK  Name = 25317485
REMARK  6 active torsions:
REMARK  status: ('A' for Active; 'I' for Inactive)
REMARK    1  A    between atoms: O_6  and  C_13
REMARK    2  A    between atoms: N_8  and  C_12
REMARK    3  A    between atoms: N_9  and  C_14
REMARK    4  A    between atoms: N_10  and  C_23
REMARK    5  A    between atoms: N_11  and  C_28
REMARK    6  A    between atoms: C_32  and  C_35
REMARK                            x       y       z     vdW  Elec       q    Type
REMARK                         _______ _______ _______ _____ _____    ______ ____
ROOT
ATOM      4  O   UNL     1      -3.539  -1.299  23.232  0.00  0.00    -0.342 OA
ATOM      5  O   UNL     1      -5.141  -2.857  23.852  0.00  0.00    -0.347 OA
ATOM     12  C   UNL     1      -4.281  -1.339  25.526  0.00  0.00    +0.144 C 
ATOM     13  C   UNL     1      -3.162  -2.340  25.891  0.00  0.00    +0.159 C 
ATOM     14  C   UNL     1      -2.197  -2.638  24.723  0.00  0.00    +0.136 C 
ATOM     15  C   UNL     1      -4.696  -1.505  24.053  0.00  0.00    +0.270 C 
ATOM     16  C   UNL     1      -2.877  -2.563  23.340  0.00  0.00    +0.170 C 
ATOM     17  C   UNL     1      -4.053  -3.505  23.175  0.00  0.00    +0.196 C 
ENDROOT
BRANCH  14   9
ATOM      7  O   UNL     1      -0.153  -2.357  22.738  0.00  0.00    -0.252 OA
ATOM      9  N   UNL     1      -1.071  -1.731  24.764  0.00  0.00    -0.291 N 
ATOM     11  N   UNL     1       0.851  -0.697  24.060  0.00  0.00    -0.269 N 
ATOM     22  C   UNL     1      -0.115  -1.658  23.747  0.00  0.00    +0.304 C 
ATOM     36  H   UNL     1      -0.927  -1.178  25.604  0.00  0.00    +0.151 HD
ATOM     38  H   UNL     1       0.734  -0.203  24.942  0.00  0.00    +0.156 HD
BRANCH  11  28
ATOM     28  C   UNL     1       1.980  -0.321  23.297  0.00  0.00    +0.035 A 
ATOM     30  C   UNL     1       3.244  -0.296  23.887  0.00  0.00    +0.035 A 
ATOM     31  C   UNL     1       1.830   0.025  21.954  0.00  0.00    +0.023 A 
ATOM     32  C   UNL     1       4.358   0.074  23.133  0.00  0.00    +0.057 A 
ATOM     33  C   UNL     1       2.944   0.396  21.201  0.00  0.00    +0.002 A 
ATOM     34  C   UNL     1       4.208   0.420  21.790  0.00  0.00    +0.012 A 
BRANCH  32  35
ATOM      1  F   UNL     1       6.716  -0.267  22.916  0.00  0.00    -0.166 F 
ATOM      2  F   UNL     1       5.807  -0.741  24.832  0.00  0.00    -0.166 F 
ATOM      3  F   UNL     1       6.070   1.333  24.232  0.00  0.00    -0.166 F 
ATOM     35  C   UNL     1       5.710   0.101  23.763  0.00  0.00    +0.417 C 
ENDBRANCH  32  35
ENDBRANCH  11  28
ENDBRANCH  14   9
BRANCH  12   8
ATOM      8  N   UNL     1      -3.825   0.033  25.760  0.00  0.00    -0.290 NA
ATOM     10  N   UNL     1      -2.511   2.488  25.123  0.00  0.00    -0.327 N 
ATOM     18  C   UNL     1      -4.394   0.942  24.759  0.00  0.00    +0.104 C 
ATOM     19  C   UNL     1      -2.358   0.102  25.721  0.00  0.00    +0.104 C 
ATOM     20  C   UNL     1      -3.970   2.389  25.025  0.00  0.00    +0.120 C 
ATOM     21  C   UNL     1      -1.868   1.520  26.020  0.00  0.00    +0.120 C 
BRANCH  10  23
ATOM     23  C   UNL     1      -1.884   3.724  24.932  0.00  0.00    +0.030 A 
ATOM     24  C   UNL     1      -0.626   3.782  24.332  0.00  0.00    +0.023 A 
ATOM     25  C   UNL     1      -2.516   4.898  25.341  0.00  0.00    +0.023 A 
ATOM     26  C   UNL     1       0.000   5.014  24.141  0.00  0.00    +0.002 A 
ATOM     27  C   UNL     1      -1.891   6.130  25.150  0.00  0.00    +0.002 A 
ATOM     29  C   UNL     1      -0.632   6.189  24.551  0.00  0.00    +0.000 A 
ENDBRANCH  10  23
ENDBRANCH  12   8
BRANCH  13   6
ATOM      6  O   UNL     1      -3.788  -3.566  26.295  0.00  0.00    -0.388 OA
ATOM     37  H   UNL     1      -4.460  -3.347  26.963  0.00  0.00    +0.210 HD
ENDBRANCH  13   6
TORSDOF 6
ENDMDL
