MODEL 1
REMARK VINA RESULT:       2.8      0.000      0.000
REMARK  Name = 44716748
REMARK  14 active torsions:
REMARK  status: ('A' for Active; 'I' for Inactive)
REMARK    1  A    between atoms: O_2  and  C_12
REMARK    2  A    between atoms: O_4  and  C_28
REMARK    3  A    between atoms: O_4  and  C_30
REMARK    4  A    between atoms: N_7  and  C_26
REMARK    5  A    between atoms: N_9  and  C_29
REMARK    6  A    between atoms: N_9  and  C_31
REMARK    7  A    between atoms: N_9  and  C_32
REMARK    8  A    between atoms: C_10  and  C_18
REMARK    9  A    between atoms: C_13  and  C_19
REMARK   10  A    between atoms: C_15  and  C_22
REMARK   11  A    between atoms: C_19  and  C_23
REMARK   12  A    between atoms: C_19  and  C_24
REMARK   13  A    between atoms: C_26  and  C_28
REMARK   14  A    between atoms: C_27  and  C_29
REMARK                            x       y       z     vdW  Elec       q    Type
REMARK                         _______ _______ _______ _____ _____    ______ ____
ROOT
ATOM      1  S   UNL     1       1.132  -1.789  23.763  0.00  0.00    -0.057 S 
ATOM      5  O   UNL     1       3.804   1.859  22.546  0.00  0.00    -0.274 OA
ATOM      6  N   UNL     1       1.121   0.770  23.391  0.00  0.00    -0.229 NA
ATOM      8  N   UNL     1       3.209  -0.373  23.019  0.00  0.00    -0.264 N 
ATOM     10  C   UNL     1      -2.555  -0.531  25.083  0.00  0.00    -0.022 C 
ATOM     11  C   UNL     1      -2.659   0.713  24.116  0.00  0.00    +0.033 C 
ATOM     12  C   UNL     1      -3.788   1.685  24.562  0.00  0.00    +0.123 C 
ATOM     13  C   UNL     1      -5.142   0.972  24.772  0.00  0.00    +0.029 C 
ATOM     14  C   UNL     1      -3.943  -1.200  25.223  0.00  0.00    +0.008 C 
ATOM     15  C   UNL     1      -1.258   1.425  23.913  0.00  0.00    +0.042 C 
ATOM     16  C   UNL     1      -5.025  -0.240  25.696  0.00  0.00    +0.007 C 
ATOM     17  C   UNL     1      -1.584  -1.592  24.478  0.00  0.00    +0.051 C 
ATOM     18  C   UNL     1      -2.045  -0.131  26.493  0.00  0.00    +0.012 C 
ATOM     20  C   UNL     1      -0.161   0.400  23.759  0.00  0.00    +0.057 A 
ATOM     21  C   UNL     1      -0.323  -0.944  24.024  0.00  0.00    +0.015 A 
ATOM     22  C   UNL     1      -1.238   2.396  22.725  0.00  0.00    +0.014 C 
ATOM     25  C   UNL     1       1.883  -0.302  23.349  0.00  0.00    +0.165 A 
ATOM     27  C   UNL     1       4.097   0.672  22.641  0.00  0.00    +0.233 C 
ATOM     35  H   UNL     1       3.591  -1.316  23.052  0.00  0.00    +0.157 HD
ENDROOT
BRANCH  12   2
ATOM      2  O   UNL     1      -3.985   2.677  23.555  0.00  0.00    -0.391 OA
ATOM     33  H   UNL     1      -3.827   3.549  23.956  0.00  0.00    +0.210 HD
ENDBRANCH  12   2
BRANCH  13  19
ATOM     19  C   UNL     1      -6.212   1.928  25.312  0.00  0.00    +0.077 C 
ATOM     23  C   UNL     1      -7.330   2.096  24.289  0.00  0.00    +0.017 C 
BRANCH  19  24
ATOM      3  O   UNL     1      -6.081   4.346  25.352  0.00  0.00    -0.276 OA
ATOM      7  N   UNL     1      -4.395   3.125  26.378  0.00  0.00    -0.313 N 
ATOM     24  C   UNL     1      -5.579   3.269  25.670  0.00  0.00    +0.216 C 
ATOM     34  H   UNL     1      -4.077   2.202  26.651  0.00  0.00    +0.149 HD
BRANCH   7  26
ATOM     26  C   UNL     1      -3.613   4.253  26.827  0.00  0.00    +0.132 C 
BRANCH  26  28
ATOM     28  C   UNL     1      -2.182   4.175  26.325  0.00  0.00    +0.178 C 
BRANCH  28   4
ATOM      4  O   UNL     1      -2.109   4.737  25.020  0.00  0.00    -0.381 OA
ATOM     30  C   UNL     1      -0.822   5.280  24.759  0.00  0.00    +0.194 C 
ENDBRANCH  28   4
ENDBRANCH  26  28
ENDBRANCH   7  26
ENDBRANCH  19  24
ENDBRANCH  13  19
BRANCH  27  29
ATOM     29  C   UNL     1       5.492   0.145  22.350  0.00  0.00    +0.180 C 
BRANCH  29   9
ATOM      9  N   UNL     1       6.086  -0.354  23.582  0.00  0.00    -0.300 NA
ATOM     31  C   UNL     1       5.868   0.588  24.681  0.00  0.00    +0.105 C 
ATOM     32  C   UNL     1       5.537  -1.668  23.925  0.00  0.00    +0.105 C 
ENDBRANCH  29   9
ENDBRANCH  27  29
TORSDOF 8
ENDMDL
MODEL 2
REMARK VINA RESULT:       3.3     14.783     17.717
REMARK  Name = 44716748
REMARK  14 active torsions:
REMARK  status: ('A' for Active; 'I' for Inactive)
REMARK    1  A    between atoms: O_2  and  C_12
REMARK    2  A    between atoms: O_4  and  C_28
REMARK    3  A    between atoms: O_4  and  C_30
REMARK    4  A    between atoms: N_7  and  C_26
REMARK    5  A    between atoms: N_9  and  C_29
REMARK    6  A    between atoms: N_9  and  C_31
REMARK    7  A    between atoms: N_9  and  C_32
REMARK    8  A    between atoms: C_10  and  C_18
REMARK    9  A    between atoms: C_13  and  C_19
REMARK   10  A    between atoms: C_15  and  C_22
REMARK   11  A    between atoms: C_19  and  C_23
REMARK   12  A    between atoms: C_19  and  C_24
REMARK   13  A    between atoms: C_26  and  C_28
REMARK   14  A    between atoms: C_27  and  C_29
REMARK                            x       y       z     vdW  Elec       q    Type
REMARK                         _______ _______ _______ _____ _____    ______ ____
ROOT
ATOM      1  S   UNL     1      -8.134 -10.489  12.903  0.00  0.00    -0.057 S 
ATOM      5  O   UNL     1      -7.831 -10.402  17.576  0.00  0.00    -0.274 OA
ATOM      6  N   UNL     1      -6.489 -10.220  14.880  0.00  0.00    -0.229 NA
ATOM      8  N   UNL     1      -8.807 -10.575  15.436  0.00  0.00    -0.264 N 
ATOM     10  C   UNL     1      -4.557  -9.412  11.181  0.00  0.00    -0.022 C 
ATOM     11  C   UNL     1      -3.640 -10.050  12.297  0.00  0.00    +0.033 C 
ATOM     12  C   UNL     1      -2.176  -9.536  12.189  0.00  0.00    +0.123 C 
ATOM     13  C   UNL     1      -1.591  -9.693  10.769  0.00  0.00    +0.029 C 
ATOM     14  C   UNL     1      -3.914  -9.630   9.791  0.00  0.00    +0.008 C 
ATOM     15  C   UNL     1      -4.262  -9.880  13.744  0.00  0.00    +0.042 C 
ATOM     16  C   UNL     1      -2.495  -9.087   9.696  0.00  0.00    +0.007 C 
ATOM     17  C   UNL     1      -5.947 -10.122  11.169  0.00  0.00    +0.051 C 
ATOM     18  C   UNL     1      -4.773  -7.891  11.403  0.00  0.00    +0.012 C 
ATOM     20  C   UNL     1      -5.751 -10.132  13.713  0.00  0.00    +0.057 A 
ATOM     21  C   UNL     1      -6.489 -10.228  12.551  0.00  0.00    +0.015 A 
ATOM     22  C   UNL     1      -3.602 -10.781  14.798  0.00  0.00    +0.014 C 
ATOM     25  C   UNL     1      -7.753 -10.420  14.576  0.00  0.00    +0.165 A 
ATOM     27  C   UNL     1      -8.813 -10.562  16.858  0.00  0.00    +0.233 C 
ATOM     35  H   UNL     1      -9.699 -10.723  14.970  0.00  0.00    +0.157 HD
ENDROOT
BRANCH  12   2
ATOM      2  O   UNL     1      -1.344 -10.287  13.074  0.00  0.00    -0.391 OA
ATOM     33  H   UNL     1      -1.901 -10.626  13.796  0.00  0.00    +0.210 HD
ENDBRANCH  12   2
BRANCH  13  19
ATOM     19  C   UNL     1      -0.188  -9.085  10.660  0.00  0.00    +0.077 C 
ATOM     23  C   UNL     1       0.861 -10.191  10.606  0.00  0.00    +0.017 C 
BRANCH  19  24
ATOM      3  O   UNL     1      -0.693  -8.066  12.798  0.00  0.00    -0.276 OA
ATOM      7  N   UNL     1       1.218  -7.389  11.670  0.00  0.00    -0.313 N 
ATOM     24  C   UNL     1       0.062  -8.139  11.831  0.00  0.00    +0.216 C 
ATOM     34  H   UNL     1       1.818  -7.549  10.868  0.00  0.00    +0.149 HD
BRANCH   7  26
ATOM     26  C   UNL     1       1.663  -6.422  12.646  0.00  0.00    +0.132 C 
BRANCH  26  28
ATOM     28  C   UNL     1       3.076  -5.949  12.360  0.00  0.00    +0.178 C 
BRANCH  28   4
ATOM      4  O   UNL     1       3.862  -7.051  11.920  0.00  0.00    -0.381 OA
ATOM     30  C   UNL     1       5.132  -7.073  12.558  0.00  0.00    +0.194 C 
ENDBRANCH  28   4
ENDBRANCH  26  28
ENDBRANCH   7  26
ENDBRANCH  19  24
ENDBRANCH  13  19
BRANCH  27  29
ATOM     29  C   UNL     1     -10.209 -10.781  17.415  0.00  0.00    +0.180 C 
BRANCH  29   9
ATOM      9  N   UNL     1     -10.596  -9.629  18.216  0.00  0.00    -0.300 NA
ATOM     31  C   UNL     1     -10.249  -9.836  19.623  0.00  0.00    +0.105 C 
ATOM     32  C   UNL     1      -9.957  -8.410  17.712  0.00  0.00    +0.105 C 
ENDBRANCH  29   9
ENDBRANCH  27  29
TORSDOF 8
ENDMDL
