MODEL 1
REMARK VINA RESULT:       8.6      0.000      0.000
REMARK  Name = 45360516
REMARK  11 active torsions:
REMARK  status: ('A' for Active; 'I' for Inactive)
REMARK    1  A    between atoms: O_2  and  C_24
REMARK    2  A    between atoms: O_5  and  C_38
REMARK    3  A    between atoms: O_5  and  C_39
REMARK    4  A    between atoms: N_6  and  C_15
REMARK    5  A    between atoms: N_8  and  C_17
REMARK    6  A    between atoms: C_10  and  C_12
REMARK    7  A    between atoms: C_11  and  C_18
REMARK    8  A    between atoms: C_12  and  C_15
REMARK    9  A    between atoms: C_18  and  C_24
REMARK   10  A    between atoms: C_23  and  C_27
REMARK   11  A    between atoms: C_27  and  C_30
REMARK                            x       y       z     vdW  Elec       q    Type
REMARK                         _______ _______ _______ _____ _____    ______ ____
ROOT
ATOM      1  O   UNL     1      -6.646   1.194  26.724  0.00  0.00    -0.275 OA
ATOM      7  N   UNL     1      -5.753   2.522  25.041  0.00  0.00    -0.301 N 
ATOM     10  C   UNL     1      -3.845   3.294  23.649  0.00  0.00    +0.011 C 
ATOM     11  C   UNL     1      -3.792   4.585  24.504  0.00  0.00    +0.006 C 
ATOM     13  C   UNL     1      -5.271   2.713  23.668  0.00  0.00    +0.111 C 
ATOM     14  C   UNL     1      -4.352   4.352  25.917  0.00  0.00    +0.023 C 
ATOM     16  C   UNL     1      -5.746   3.731  25.865  0.00  0.00    +0.108 C 
ATOM     23  C   UNL     1      -6.222   1.322  25.573  0.00  0.00    +0.220 C 
ENDROOT
BRANCH  10  12
ATOM     12  C   UNL     1      -2.829   2.225  24.072  0.00  0.00    +0.020 C 
BRANCH  12  15
ATOM     15  C   UNL     1      -2.404   1.378  22.880  0.00  0.00    +0.085 C 
BRANCH  15   6
ATOM      6  N   UNL     1      -0.946   1.373  22.768  0.00  0.00    -0.302 NA
ATOM     17  C   UNL     1       1.755   0.451  23.412  0.00  0.00    +0.095 C 
ATOM     19  C   UNL     1      -0.331   1.718  24.058  0.00  0.00    +0.086 C 
ATOM     20  C   UNL     1      -0.472   0.069  22.285  0.00  0.00    +0.086 C 
ATOM     21  C   UNL     1       1.193   1.769  23.946  0.00  0.00    +0.040 C 
ATOM     22  C   UNL     1       1.048   0.065  22.112  0.00  0.00    +0.040 C 
BRANCH  17   8
ATOM      4  O   UNL     1       3.406   2.758  22.386  0.00  0.00    -0.247 OA
ATOM      8  N   UNL     1       3.181   0.542  23.219  0.00  0.00    -0.289 N 
ATOM      9  N   UNL     1       5.249   1.311  22.707  0.00  0.00    -0.306 N 
ATOM     25  C   UNL     1       4.102  -0.479  23.487  0.00  0.00    +0.070 A 
ATOM     26  C   UNL     1       3.874   1.679  22.727  0.00  0.00    +0.328 A 
ATOM     28  C   UNL     1       5.371   0.000  23.171  0.00  0.00    +0.067 A 
ATOM     29  C   UNL     1       3.914  -1.756  23.975  0.00  0.00    +0.028 A 
ATOM     31  C   UNL     1       6.508  -0.763  23.321  0.00  0.00    +0.028 A 
ATOM     32  C   UNL     1       5.054  -2.551  24.137  0.00  0.00    +0.002 A 
ATOM     33  C   UNL     1       6.336  -2.060  23.813  0.00  0.00    +0.002 A 
ATOM     40  H   UNL     1       6.022   1.893  22.409  0.00  0.00    +0.170 HD
ENDBRANCH  17   8
ENDBRANCH  15   6
ENDBRANCH  12  15
ENDBRANCH  10  12
BRANCH  11  18
ATOM     18  C   UNL     1      -2.395   5.203  24.574  0.00  0.00    +0.124 C 
BRANCH  18  24
ATOM      3  O   UNL     1      -1.860   3.791  26.488  0.00  0.00    -0.251 OA
ATOM     24  C   UNL     1      -1.503   4.452  25.525  0.00  0.00    +0.305 C 
BRANCH  24   2
ATOM      2  O   UNL     1      -0.206   4.610  25.157  0.00  0.00    -0.481 OA
ATOM     41  H   UNL     1       0.367   4.828  25.922  0.00  0.00    +0.295 HD
ENDBRANCH  24   2
ENDBRANCH  18  24
ENDBRANCH  11  18
BRANCH  23  27
ATOM     27  C   UNL     1      -6.193   0.121  24.661  0.00  0.00    +0.131 C 
BRANCH  27  30
ATOM     30  C   UNL     1      -4.876  -0.584  24.758  0.00  0.00    -0.038 A 
ATOM     34  C   UNL     1      -4.538  -1.563  23.824  0.00  0.00    +0.007 A 
ATOM     35  C   UNL     1      -3.987  -0.262  25.785  0.00  0.00    +0.007 A 
ATOM     36  C   UNL     1      -3.311  -2.220  23.916  0.00  0.00    +0.046 A 
ATOM     37  C   UNL     1      -2.761  -0.920  25.876  0.00  0.00    +0.046 A 
ATOM     38  C   UNL     1      -2.422  -1.898  24.943  0.00  0.00    +0.120 A 
BRANCH  38   5
ATOM      5  O   UNL     1      -1.225  -2.539  25.031  0.00  0.00    -0.495 OA
ATOM     39  C   UNL     1      -0.095  -1.755  25.411  0.00  0.00    +0.277 C 
ENDBRANCH  38   5
ENDBRANCH  27  30
ENDBRANCH  23  27
TORSDOF 10
ENDMDL
MODEL 2
REMARK VINA RESULT:       9.8      1.049      1.962
REMARK  Name = 45360516
REMARK  11 active torsions:
REMARK  status: ('A' for Active; 'I' for Inactive)
REMARK    1  A    between atoms: O_2  and  C_24
REMARK    2  A    between atoms: O_5  and  C_38
REMARK    3  A    between atoms: O_5  and  C_39
REMARK    4  A    between atoms: N_6  and  C_15
REMARK    5  A    between atoms: N_8  and  C_17
REMARK    6  A    between atoms: C_10  and  C_12
REMARK    7  A    between atoms: C_11  and  C_18
REMARK    8  A    between atoms: C_12  and  C_15
REMARK    9  A    between atoms: C_18  and  C_24
REMARK   10  A    between atoms: C_23  and  C_27
REMARK   11  A    between atoms: C_27  and  C_30
REMARK                            x       y       z     vdW  Elec       q    Type
REMARK                         _______ _______ _______ _____ _____    ______ ____
ROOT
ATOM      1  O   UNL     1      -6.596   1.417  26.693  0.00  0.00    -0.275 OA
ATOM      7  N   UNL     1      -5.639   2.764  25.061  0.00  0.00    -0.301 N 
ATOM     10  C   UNL     1      -3.688   3.516  23.719  0.00  0.00    +0.011 C 
ATOM     11  C   UNL     1      -3.609   4.781  24.610  0.00  0.00    +0.006 C 
ATOM     13  C   UNL     1      -5.130   2.978  23.700  0.00  0.00    +0.111 C 
ATOM     14  C   UNL     1      -4.198   4.525  26.008  0.00  0.00    +0.023 C 
ATOM     16  C   UNL     1      -5.608   3.948  25.919  0.00  0.00    +0.108 C 
ATOM     23  C   UNL     1      -6.151   1.564  25.552  0.00  0.00    +0.220 C 
ENDROOT
BRANCH  10  12
ATOM     12  C   UNL     1      -2.711   2.406  24.125  0.00  0.00    +0.020 C 
BRANCH  12  15
ATOM     15  C   UNL     1      -2.199   1.658  22.902  0.00  0.00    +0.085 C 
BRANCH  15   6
ATOM      6  N   UNL     1      -0.979   0.927  23.240  0.00  0.00    -0.302 NA
ATOM     17  C   UNL     1       1.881   0.329  23.076  0.00  0.00    +0.095 C 
ATOM     19  C   UNL     1      -0.424   0.273  22.046  0.00  0.00    +0.086 C 
ATOM     20  C   UNL     1       0.005   1.826  23.859  0.00  0.00    +0.086 C 
ATOM     21  C   UNL     1       0.825  -0.540  22.392  0.00  0.00    +0.040 C 
ATOM     22  C   UNL     1       1.267   1.066  24.268  0.00  0.00    +0.040 C 
BRANCH  17   8
ATOM      4  O   UNL     1       1.954  -2.485  24.160  0.00  0.00    -0.247 OA
ATOM      8  N   UNL     1       3.012  -0.466  23.484  0.00  0.00    -0.289 N 
ATOM      9  N   UNL     1       4.296  -2.166  24.254  0.00  0.00    -0.306 N 
ATOM     25  C   UNL     1       4.350  -0.050  23.449  0.00  0.00    +0.070 A 
ATOM     26  C   UNL     1       2.948  -1.792  23.987  0.00  0.00    +0.328 A 
ATOM     28  C   UNL     1       5.133  -1.100  23.923  0.00  0.00    +0.067 A 
ATOM     29  C   UNL     1       4.911   1.143  23.043  0.00  0.00    +0.028 A 
ATOM     31  C   UNL     1       6.504  -1.014  24.017  0.00  0.00    +0.028 A 
ATOM     32  C   UNL     1       6.304   1.255  23.129  0.00  0.00    +0.002 A 
ATOM     33  C   UNL     1       7.091   0.188  23.611  0.00  0.00    +0.002 A 
ATOM     40  H   UNL     1       4.610  -3.055  24.622  0.00  0.00    +0.170 HD
ENDBRANCH  17   8
ENDBRANCH  15   6
ENDBRANCH  12  15
ENDBRANCH  10  12
BRANCH  11  18
ATOM     18  C   UNL     1      -2.196   5.354  24.717  0.00  0.00    +0.124 C 
BRANCH  18  24
ATOM      3  O   UNL     1      -1.623   3.726  26.440  0.00  0.00    -0.251 OA
ATOM     24  C   UNL     1      -1.292   4.455  25.516  0.00  0.00    +0.305 C 
BRANCH  24   2
ATOM      2  O   UNL     1      -0.018   4.564  25.059  0.00  0.00    -0.481 OA
ATOM     41  H   UNL     1       0.570   4.993  25.716  0.00  0.00    +0.295 HD
ENDBRANCH  24   2
ENDBRANCH  18  24
ENDBRANCH  11  18
BRANCH  23  27
ATOM     27  C   UNL     1      -6.144   0.389  24.606  0.00  0.00    +0.131 C 
BRANCH  27  30
ATOM     30  C   UNL     1      -4.867  -0.383  24.733  0.00  0.00    -0.038 A 
ATOM     34  C   UNL     1      -4.000  -0.128  25.794  0.00  0.00    +0.007 A 
ATOM     35  C   UNL     1      -4.545  -1.356  23.786  0.00  0.00    +0.007 A 
ATOM     36  C   UNL     1      -2.811  -0.847  25.911  0.00  0.00    +0.046 A 
ATOM     37  C   UNL     1      -3.355  -2.075  23.903  0.00  0.00    +0.046 A 
ATOM     38  C   UNL     1      -2.488  -1.820  24.965  0.00  0.00    +0.120 A 
BRANCH  38   5
ATOM      5  O   UNL     1      -1.328  -2.522  25.080  0.00  0.00    -0.495 OA
ATOM     39  C   UNL     1      -0.239  -1.873  25.736  0.00  0.00    +0.277 C 
ENDBRANCH  38   5
ENDBRANCH  27  30
ENDBRANCH  23  27
TORSDOF 10
ENDMDL
MODEL 3
REMARK VINA RESULT:      11.3      1.733      4.308
REMARK  Name = 45360516
REMARK  11 active torsions:
REMARK  status: ('A' for Active; 'I' for Inactive)
REMARK    1  A    between atoms: O_2  and  C_24
REMARK    2  A    between atoms: O_5  and  C_38
REMARK    3  A    between atoms: O_5  and  C_39
REMARK    4  A    between atoms: N_6  and  C_15
REMARK    5  A    between atoms: N_8  and  C_17
REMARK    6  A    between atoms: C_10  and  C_12
REMARK    7  A    between atoms: C_11  and  C_18
REMARK    8  A    between atoms: C_12  and  C_15
REMARK    9  A    between atoms: C_18  and  C_24
REMARK   10  A    between atoms: C_23  and  C_27
REMARK   11  A    between atoms: C_27  and  C_30
REMARK                            x       y       z     vdW  Elec       q    Type
REMARK                         _______ _______ _______ _____ _____    ______ ____
ROOT
ATOM      1  O   UNL     1      -6.237   4.588  25.736  0.00  0.00    -0.275 OA
ATOM      7  N   UNL     1      -4.818   2.749  25.744  0.00  0.00    -0.301 N 
ATOM     10  C   UNL     1      -3.508   0.997  24.567  0.00  0.00    +0.011 C 
ATOM     11  C   UNL     1      -4.608  -0.027  24.944  0.00  0.00    +0.006 C 
ATOM     13  C   UNL     1      -3.488   2.145  25.592  0.00  0.00    +0.111 C 
ATOM     14  C   UNL     1      -5.972   0.655  25.142  0.00  0.00    +0.023 C 
ATOM     16  C   UNL     1      -5.874   1.813  26.132  0.00  0.00    +0.108 C 
ATOM     23  C   UNL     1      -5.115   4.101  25.577  0.00  0.00    +0.220 C 
ENDROOT
BRANCH  10  12
ATOM     12  C   UNL     1      -3.638   1.555  23.144  0.00  0.00    +0.020 C 
BRANCH  12  15
ATOM     15  C   UNL     1      -2.343   2.221  22.701  0.00  0.00    +0.085 C 
BRANCH  15   6
ATOM      6  N   UNL     1      -1.197   1.442  23.169  0.00  0.00    -0.302 NA
ATOM     17  C   UNL     1       1.414   0.151  22.900  0.00  0.00    +0.095 C 
ATOM     19  C   UNL     1      -1.055   0.211  22.378  0.00  0.00    +0.086 C 
ATOM     20  C   UNL     1       0.029   2.250  23.121  0.00  0.00    +0.086 C 
ATOM     21  C   UNL     1       0.107  -0.642  22.889  0.00  0.00    +0.040 C 
ATOM     22  C   UNL     1       1.227   1.466  23.658  0.00  0.00    +0.040 C 
BRANCH  17   8
ATOM      4  O   UNL     1       1.270  -2.336  24.601  0.00  0.00    -0.247 OA
ATOM      8  N   UNL     1       2.483  -0.630  23.472  0.00  0.00    -0.289 N 
ATOM      9  N   UNL     1       3.632  -2.220  24.604  0.00  0.00    -0.306 N 
ATOM     25  C   UNL     1       3.850  -0.358  23.334  0.00  0.00    +0.070 A 
ATOM     26  C   UNL     1       2.316  -1.795  24.267  0.00  0.00    +0.328 A 
ATOM     28  C   UNL     1       4.551  -1.340  24.031  0.00  0.00    +0.067 A 
ATOM     29  C   UNL     1       4.503   0.654  22.661  0.00  0.00    +0.028 A 
ATOM     31  C   UNL     1       5.926  -1.362  24.094  0.00  0.00    +0.028 A 
ATOM     32  C   UNL     1       5.901   0.654  22.710  0.00  0.00    +0.002 A 
ATOM     33  C   UNL     1       6.605  -0.343  23.419  0.00  0.00    +0.002 A 
ATOM     40  H   UNL     1       3.877  -3.026  25.165  0.00  0.00    +0.170 HD
ENDBRANCH  17   8
ENDBRANCH  15   6
ENDBRANCH  12  15
ENDBRANCH  10  12
BRANCH  11  18
ATOM     18  C   UNL     1      -4.723  -1.181  23.947  0.00  0.00    +0.124 C 
BRANCH  18  24
ATOM      3  O   UNL     1      -3.385  -3.183  23.562  0.00  0.00    -0.251 OA
ATOM     24  C   UNL     1      -3.820  -2.326  24.317  0.00  0.00    +0.305 C 
BRANCH  24   2
ATOM      2  O   UNL     1      -3.542  -2.278  25.645  0.00  0.00    -0.481 OA
ATOM     41  H   UNL     1      -4.273  -1.873  26.157  0.00  0.00    +0.295 HD
ENDBRANCH  24   2
ENDBRANCH  18  24
ENDBRANCH  11  18
BRANCH  23  27
ATOM     27  C   UNL     1      -3.973   4.999  25.174  0.00  0.00    +0.131 C 
BRANCH  27  30
ATOM     30  C   UNL     1      -2.664   4.418  25.613  0.00  0.00    -0.038 A 
ATOM     34  C   UNL     1      -1.507   4.668  24.876  0.00  0.00    +0.007 A 
ATOM     35  C   UNL     1      -2.604   3.625  26.759  0.00  0.00    +0.007 A 
ATOM     36  C   UNL     1      -0.289   4.127  25.285  0.00  0.00    +0.046 A 
ATOM     37  C   UNL     1      -1.385   3.083  27.168  0.00  0.00    +0.046 A 
ATOM     38  C   UNL     1      -0.228   3.334  26.432  0.00  0.00    +0.120 A 
BRANCH  38   5
ATOM      5  O   UNL     1       0.961   2.806  26.831  0.00  0.00    -0.495 OA
ATOM     39  C   UNL     1       1.180   2.688  28.237  0.00  0.00    +0.277 C 
ENDBRANCH  38   5
ENDBRANCH  27  30
ENDBRANCH  23  27
TORSDOF 10
ENDMDL
MODEL 4
REMARK VINA RESULT:      11.6      1.050      4.054
REMARK  Name = 45360516
REMARK  11 active torsions:
REMARK  status: ('A' for Active; 'I' for Inactive)
REMARK    1  A    between atoms: O_2  and  C_24
REMARK    2  A    between atoms: O_5  and  C_38
REMARK    3  A    between atoms: O_5  and  C_39
REMARK    4  A    between atoms: N_6  and  C_15
REMARK    5  A    between atoms: N_8  and  C_17
REMARK    6  A    between atoms: C_10  and  C_12
REMARK    7  A    between atoms: C_11  and  C_18
REMARK    8  A    between atoms: C_12  and  C_15
REMARK    9  A    between atoms: C_18  and  C_24
REMARK   10  A    between atoms: C_23  and  C_27
REMARK   11  A    between atoms: C_27  and  C_30
REMARK                            x       y       z     vdW  Elec       q    Type
REMARK                         _______ _______ _______ _____ _____    ______ ____
ROOT
ATOM      1  O   UNL     1      -7.145   1.862  24.052  0.00  0.00    -0.275 OA
ATOM      7  N   UNL     1      -5.649   0.453  25.134  0.00  0.00    -0.301 N 
ATOM     10  C   UNL     1      -3.337  -0.238  25.724  0.00  0.00    +0.011 C 
ATOM     11  C   UNL     1      -3.457  -1.388  24.693  0.00  0.00    +0.006 C 
ATOM     13  C   UNL     1      -4.734   0.149  26.241  0.00  0.00    +0.111 C 
ATOM     14  C   UNL     1      -4.461  -1.047  23.580  0.00  0.00    +0.023 C 
ATOM     16  C   UNL     1      -5.809  -0.626  24.159  0.00  0.00    +0.108 C 
ATOM     23  C   UNL     1      -6.362   1.641  24.979  0.00  0.00    +0.220 C 
ENDROOT
BRANCH  10  12
ATOM     12  C   UNL     1      -2.604   1.001  25.194  0.00  0.00    +0.020 C 
BRANCH  12  15
ATOM     15  C   UNL     1      -2.376   0.897  23.692  0.00  0.00    +0.085 C 
BRANCH  15   6
ATOM      6  N   UNL     1      -0.951   1.035  23.395  0.00  0.00    -0.302 NA
ATOM     17  C   UNL     1       1.881   0.333  23.616  0.00  0.00    +0.095 C 
ATOM     19  C   UNL     1      -0.199   1.354  24.617  0.00  0.00    +0.086 C 
ATOM     20  C   UNL     1      -0.437  -0.185  22.758  0.00  0.00    +0.086 C 
ATOM     21  C   UNL     1       1.286   1.555  24.315  0.00  0.00    +0.040 C 
ATOM     22  C   UNL     1       1.040  -0.036  22.392  0.00  0.00    +0.040 C 
BRANCH  17   8
ATOM      4  O   UNL     1       3.134   2.767  22.352  0.00  0.00    -0.247 OA
ATOM      8  N   UNL     1       3.255   0.569  23.250  0.00  0.00    -0.289 N 
ATOM      9  N   UNL     1       5.150   1.537  22.475  0.00  0.00    -0.306 N 
ATOM     25  C   UNL     1       4.308  -0.339  23.424  0.00  0.00    +0.070 A 
ATOM     26  C   UNL     1       3.755   1.756  22.654  0.00  0.00    +0.328 A 
ATOM     28  C   UNL     1       5.470   0.262  22.946  0.00  0.00    +0.067 A 
ATOM     29  C   UNL     1       4.320  -1.612  23.955  0.00  0.00    +0.028 A 
ATOM     31  C   UNL     1       6.693  -0.369  22.972  0.00  0.00    +0.028 A 
ATOM     32  C   UNL     1       5.552  -2.275  23.992  0.00  0.00    +0.002 A 
ATOM     33  C   UNL     1       6.725  -1.661  23.506  0.00  0.00    +0.002 A 
ATOM     40  H   UNL     1       5.813   2.188  22.073  0.00  0.00    +0.170 HD
ENDBRANCH  17   8
ENDBRANCH  15   6
ENDBRANCH  12  15
ENDBRANCH  10  12
BRANCH  11  18
ATOM     18  C   UNL     1      -2.111  -1.802  24.096  0.00  0.00    +0.124 C 
BRANCH  18  24
ATOM      3  O   UNL     1      -0.234  -1.721  25.649  0.00  0.00    -0.251 OA
ATOM     24  C   UNL     1      -1.173  -2.322  25.150  0.00  0.00    +0.305 C 
BRANCH  24   2
ATOM      2  O   UNL     1      -1.521  -3.591  25.487  0.00  0.00    -0.481 OA
ATOM     41  H   UNL     1      -1.890  -3.639  26.394  0.00  0.00    +0.295 HD
ENDBRANCH  24   2
ENDBRANCH  18  24
ENDBRANCH  11  18
BRANCH  23  27
ATOM     27  C   UNL     1      -6.139   2.705  26.024  0.00  0.00    +0.131 C 
BRANCH  27  30
ATOM     30  C   UNL     1      -4.866   3.448  25.758  0.00  0.00    -0.038 A 
ATOM     34  C   UNL     1      -4.524   3.800  24.453  0.00  0.00    +0.007 A 
ATOM     35  C   UNL     1      -4.022   3.786  26.817  0.00  0.00    +0.007 A 
ATOM     36  C   UNL     1      -3.338   4.491  24.205  0.00  0.00    +0.046 A 
ATOM     37  C   UNL     1      -2.836   4.477  26.569  0.00  0.00    +0.046 A 
ATOM     38  C   UNL     1      -2.494   4.830  25.264  0.00  0.00    +0.120 A 
BRANCH  38   5
ATOM      5  O   UNL     1      -1.338   5.505  25.022  0.00  0.00    -0.495 OA
ATOM     39  C   UNL     1      -0.224   4.742  24.559  0.00  0.00    +0.277 C 
ENDBRANCH  38   5
ENDBRANCH  27  30
ENDBRANCH  23  27
TORSDOF 10
ENDMDL
MODEL 5
REMARK VINA RESULT:      11.8      2.163      4.733
REMARK  Name = 45360516
REMARK  11 active torsions:
REMARK  status: ('A' for Active; 'I' for Inactive)
REMARK    1  A    between atoms: O_2  and  C_24
REMARK    2  A    between atoms: O_5  and  C_38
REMARK    3  A    between atoms: O_5  and  C_39
REMARK    4  A    between atoms: N_6  and  C_15
REMARK    5  A    between atoms: N_8  and  C_17
REMARK    6  A    between atoms: C_10  and  C_12
REMARK    7  A    between atoms: C_11  and  C_18
REMARK    8  A    between atoms: C_12  and  C_15
REMARK    9  A    between atoms: C_18  and  C_24
REMARK   10  A    between atoms: C_23  and  C_27
REMARK   11  A    between atoms: C_27  and  C_30
REMARK                            x       y       z     vdW  Elec       q    Type
REMARK                         _______ _______ _______ _____ _____    ______ ____
ROOT
ATOM      1  O   UNL     1      -2.214   3.248  22.732  0.00  0.00    -0.275 OA
ATOM      7  N   UNL     1      -3.829   1.949  23.780  0.00  0.00    -0.301 N 
ATOM     10  C   UNL     1      -4.508   0.226  25.436  0.00  0.00    +0.011 C 
ATOM     11  C   UNL     1      -4.652  -0.785  24.270  0.00  0.00    +0.006 C 
ATOM     13  C   UNL     1      -4.715   1.659  24.914  0.00  0.00    +0.111 C 
ATOM     14  C   UNL     1      -3.743  -0.415  23.086  0.00  0.00    +0.023 C 
ATOM     16  C   UNL     1      -3.963   1.031  22.648  0.00  0.00    +0.108 C 
ATOM     23  C   UNL     1      -2.930   3.012  23.708  0.00  0.00    +0.220 C 
ENDROOT
BRANCH  10  12
ATOM     12  C   UNL     1      -3.176   0.121  26.190  0.00  0.00    +0.020 C 
BRANCH  12  15
ATOM     15  C   UNL     1      -2.511  -1.224  25.935  0.00  0.00    +0.085 C 
BRANCH  15   6
ATOM      6  N   UNL     1      -1.409  -1.062  24.988  0.00  0.00    -0.302 NA
ATOM     17  C   UNL     1       1.306  -0.321  24.186  0.00  0.00    +0.095 C 
ATOM     19  C   UNL     1      -1.026   0.353  24.883  0.00  0.00    +0.086 C 
ATOM     20  C   UNL     1      -0.265  -1.895  25.383  0.00  0.00    +0.086 C 
ATOM     21  C   UNL     1       0.091   0.547  23.856  0.00  0.00    +0.040 C 
ATOM     22  C   UNL     1       0.877  -1.778  24.373  0.00  0.00    +0.040 C 
BRANCH  17   8
ATOM      4  O   UNL     1       0.982  -0.146  21.192  0.00  0.00    -0.247 OA
ATOM      8  N   UNL     1       2.313  -0.204  23.162  0.00  0.00    -0.289 N 
ATOM      9  N   UNL     1       3.344  -0.023  21.153  0.00  0.00    -0.306 N 
ATOM     25  C   UNL     1       3.695  -0.149  23.387  0.00  0.00    +0.070 A 
ATOM     26  C   UNL     1       2.063  -0.128  21.766  0.00  0.00    +0.328 A 
ATOM     28  C   UNL     1       4.322  -0.037  22.148  0.00  0.00    +0.067 A 
ATOM     29  C   UNL     1       4.418  -0.187  24.561  0.00  0.00    +0.028 A 
ATOM     31  C   UNL     1       5.691   0.040  22.017  0.00  0.00    +0.028 A 
ATOM     32  C   UNL     1       5.812  -0.110  24.454  0.00  0.00    +0.002 A 
ATOM     33  C   UNL     1       6.440   0.002  23.196  0.00  0.00    +0.002 A 
ATOM     40  H   UNL     1       3.529   0.050  20.161  0.00  0.00    +0.170 HD
ENDBRANCH  17   8
ENDBRANCH  15   6
ENDBRANCH  12  15
ENDBRANCH  10  12
BRANCH  11  18
ATOM     18  C   UNL     1      -4.416  -2.234  24.699  0.00  0.00    +0.124 C 
BRANCH  18  24
ATOM      3  O   UNL     1      -4.756  -3.412  22.591  0.00  0.00    -0.251 OA
ATOM     24  C   UNL     1      -4.038  -3.103  23.531  0.00  0.00    +0.305 C 
BRANCH  24   2
ATOM      2  O   UNL     1      -2.750  -3.512  23.662  0.00  0.00    -0.481 OA
ATOM     41  H   UNL     1      -2.533  -3.745  24.590  0.00  0.00    +0.295 HD
ENDBRANCH  24   2
ENDBRANCH  18  24
ENDBRANCH  11  18
BRANCH  23  27
ATOM     27  C   UNL     1      -2.848   3.911  24.916  0.00  0.00    +0.131 C 
BRANCH  27  30
ATOM     30  C   UNL     1      -1.654   3.564  25.751  0.00  0.00    -0.038 A 
ATOM     34  C   UNL     1      -1.824   3.130  27.066  0.00  0.00    +0.007 A 
ATOM     35  C   UNL     1      -0.372   3.677  25.214  0.00  0.00    +0.007 A 
ATOM     36  C   UNL     1      -0.712   2.808  27.843  0.00  0.00    +0.046 A 
ATOM     37  C   UNL     1       0.741   3.355  25.992  0.00  0.00    +0.046 A 
ATOM     38  C   UNL     1       0.571   2.920  27.305  0.00  0.00    +0.120 A 
BRANCH  38   5
ATOM      5  O   UNL     1       1.655   2.605  28.064  0.00  0.00    -0.495 OA
ATOM     39  C   UNL     1       1.437   2.412  29.461  0.00  0.00    +0.277 C 
ENDBRANCH  38   5
ENDBRANCH  27  30
ENDBRANCH  23  27
TORSDOF 10
ENDMDL
MODEL 6
REMARK VINA RESULT:      12.2      2.660      4.672
REMARK  Name = 45360516
REMARK  11 active torsions:
REMARK  status: ('A' for Active; 'I' for Inactive)
REMARK    1  A    between atoms: O_2  and  C_24
REMARK    2  A    between atoms: O_5  and  C_38
REMARK    3  A    between atoms: O_5  and  C_39
REMARK    4  A    between atoms: N_6  and  C_15
REMARK    5  A    between atoms: N_8  and  C_17
REMARK    6  A    between atoms: C_10  and  C_12
REMARK    7  A    between atoms: C_11  and  C_18
REMARK    8  A    between atoms: C_12  and  C_15
REMARK    9  A    between atoms: C_18  and  C_24
REMARK   10  A    between atoms: C_23  and  C_27
REMARK   11  A    between atoms: C_27  and  C_30
REMARK                            x       y       z     vdW  Elec       q    Type
REMARK                         _______ _______ _______ _____ _____    ______ ____
ROOT
ATOM      1  O   UNL     1      -0.214   5.166  24.526  0.00  0.00    -0.275 OA
ATOM      7  N   UNL     1      -1.925   4.163  25.735  0.00  0.00    -0.301 N 
ATOM     10  C   UNL     1      -3.848   2.599  25.912  0.00  0.00    +0.011 C 
ATOM     11  C   UNL     1      -4.799   3.820  25.847  0.00  0.00    +0.006 C 
ATOM     13  C   UNL     1      -2.483   3.028  26.481  0.00  0.00    +0.111 C 
ATOM     14  C   UNL     1      -4.155   5.000  25.100  0.00  0.00    +0.023 C 
ATOM     16  C   UNL     1      -2.786   5.344  25.683  0.00  0.00    +0.108 C 
ATOM     23  C   UNL     1      -0.671   4.190  25.126  0.00  0.00    +0.220 C 
ENDROOT
BRANCH  10  12
ATOM     12  C   UNL     1      -3.661   1.882  24.569  0.00  0.00    +0.020 C 
BRANCH  12  15
ATOM     15  C   UNL     1      -3.240   0.434  24.779  0.00  0.00    +0.085 C 
BRANCH  15   6
ATOM      6  N   UNL     1      -1.987   0.173  24.072  0.00  0.00    -0.302 NA
ATOM     17  C   UNL     1       0.876   0.482  23.557  0.00  0.00    +0.095 C 
ATOM     19  C   UNL     1      -1.470   1.410  23.469  0.00  0.00    +0.086 C 
ATOM     20  C   UNL     1      -1.001  -0.429  24.979  0.00  0.00    +0.086 C 
ATOM     21  C   UNL     1      -0.187   1.145  22.681  0.00  0.00    +0.040 C 
ATOM     22  C   UNL     1       0.298  -0.758  24.241  0.00  0.00    +0.040 C 
BRANCH  17   8
ATOM      4  O   UNL     1       1.070  -0.533  20.724  0.00  0.00    -0.247 OA
ATOM      8  N   UNL     1       2.045   0.149  22.782  0.00  0.00    -0.289 N 
ATOM      9  N   UNL     1       3.405  -0.517  21.098  0.00  0.00    -0.306 N 
ATOM     25  C   UNL     1       3.369   0.241  23.231  0.00  0.00    +0.070 A 
ATOM     26  C   UNL     1       2.038  -0.326  21.444  0.00  0.00    +0.328 A 
ATOM     28  C   UNL     1       4.200  -0.169  22.191  0.00  0.00    +0.067 A 
ATOM     29  C   UNL     1       3.881   0.648  24.446  0.00  0.00    +0.028 A 
ATOM     31  C   UNL     1       5.572  -0.196  22.308  0.00  0.00    +0.028 A 
ATOM     32  C   UNL     1       5.273   0.629  24.590  0.00  0.00    +0.002 A 
ATOM     33  C   UNL     1       6.109   0.211  23.532  0.00  0.00    +0.002 A 
ATOM     40  H   UNL     1       3.758  -0.850  20.209  0.00  0.00    +0.170 HD
ENDBRANCH  17   8
ENDBRANCH  15   6
ENDBRANCH  12  15
ENDBRANCH  10  12
BRANCH  11  18
ATOM     18  C   UNL     1      -6.166   3.486  25.249  0.00  0.00    +0.124 C 
BRANCH  18  24
ATOM      3  O   UNL     1      -6.784   1.189  24.712  0.00  0.00    -0.251 OA
ATOM     24  C   UNL     1      -6.565   2.064  25.536  0.00  0.00    +0.305 C 
BRANCH  24   2
ATOM      2  O   UNL     1      -6.650   1.876  26.878  0.00  0.00    -0.481 OA
ATOM     41  H   UNL     1      -7.099   1.033  27.101  0.00  0.00    +0.295 HD
ENDBRANCH  24   2
ENDBRANCH  18  24
ENDBRANCH  11  18
BRANCH  23  27
ATOM     27  C   UNL     1       0.154   2.931  25.222  0.00  0.00    +0.131 C 
BRANCH  27  30
ATOM     30  C   UNL     1       0.628   2.717  26.626  0.00  0.00    -0.038 A 
ATOM     34  C   UNL     1       1.818   3.301  27.059  0.00  0.00    +0.007 A 
ATOM     35  C   UNL     1      -0.123   1.931  27.502  0.00  0.00    +0.007 A 
ATOM     36  C   UNL     1       2.258   3.101  28.367  0.00  0.00    +0.046 A 
ATOM     37  C   UNL     1       0.318   1.731  28.810  0.00  0.00    +0.046 A 
ATOM     38  C   UNL     1       1.508   2.315  29.243  0.00  0.00    +0.120 A 
BRANCH  38   5
ATOM      5  O   UNL     1       1.937   2.120  30.519  0.00  0.00    -0.495 OA
ATOM     39  C   UNL     1       0.964   2.232  31.556  0.00  0.00    +0.277 C 
ENDBRANCH  38   5
ENDBRANCH  27  30
ENDBRANCH  23  27
TORSDOF 10
ENDMDL
