MODEL 1
REMARK VINA RESULT:      -2.7      0.000      0.000
REMARK  Name = 28960225
REMARK  10 active torsions:
REMARK  status: ('A' for Active; 'I' for Inactive)
REMARK    1  A    between atoms: O_3  and  C_26
REMARK    2  A    between atoms: O_3  and  C_28
REMARK    3  A    between atoms: N_5  and  C_18
REMARK    4  A    between atoms: N_5  and  C_19
REMARK    5  A    between atoms: C_7  and  C_13
REMARK    6  A    between atoms: C_8  and  C_12
REMARK    7  A    between atoms: C_12  and  C_14
REMARK    8  A    between atoms: C_13  and  C_15
REMARK    9  A    between atoms: C_17  and  C_20
REMARK   10  A    between atoms: C_18  and  C_21
REMARK                            x       y       z     vdW  Elec       q    Type
REMARK                         _______ _______ _______ _____ _____    ______ ____
ROOT
ATOM      4  N   UNL     1      13.768  -6.967  29.894  0.00  0.00    -0.316 NA
ATOM      7  C   UNL     1      15.815  -7.813  31.842  0.00  0.00    +0.004 C 
ATOM      8  C   UNL     1      15.704  -6.360  31.325  0.00  0.00    +0.012 C 
ATOM      9  C   UNL     1      14.446  -8.500  31.707  0.00  0.00    +0.019 C 
ATOM     10  C   UNL     1      15.072  -6.301  29.924  0.00  0.00    +0.085 C 
ATOM     11  C   UNL     1      13.862  -8.366  30.301  0.00  0.00    +0.081 C 
ATOM     29  H   UNL     1      13.385  -6.915  28.949  0.00  0.00    +0.122 HD
ENDROOT
BRANCH   8  12
ATOM     12  C   UNL     1      17.039  -5.613  31.343  0.00  0.00    +0.064 C 
BRANCH  12  14
ATOM      2  O   UNL     1      17.403  -2.792  29.137  0.00  0.00    -0.354 OA
ATOM      6  N   UNL     1      17.343  -3.364  30.402  0.00  0.00    -0.083 NA
ATOM     14  C   UNL     1      17.154  -4.669  30.182  0.00  0.00    +0.085 A 
ATOM     16  C   UNL     1      17.087  -4.976  28.812  0.00  0.00    +0.076 A 
ATOM     17  C   UNL     1      17.249  -3.762  28.198  0.00  0.00    +0.167 A 
BRANCH  17  20
ATOM     20  C   UNL     1      17.289  -3.318  26.836  0.00  0.00    +0.020 A 
ATOM     22  C   UNL     1      17.293  -4.251  25.799  0.00  0.00    +0.015 A 
ATOM     23  C   UNL     1      17.324  -1.954  26.546  0.00  0.00    +0.015 A 
ATOM     24  C   UNL     1      17.332  -3.820  24.472  0.00  0.00    +0.046 A 
ATOM     25  C   UNL     1      17.365  -1.522  25.221  0.00  0.00    +0.046 A 
ATOM     26  C   UNL     1      17.368  -2.455  24.184  0.00  0.00    +0.120 A 
BRANCH  26   3
ATOM      3  O   UNL     1      17.405  -2.034  22.890  0.00  0.00    -0.495 OA
ATOM     28  C   UNL     1      16.179  -1.582  22.319  0.00  0.00    +0.277 C 
ENDBRANCH  26   3
ENDBRANCH  17  20
ENDBRANCH  12  14
ENDBRANCH   8  12
BRANCH   7  13
ATOM     13  C   UNL     1      16.909  -8.639  31.154  0.00  0.00    +0.100 C 
BRANCH  13  15
ATOM      1  O   UNL     1      15.691 -10.684  30.879  0.00  0.00    -0.276 OA
ATOM      5  N   UNL     1      16.603  -9.748  28.964  0.00  0.00    -0.293 N 
ATOM     15  C   UNL     1      16.341  -9.787  30.337  0.00  0.00    +0.216 C 
ATOM     19  C   UNL     1      17.374  -8.677  28.345  0.00  0.00    +0.133 C 
BRANCH   5  18
ATOM     18  C   UNL     1      16.126 -10.779  28.046  0.00  0.00    +0.196 C 
BRANCH  18  21
ATOM     21  C   UNL     1      15.574 -10.186  26.827  0.00  0.00    -0.086 C 
ATOM     27  C   UNL     1      15.121  -9.697  25.829  0.00  0.00    +0.005 C 
ENDBRANCH  18  21
ENDBRANCH   5  18
ENDBRANCH  13  15
ENDBRANCH   7  13
TORSDOF 8
ENDMDL
MODEL 2
REMARK VINA RESULT:      -1.2     17.242     19.315
REMARK  Name = 28960225
REMARK  10 active torsions:
REMARK  status: ('A' for Active; 'I' for Inactive)
REMARK    1  A    between atoms: O_3  and  C_26
REMARK    2  A    between atoms: O_3  and  C_28
REMARK    3  A    between atoms: N_5  and  C_18
REMARK    4  A    between atoms: N_5  and  C_19
REMARK    5  A    between atoms: C_7  and  C_13
REMARK    6  A    between atoms: C_8  and  C_12
REMARK    7  A    between atoms: C_12  and  C_14
REMARK    8  A    between atoms: C_13  and  C_15
REMARK    9  A    between atoms: C_17  and  C_20
REMARK   10  A    between atoms: C_18  and  C_21
REMARK                            x       y       z     vdW  Elec       q    Type
REMARK                         _______ _______ _______ _____ _____    ______ ____
ROOT
ATOM      4  N   UNL     1      -2.089  -2.615  24.557  0.00  0.00    -0.316 NA
ATOM      7  C   UNL     1      -4.046  -0.482  23.994  0.00  0.00    +0.004 C 
ATOM      8  C   UNL     1      -2.578  -0.416  23.514  0.00  0.00    +0.012 C 
ATOM      9  C   UNL     1      -4.441  -1.954  24.201  0.00  0.00    +0.019 C 
ATOM     10  C   UNL     1      -1.644  -1.227  24.429  0.00  0.00    +0.085 C 
ATOM     11  C   UNL     1      -3.447  -2.705  25.087  0.00  0.00    +0.081 C 
ATOM     29  H   UNL     1      -1.452  -3.118  25.176  0.00  0.00    +0.122 HD
ENDROOT
BRANCH   8  12
ATOM     12  C   UNL     1      -2.062   1.015  23.355  0.00  0.00    +0.064 C 
BRANCH  12  14
ATOM      2  O   UNL     1       1.369   1.896  23.993  0.00  0.00    -0.354 OA
ATOM      6  N   UNL     1       0.007   2.165  24.014  0.00  0.00    -0.083 NA
ATOM     14  C   UNL     1      -0.569   1.078  23.491  0.00  0.00    +0.085 A 
ATOM     16  C   UNL     1       0.371   0.100  23.125  0.00  0.00    +0.076 A 
ATOM     17  C   UNL     1       1.574   0.663  23.461  0.00  0.00    +0.167 A 
BRANCH  17  20
ATOM     20  C   UNL     1       2.943   0.244  23.374  0.00  0.00    +0.020 A 
ATOM     22  C   UNL     1       3.297  -1.058  23.726  0.00  0.00    +0.015 A 
ATOM     23  C   UNL     1       3.920   1.138  22.937  0.00  0.00    +0.015 A 
ATOM     24  C   UNL     1       4.629  -1.466  23.642  0.00  0.00    +0.046 A 
ATOM     25  C   UNL     1       5.251   0.732  22.853  0.00  0.00    +0.046 A 
ATOM     26  C   UNL     1       5.606  -0.571  23.206  0.00  0.00    +0.120 A 
BRANCH  26   3
ATOM      3  O   UNL     1       6.905  -0.969  23.122  0.00  0.00    -0.495 OA
ATOM     28  C   UNL     1       7.904   0.039  23.273  0.00  0.00    +0.277 C 
ENDBRANCH  26   3
ENDBRANCH  17  20
ENDBRANCH  12  14
ENDBRANCH   8  12
BRANCH   7  13
ATOM     13  C   UNL     1      -4.328   0.341  25.256  0.00  0.00    +0.100 C 
BRANCH  13  15
ATOM      1  O   UNL     1      -5.604   2.146  24.331  0.00  0.00    -0.276 OA
ATOM      5  N   UNL     1      -3.627   2.710  25.404  0.00  0.00    -0.293 N 
ATOM     15  C   UNL     1      -4.592   1.805  24.947  0.00  0.00    +0.216 C 
ATOM     19  C   UNL     1      -2.438   2.283  26.132  0.00  0.00    +0.133 C 
BRANCH   5  18
ATOM     18  C   UNL     1      -3.737   4.150  25.186  0.00  0.00    +0.196 C 
BRANCH  18  21
ATOM     21  C   UNL     1      -2.417   4.775  25.112  0.00  0.00    -0.086 C 
ATOM     27  C   UNL     1      -1.332   5.287  25.053  0.00  0.00    +0.005 C 
ENDBRANCH  18  21
ENDBRANCH   5  18
ENDBRANCH  13  15
ENDBRANCH   7  13
TORSDOF 8
ENDMDL
MODEL 3
REMARK VINA RESULT:      -1.0     17.538     19.323
REMARK  Name = 28960225
REMARK  10 active torsions:
REMARK  status: ('A' for Active; 'I' for Inactive)
REMARK    1  A    between atoms: O_3  and  C_26
REMARK    2  A    between atoms: O_3  and  C_28
REMARK    3  A    between atoms: N_5  and  C_18
REMARK    4  A    between atoms: N_5  and  C_19
REMARK    5  A    between atoms: C_7  and  C_13
REMARK    6  A    between atoms: C_8  and  C_12
REMARK    7  A    between atoms: C_12  and  C_14
REMARK    8  A    between atoms: C_13  and  C_15
REMARK    9  A    between atoms: C_17  and  C_20
REMARK   10  A    between atoms: C_18  and  C_21
REMARK                            x       y       z     vdW  Elec       q    Type
REMARK                         _______ _______ _______ _____ _____    ______ ____
ROOT
ATOM      4  N   UNL     1      -4.824   4.380  24.189  0.00  0.00    -0.316 NA
ATOM      7  C   UNL     1      -3.596   1.971  25.367  0.00  0.00    +0.004 C 
ATOM      8  C   UNL     1      -3.082   2.618  24.060  0.00  0.00    +0.012 C 
ATOM      9  C   UNL     1      -4.326   3.037  26.201  0.00  0.00    +0.019 C 
ATOM     10  C   UNL     1      -4.197   3.380  23.325  0.00  0.00    +0.085 C 
ATOM     11  C   UNL     1      -5.391   3.780  25.394  0.00  0.00    +0.081 C 
ATOM     29  H   UNL     1      -5.563   4.858  23.672  0.00  0.00    +0.122 HD
ENDROOT
BRANCH   8  12
ATOM     12  C   UNL     1      -2.407   1.616  23.121  0.00  0.00    +0.064 C 
BRANCH  12  14
ATOM      2  O   UNL     1       1.000   2.046  24.200  0.00  0.00    -0.354 OA
ATOM      6  N   UNL     1      -0.333   2.436  24.150  0.00  0.00    -0.083 NA
ATOM     14  C   UNL     1      -0.935   1.513  23.395  0.00  0.00    +0.085 A 
ATOM     16  C   UNL     1      -0.043   0.526  22.944  0.00  0.00    +0.076 A 
ATOM     17  C   UNL     1       1.160   0.906  23.477  0.00  0.00    +0.167 A 
BRANCH  17  20
ATOM     20  C   UNL     1       2.493   0.380  23.437  0.00  0.00    +0.020 A 
ATOM     22  C   UNL     1       2.724  -0.959  23.751  0.00  0.00    +0.015 A 
ATOM     23  C   UNL     1       3.560   1.207  23.083  0.00  0.00    +0.015 A 
ATOM     24  C   UNL     1       4.021  -1.472  23.712  0.00  0.00    +0.046 A 
ATOM     25  C   UNL     1       4.857   0.696  23.044  0.00  0.00    +0.046 A 
ATOM     26  C   UNL     1       5.087  -0.644  23.359  0.00  0.00    +0.120 A 
BRANCH  26   3
ATOM      3  O   UNL     1       6.353  -1.144  23.319  0.00  0.00    -0.495 OA
ATOM     28  C   UNL     1       7.407  -0.222  23.049  0.00  0.00    +0.277 C 
ENDBRANCH  26   3
ENDBRANCH  17  20
ENDBRANCH  12  14
ENDBRANCH   8  12
BRANCH   7  13
ATOM     13  C   UNL     1      -4.490   0.745  25.147  0.00  0.00    +0.100 C 
BRANCH  13  15
ATOM      1  O   UNL     1      -3.329  -0.745  26.622  0.00  0.00    -0.276 OA
ATOM      5  N   UNL     1      -3.698  -1.496  24.459  0.00  0.00    -0.293 N 
ATOM     15  C   UNL     1      -3.785  -0.556  25.492  0.00  0.00    +0.216 C 
ATOM     19  C   UNL     1      -4.246  -1.251  23.130  0.00  0.00    +0.133 C 
BRANCH   5  18
ATOM     18  C   UNL     1      -3.051  -2.794  24.633  0.00  0.00    +0.196 C 
BRANCH  18  21
ATOM     21  C   UNL     1      -1.612  -2.641  24.850  0.00  0.00    -0.086 C 
ATOM     27  C   UNL     1      -0.431  -2.513  25.025  0.00  0.00    +0.005 C 
ENDBRANCH  18  21
ENDBRANCH   5  18
ENDBRANCH  13  15
ENDBRANCH   7  13
TORSDOF 8
ENDMDL
MODEL 4
REMARK VINA RESULT:      -0.6     18.015     20.043
REMARK  Name = 28960225
REMARK  10 active torsions:
REMARK  status: ('A' for Active; 'I' for Inactive)
REMARK    1  A    between atoms: O_3  and  C_26
REMARK    2  A    between atoms: O_3  and  C_28
REMARK    3  A    between atoms: N_5  and  C_18
REMARK    4  A    between atoms: N_5  and  C_19
REMARK    5  A    between atoms: C_7  and  C_13
REMARK    6  A    between atoms: C_8  and  C_12
REMARK    7  A    between atoms: C_12  and  C_14
REMARK    8  A    between atoms: C_13  and  C_15
REMARK    9  A    between atoms: C_17  and  C_20
REMARK   10  A    between atoms: C_18  and  C_21
REMARK                            x       y       z     vdW  Elec       q    Type
REMARK                         _______ _______ _______ _____ _____    ______ ____
ROOT
ATOM      4  N   UNL     1      -6.234   3.581  25.408  0.00  0.00    -0.316 NA
ATOM      7  C   UNL     1      -3.530   2.692  24.635  0.00  0.00    +0.004 C 
ATOM      8  C   UNL     1      -4.800   1.860  24.340  0.00  0.00    +0.012 C 
ATOM      9  C   UNL     1      -3.922   4.173  24.775  0.00  0.00    +0.019 C 
ATOM     10  C   UNL     1      -5.920   2.152  25.352  0.00  0.00    +0.085 C 
ATOM     11  C   UNL     1      -5.067   4.382  25.766  0.00  0.00    +0.081 C 
ATOM     29  H   UNL     1      -6.973   3.737  26.094  0.00  0.00    +0.122 HD
ENDROOT
BRANCH   8  12
ATOM     12  C   UNL     1      -4.526   0.357  24.262  0.00  0.00    +0.064 C 
BRANCH  12  14
ATOM      2  O   UNL     1      -1.186  -0.961  24.513  0.00  0.00    -0.354 OA
ATOM      6  N   UNL     1      -2.545  -0.995  24.797  0.00  0.00    -0.083 NA
ATOM     14  C   UNL     1      -3.055   0.071  24.173  0.00  0.00    +0.085 A 
ATOM     16  C   UNL     1      -2.076   0.807  23.486  0.00  0.00    +0.076 A 
ATOM     17  C   UNL     1      -0.918   0.118  23.732  0.00  0.00    +0.167 A 
BRANCH  17  20
ATOM     20  C   UNL     1       0.455   0.285  23.355  0.00  0.00    +0.020 A 
ATOM     22  C   UNL     1       1.085  -0.681  22.570  0.00  0.00    +0.015 A 
ATOM     23  C   UNL     1       1.162   1.413  23.773  0.00  0.00    +0.015 A 
ATOM     24  C   UNL     1       2.422  -0.519  22.203  0.00  0.00    +0.046 A 
ATOM     25  C   UNL     1       2.497   1.575  23.407  0.00  0.00    +0.046 A 
ATOM     26  C   UNL     1       3.128   0.609  22.623  0.00  0.00    +0.120 A 
BRANCH  26   3
ATOM      3  O   UNL     1       4.431   0.769  22.264  0.00  0.00    -0.495 OA
ATOM     28  C   UNL     1       5.413   0.138  23.085  0.00  0.00    +0.277 C 
ENDBRANCH  26   3
ENDBRANCH  17  20
ENDBRANCH  12  14
ENDBRANCH   8  12
BRANCH   7  13
ATOM     13  C   UNL     1      -2.744   2.218  25.863  0.00  0.00    +0.100 C 
BRANCH  13  15
ATOM      1  O   UNL     1      -1.358   4.165  25.688  0.00  0.00    -0.276 OA
ATOM      5  N   UNL     1      -0.408   2.294  26.676  0.00  0.00    -0.293 N 
ATOM     15  C   UNL     1      -1.451   2.992  26.059  0.00  0.00    +0.216 C 
ATOM     19  C   UNL     1      -0.542   0.908  27.107  0.00  0.00    +0.133 C 
BRANCH   5  18
ATOM     18  C   UNL     1       0.895   2.901  26.934  0.00  0.00    +0.196 C 
BRANCH  18  21
ATOM     21  C   UNL     1       1.343   2.628  28.300  0.00  0.00    -0.086 C 
ATOM     27  C   UNL     1       1.713   2.406  29.420  0.00  0.00    +0.005 C 
ENDBRANCH  18  21
ENDBRANCH   5  18
ENDBRANCH  13  15
ENDBRANCH   7  13
TORSDOF 8
ENDMDL
MODEL 5
REMARK VINA RESULT:      -0.5     18.144     19.887
REMARK  Name = 28960225
REMARK  10 active torsions:
REMARK  status: ('A' for Active; 'I' for Inactive)
REMARK    1  A    between atoms: O_3  and  C_26
REMARK    2  A    between atoms: O_3  and  C_28
REMARK    3  A    between atoms: N_5  and  C_18
REMARK    4  A    between atoms: N_5  and  C_19
REMARK    5  A    between atoms: C_7  and  C_13
REMARK    6  A    between atoms: C_8  and  C_12
REMARK    7  A    between atoms: C_12  and  C_14
REMARK    8  A    between atoms: C_13  and  C_15
REMARK    9  A    between atoms: C_17  and  C_20
REMARK   10  A    between atoms: C_18  and  C_21
REMARK                            x       y       z     vdW  Elec       q    Type
REMARK                         _______ _______ _______ _____ _____    ______ ____
ROOT
ATOM      4  N   UNL     1      -6.154   3.607  25.764  0.00  0.00    -0.316 NA
ATOM      7  C   UNL     1      -4.388   1.274  25.387  0.00  0.00    +0.004 C 
ATOM      8  C   UNL     1      -4.135   2.635  24.696  0.00  0.00    +0.012 C 
ATOM      9  C   UNL     1      -5.217   1.506  26.662  0.00  0.00    +0.019 C 
ATOM     10  C   UNL     1      -5.441   3.424  24.499  0.00  0.00    +0.085 C 
ATOM     11  C   UNL     1      -6.477   2.330  26.396  0.00  0.00    +0.081 C 
ATOM     29  H   UNL     1      -7.016   4.125  25.593  0.00  0.00    +0.122 HD
ENDROOT
BRANCH   8  12
ATOM     12  C   UNL     1      -3.383   2.503  23.371  0.00  0.00    +0.064 C 
BRANCH  12  14
ATOM      2  O   UNL     1       0.046   2.544  24.466  0.00  0.00    -0.354 OA
ATOM      6  N   UNL     1      -1.268   2.990  24.523  0.00  0.00    -0.083 NA
ATOM     14  C   UNL     1      -1.915   2.281  23.593  0.00  0.00    +0.085 A 
ATOM     16  C   UNL     1      -1.070   1.380  22.925  0.00  0.00    +0.076 A 
ATOM     17  C   UNL     1       0.152   1.585  23.510  0.00  0.00    +0.167 A 
BRANCH  17  20
ATOM     20  C   UNL     1       1.460   1.025  23.335  0.00  0.00    +0.020 A 
ATOM     22  C   UNL     1       1.628  -0.359  23.299  0.00  0.00    +0.015 A 
ATOM     23  C   UNL     1       2.567   1.865  23.201  0.00  0.00    +0.015 A 
ATOM     24  C   UNL     1       2.901  -0.904  23.129  0.00  0.00    +0.046 A 
ATOM     25  C   UNL     1       3.839   1.321  23.032  0.00  0.00    +0.046 A 
ATOM     26  C   UNL     1       4.006  -0.064  22.996  0.00  0.00    +0.120 A 
BRANCH  26   3
ATOM      3  O   UNL     1       5.249  -0.595  22.828  0.00  0.00    -0.495 OA
ATOM     28  C   UNL     1       6.179  -0.420  23.896  0.00  0.00    +0.277 C 
ENDBRANCH  26   3
ENDBRANCH  17  20
ENDBRANCH  12  14
ENDBRANCH   8  12
BRANCH   7  13
ATOM     13  C   UNL     1      -5.055   0.230  24.485  0.00  0.00    +0.100 C 
BRANCH  13  15
ATOM      1  O   UNL     1      -3.864  -0.819  22.689  0.00  0.00    -0.276 OA
ATOM      5  N   UNL     1      -3.393  -1.570  24.832  0.00  0.00    -0.293 N 
ATOM     15  C   UNL     1      -4.057  -0.759  23.906  0.00  0.00    +0.216 C 
ATOM     19  C   UNL     1      -3.637  -1.480  26.267  0.00  0.00    +0.133 C 
BRANCH   5  18
ATOM     18  C   UNL     1      -2.405  -2.568  24.433  0.00  0.00    +0.196 C 
BRANCH  18  21
ATOM     21  C   UNL     1      -1.092  -2.270  25.005  0.00  0.00    -0.086 C 
ATOM     27  C   UNL     1      -0.014  -2.022  25.474  0.00  0.00    +0.005 C 
ENDBRANCH  18  21
ENDBRANCH   5  18
ENDBRANCH  13  15
ENDBRANCH   7  13
TORSDOF 8
ENDMDL
MODEL 6
REMARK VINA RESULT:       0.4     17.483     19.484
REMARK  Name = 28960225
REMARK  10 active torsions:
REMARK  status: ('A' for Active; 'I' for Inactive)
REMARK    1  A    between atoms: O_3  and  C_26
REMARK    2  A    between atoms: O_3  and  C_28
REMARK    3  A    between atoms: N_5  and  C_18
REMARK    4  A    between atoms: N_5  and  C_19
REMARK    5  A    between atoms: C_7  and  C_13
REMARK    6  A    between atoms: C_8  and  C_12
REMARK    7  A    between atoms: C_12  and  C_14
REMARK    8  A    between atoms: C_13  and  C_15
REMARK    9  A    between atoms: C_17  and  C_20
REMARK   10  A    between atoms: C_18  and  C_21
REMARK                            x       y       z     vdW  Elec       q    Type
REMARK                         _______ _______ _______ _____ _____    ______ ____
ROOT
ATOM      4  N   UNL     1      -0.523   4.953  24.639  0.00  0.00    -0.316 NA
ATOM      7  C   UNL     1      -2.867   3.655  25.873  0.00  0.00    +0.004 C 
ATOM      8  C   UNL     1      -1.562   2.890  25.549  0.00  0.00    +0.012 C 
ATOM      9  C   UNL     1      -2.544   5.148  26.045  0.00  0.00    +0.019 C 
ATOM     10  C   UNL     1      -0.797   3.538  24.383  0.00  0.00    +0.085 C 
ATOM     11  C   UNL     1      -1.749   5.713  24.867  0.00  0.00    +0.081 C 
ATOM     29  H   UNL     1      -0.024   5.350  23.843  0.00  0.00    +0.122 HD
ENDROOT
BRANCH   8  12
ATOM     12  C   UNL     1      -1.790   1.402  25.280  0.00  0.00    +0.064 C 
BRANCH  12  14
ATOM      2  O   UNL     1       0.539  -0.654  23.462  0.00  0.00    -0.354 OA
ATOM      6  N   UNL     1      -0.737  -0.354  23.922  0.00  0.00    -0.083 NA
ATOM     14  C   UNL     1      -0.595   0.774  24.624  0.00  0.00    +0.085 A 
ATOM     16  C   UNL     1       0.735   1.228  24.643  0.00  0.00    +0.076 A 
ATOM     17  C   UNL     1       1.408   0.295  23.898  0.00  0.00    +0.167 A 
BRANCH  17  20
ATOM     20  C   UNL     1       2.773   0.117  23.499  0.00  0.00    +0.020 A 
ATOM     22  C   UNL     1       3.460  -1.042  23.862  0.00  0.00    +0.015 A 
ATOM     23  C   UNL     1       3.416   1.103  22.749  0.00  0.00    +0.015 A 
ATOM     24  C   UNL     1       4.789  -1.215  23.474  0.00  0.00    +0.046 A 
ATOM     25  C   UNL     1       4.744   0.930  22.362  0.00  0.00    +0.046 A 
ATOM     26  C   UNL     1       5.431  -0.228  22.725  0.00  0.00    +0.120 A 
BRANCH  26   3
ATOM      3  O   UNL     1       6.727  -0.398  22.345  0.00  0.00    -0.495 OA
ATOM     28  C   UNL     1       7.723  -0.270  23.358  0.00  0.00    +0.277 C 
ENDBRANCH  26   3
ENDBRANCH  17  20
ENDBRANCH  12  14
ENDBRANCH   8  12
BRANCH   7  13
ATOM     13  C   UNL     1      -3.981   3.453  24.839  0.00  0.00    +0.100 C 
BRANCH  13  15
ATOM      1  O   UNL     1      -5.587   2.128  26.024  0.00  0.00    -0.276 OA
ATOM      5  N   UNL     1      -4.550   1.130  24.206  0.00  0.00    -0.293 N 
ATOM     15  C   UNL     1      -4.784   2.188  25.090  0.00  0.00    +0.216 C 
ATOM     19  C   UNL     1      -3.595   1.225  23.108  0.00  0.00    +0.133 C 
BRANCH   5  18
ATOM     18  C   UNL     1      -5.244  -0.151  24.316  0.00  0.00    +0.196 C 
BRANCH  18  21
ATOM     21  C   UNL     1      -4.297  -1.266  24.301  0.00  0.00    -0.086 C 
ATOM     27  C   UNL     1      -3.521  -2.182  24.286  0.00  0.00    +0.005 C 
ENDBRANCH  18  21
ENDBRANCH   5  18
ENDBRANCH  13  15
ENDBRANCH   7  13
TORSDOF 8
ENDMDL
MODEL 7
REMARK VINA RESULT:       0.5     18.877     21.019
REMARK  Name = 28960225
REMARK  10 active torsions:
REMARK  status: ('A' for Active; 'I' for Inactive)
REMARK    1  A    between atoms: O_3  and  C_26
REMARK    2  A    between atoms: O_3  and  C_28
REMARK    3  A    between atoms: N_5  and  C_18
REMARK    4  A    between atoms: N_5  and  C_19
REMARK    5  A    between atoms: C_7  and  C_13
REMARK    6  A    between atoms: C_8  and  C_12
REMARK    7  A    between atoms: C_12  and  C_14
REMARK    8  A    between atoms: C_13  and  C_15
REMARK    9  A    between atoms: C_17  and  C_20
REMARK   10  A    between atoms: C_18  and  C_21
REMARK                            x       y       z     vdW  Elec       q    Type
REMARK                         _______ _______ _______ _____ _____    ______ ____
ROOT
ATOM      4  N   UNL     1      -6.102   1.983  26.869  0.00  0.00    -0.316 NA
ATOM      7  C   UNL     1      -5.305   1.751  24.038  0.00  0.00    +0.004 C 
ATOM      8  C   UNL     1      -5.623   0.521  24.920  0.00  0.00    +0.012 C 
ATOM      9  C   UNL     1      -6.031   2.980  24.611  0.00  0.00    +0.019 C 
ATOM     10  C   UNL     1      -5.363   0.806  26.409  0.00  0.00    +0.085 C 
ATOM     11  C   UNL     1      -5.757   3.177  26.102  0.00  0.00    +0.081 C 
ATOM     29  H   UNL     1      -5.898   2.145  27.855  0.00  0.00    +0.122 HD
ENDROOT
BRANCH   8  12
ATOM     12  C   UNL     1      -4.882  -0.742  24.478  0.00  0.00    +0.064 C 
BRANCH  12  14
ATOM      2  O   UNL     1      -1.422  -0.543  25.450  0.00  0.00    -0.354 OA
ATOM      6  N   UNL     1      -2.760  -0.802  25.716  0.00  0.00    -0.083 NA
ATOM     14  C   UNL     1      -3.394  -0.562  24.564  0.00  0.00    +0.085 A 
ATOM     16  C   UNL     1      -2.516  -0.153  23.546  0.00  0.00    +0.076 A 
ATOM     17  C   UNL     1      -1.289  -0.156  24.154  0.00  0.00    +0.167 A 
BRANCH  17  20
ATOM     20  C   UNL     1       0.047   0.147  23.731  0.00  0.00    +0.020 A 
ATOM     22  C   UNL     1       0.715  -0.714  22.861  0.00  0.00    +0.015 A 
ATOM     23  C   UNL     1       0.679   1.304  24.189  0.00  0.00    +0.015 A 
ATOM     24  C   UNL     1       2.016  -0.420  22.449  0.00  0.00    +0.046 A 
ATOM     25  C   UNL     1       1.978   1.599  23.778  0.00  0.00    +0.046 A 
ATOM     26  C   UNL     1       2.647   0.737  22.908  0.00  0.00    +0.120 A 
BRANCH  26   3
ATOM      3  O   UNL     1       3.915   1.026  22.505  0.00  0.00    -0.495 OA
ATOM     28  C   UNL     1       4.981   0.423  23.236  0.00  0.00    +0.277 C 
ENDBRANCH  26   3
ENDBRANCH  17  20
ENDBRANCH  12  14
ENDBRANCH   8  12
BRANCH   7  13
ATOM     13  C   UNL     1      -3.807   2.030  23.873  0.00  0.00    +0.100 C 
BRANCH  13  15
ATOM      1  O   UNL     1      -3.924   4.360  23.327  0.00  0.00    -0.276 OA
ATOM      5  N   UNL     1      -2.614   3.781  25.151  0.00  0.00    -0.293 N 
ATOM     15  C   UNL     1      -3.464   3.496  24.077  0.00  0.00    +0.216 C 
ATOM     19  C   UNL     1      -2.083   2.742  26.025  0.00  0.00    +0.133 C 
BRANCH   5  18
ATOM     18  C   UNL     1      -2.193   5.141  25.477  0.00  0.00    +0.196 C 
BRANCH  18  21
ATOM     21  C   UNL     1      -0.911   5.461  24.849  0.00  0.00    -0.086 C 
ATOM     27  C   UNL     1       0.140   5.723  24.330  0.00  0.00    +0.005 C 
ENDBRANCH  18  21
ENDBRANCH   5  18
ENDBRANCH  13  15
ENDBRANCH   7  13
TORSDOF 8
ENDMDL
MODEL 8
REMARK VINA RESULT:       1.3     16.995     18.932
REMARK  Name = 28960225
REMARK  10 active torsions:
REMARK  status: ('A' for Active; 'I' for Inactive)
REMARK    1  A    between atoms: O_3  and  C_26
REMARK    2  A    between atoms: O_3  and  C_28
REMARK    3  A    between atoms: N_5  and  C_18
REMARK    4  A    between atoms: N_5  and  C_19
REMARK    5  A    between atoms: C_7  and  C_13
REMARK    6  A    between atoms: C_8  and  C_12
REMARK    7  A    between atoms: C_12  and  C_14
REMARK    8  A    between atoms: C_13  and  C_15
REMARK    9  A    between atoms: C_17  and  C_20
REMARK   10  A    between atoms: C_18  and  C_21
REMARK                            x       y       z     vdW  Elec       q    Type
REMARK                         _______ _______ _______ _____ _____    ______ ____
ROOT
ATOM      4  N   UNL     1      -3.547   4.497  24.269  0.00  0.00    -0.316 NA
ATOM      7  C   UNL     1      -1.666   2.461  25.278  0.00  0.00    +0.004 C 
ATOM      8  C   UNL     1      -2.163   2.487  23.814  0.00  0.00    +0.012 C 
ATOM      9  C   UNL     1      -1.771   3.877  25.869  0.00  0.00    +0.019 C 
ATOM     10  C   UNL     1      -3.545   3.151  23.694  0.00  0.00    +0.085 C 
ATOM     11  C   UNL     1      -3.159   4.487  25.678  0.00  0.00    +0.081 C 
ATOM     29  H   UNL     1      -4.480   4.901  24.180  0.00  0.00    +0.122 HD
ENDROOT
BRANCH   8  12
ATOM     12  C   UNL     1      -2.173   1.105  23.159  0.00  0.00    +0.064 C 
BRANCH  12  14
ATOM      2  O   UNL     1       0.787  -0.797  22.396  0.00  0.00    -0.354 OA
ATOM      6  N   UNL     1      -0.587  -0.596  22.365  0.00  0.00    -0.083 NA
ATOM     14  C   UNL     1      -0.782   0.564  22.999  0.00  0.00    +0.085 A 
ATOM     16  C   UNL     1       0.421   1.135  23.448  0.00  0.00    +0.076 A 
ATOM     17  C   UNL     1       1.377   0.241  23.045  0.00  0.00    +0.167 A 
BRANCH  17  20
ATOM     20  C   UNL     1       2.804   0.172  23.156  0.00  0.00    +0.020 A 
ATOM     22  C   UNL     1       3.587   1.264  22.781  0.00  0.00    +0.015 A 
ATOM     23  C   UNL     1       3.412  -0.987  23.639  0.00  0.00    +0.015 A 
ATOM     24  C   UNL     1       4.976   1.198  22.889  0.00  0.00    +0.046 A 
ATOM     25  C   UNL     1       4.801  -1.055  23.746  0.00  0.00    +0.046 A 
ATOM     26  C   UNL     1       5.583   0.037  23.372  0.00  0.00    +0.120 A 
BRANCH  26   3
ATOM      3  O   UNL     1       6.939  -0.028  23.479  0.00  0.00    -0.495 OA
ATOM     28  C   UNL     1       7.608  -0.996  22.672  0.00  0.00    +0.277 C 
ENDBRANCH  26   3
ENDBRANCH  17  20
ENDBRANCH  12  14
ENDBRANCH   8  12
BRANCH   7  13
ATOM     13  C   UNL     1      -2.393   1.444  26.166  0.00  0.00    +0.100 C 
BRANCH  13  15
ATOM      1  O   UNL     1      -0.798  -0.342  26.060  0.00  0.00    -0.276 OA
ATOM      5  N   UNL     1      -2.968  -0.842  25.412  0.00  0.00    -0.293 N 
ATOM     15  C   UNL     1      -1.965   0.014  25.880  0.00  0.00    +0.216 C 
ATOM     19  C   UNL     1      -4.342  -0.399  25.207  0.00  0.00    +0.133 C 
BRANCH   5  18
ATOM     18  C   UNL     1      -2.714  -2.245  25.093  0.00  0.00    +0.196 C 
BRANCH  18  21
ATOM     21  C   UNL     1      -3.737  -2.773  24.191  0.00  0.00    -0.086 C 
ATOM     27  C   UNL     1      -4.578  -3.209  23.453  0.00  0.00    +0.005 C 
ENDBRANCH  18  21
ENDBRANCH   5  18
ENDBRANCH  13  15
ENDBRANCH   7  13
TORSDOF 8
ENDMDL
