MODEL 1
REMARK VINA RESULT:       1.6      0.000      0.000
REMARK  Name = 40776883
REMARK  7 active torsions:
REMARK  status: ('A' for Active; 'I' for Inactive)
REMARK    1  A    between atoms: O_2  and  C_15
REMARK    2  A    between atoms: O_2  and  C_20
REMARK    3  A    between atoms: N_6  and  C_18
REMARK    4  A    between atoms: C_9  and  C_16
REMARK    5  A    between atoms: C_10  and  C_15
REMARK    6  A    between atoms: C_19  and  C_27
REMARK    7  A    between atoms: C_21  and  C_28
REMARK                            x       y       z     vdW  Elec       q    Type
REMARK                         _______ _______ _______ _____ _____    ______ ____
ROOT
ATOM      4  N   UNL     1      -1.719  -2.437  23.807  0.00  0.00    -0.296 NA
ATOM      8  C   UNL     1      -3.541  -2.027  25.623  0.00  0.00    +0.002 C 
ATOM      9  C   UNL     1      -3.727  -1.043  24.434  0.00  0.00    +0.055 C 
ATOM     10  C   UNL     1      -1.085  -2.313  25.147  0.00  0.00    +0.095 C 
ATOM     11  C   UNL     1      -2.120  -1.866  26.201  0.00  0.00    +0.026 C 
ATOM     12  C   UNL     1      -3.636  -3.452  25.039  0.00  0.00    +0.019 C 
ATOM     13  C   UNL     1      -2.495  -1.209  23.498  0.00  0.00    +0.094 C 
ATOM     14  C   UNL     1      -2.660  -3.581  23.855  0.00  0.00    +0.085 C 
ENDROOT
BRANCH   9  16
ATOM      5  N   UNL     1      -5.288   0.722  25.086  0.00  0.00    -0.237 NA
ATOM      7  N   UNL     1      -4.604   3.020  25.321  0.00  0.00    -0.232 NA
ATOM     16  C   UNL     1      -4.019   0.417  24.749  0.00  0.00    +0.050 A 
ATOM     17  C   UNL     1      -3.000   1.346  24.677  0.00  0.00    +0.052 A 
ATOM     19  C   UNL     1      -3.355   2.645  24.977  0.00  0.00    +0.075 A 
ATOM     21  C   UNL     1      -5.509   2.024  25.356  0.00  0.00    +0.127 A 
ATOM     28  C   UNL     1      -6.901   2.400  25.731  0.00  0.00    +0.088 C 
BRANCH  19  27
ATOM      1  F   UNL     1       0.401   6.759  24.825  0.00  0.00    -0.205 F 
ATOM     27  C   UNL     1      -2.382   3.711  24.937  0.00  0.00    +0.001 A 
ATOM     29  C   UNL     1      -2.784   5.031  25.147  0.00  0.00    +0.013 A 
ATOM     30  C   UNL     1      -1.041   3.422  24.690  0.00  0.00    +0.013 A 
ATOM     31  C   UNL     1      -1.844   6.060  25.109  0.00  0.00    +0.039 A 
ATOM     32  C   UNL     1      -0.100   4.451  24.652  0.00  0.00    +0.039 A 
ATOM     33  C   UNL     1      -0.502   5.770  24.861  0.00  0.00    +0.123 A 
ENDBRANCH  19  27
ENDBRANCH   9  16
BRANCH  10  15
ATOM     15  C   UNL     1       0.142  -1.399  25.128  0.00  0.00    +0.252 C 
BRANCH  15   2
ATOM      2  O   UNL     1      -0.035  -0.436  24.107  0.00  0.00    -0.449 OA
BRANCH   2  20
ATOM      3  O   UNL     1       0.541  -0.283  21.889  0.00  0.00    -0.226 OA
ATOM      6  N   UNL     1       2.118  -0.787  23.515  0.00  0.00    -0.278 N 
ATOM     20  C   UNL     1       0.852  -0.484  23.059  0.00  0.00    +0.401 C 
ATOM     34  H   UNL     1       2.241  -0.885  24.518  0.00  0.00    +0.152 HD
BRANCH   6  18
ATOM     18  C   UNL     1       3.274  -0.911  22.655  0.00  0.00    +0.076 C 
ATOM     22  C   UNL     1       3.638   0.439  22.025  0.00  0.00    +0.022 C 
ATOM     23  C   UNL     1       4.463  -1.510  23.412  0.00  0.00    +0.022 C 
ATOM     24  C   UNL     1       4.243   1.411  23.039  0.00  0.00    +0.002 C 
ATOM     25  C   UNL     1       5.065  -0.534  24.423  0.00  0.00    +0.002 C 
ATOM     26  C   UNL     1       5.430   0.796  23.772  0.00  0.00    +0.000 C 
ENDBRANCH   6  18
ENDBRANCH   2  20
ENDBRANCH  15   2
ENDBRANCH  10  15
TORSDOF 6
ENDMDL
MODEL 2
REMARK VINA RESULT:       2.1      2.844      6.915
REMARK  Name = 40776883
REMARK  7 active torsions:
REMARK  status: ('A' for Active; 'I' for Inactive)
REMARK    1  A    between atoms: O_2  and  C_15
REMARK    2  A    between atoms: O_2  and  C_20
REMARK    3  A    between atoms: N_6  and  C_18
REMARK    4  A    between atoms: C_9  and  C_16
REMARK    5  A    between atoms: C_10  and  C_15
REMARK    6  A    between atoms: C_19  and  C_27
REMARK    7  A    between atoms: C_21  and  C_28
REMARK                            x       y       z     vdW  Elec       q    Type
REMARK                         _______ _______ _______ _____ _____    ______ ____
ROOT
ATOM      4  N   UNL     1      -3.751  -1.286  25.705  0.00  0.00    -0.296 NA
ATOM      8  C   UNL     1      -2.174  -2.097  23.797  0.00  0.00    +0.002 C 
ATOM      9  C   UNL     1      -1.373  -1.295  24.860  0.00  0.00    +0.055 C 
ATOM     10  C   UNL     1      -4.330  -0.934  24.381  0.00  0.00    +0.095 C 
ATOM     11  C   UNL     1      -3.319  -1.219  23.250  0.00  0.00    +0.026 C 
ATOM     12  C   UNL     1      -2.826  -3.286  24.536  0.00  0.00    +0.019 C 
ATOM     13  C   UNL     1      -2.404  -0.677  25.848  0.00  0.00    +0.094 C 
ATOM     14  C   UNL     1      -3.601  -2.760  25.757  0.00  0.00    +0.085 C 
ENDROOT
BRANCH   9  16
ATOM      5  N   UNL     1      -0.810   0.982  24.168  0.00  0.00    -0.237 NA
ATOM      7  N   UNL     1       1.419   1.606  23.497  0.00  0.00    -0.232 NA
ATOM     16  C   UNL     1      -0.357  -0.272  24.373  0.00  0.00    +0.050 A 
ATOM     17  C   UNL     1       0.952  -0.659  24.166  0.00  0.00    +0.052 A 
ATOM     19  C   UNL     1       1.803   0.333  23.723  0.00  0.00    +0.075 A 
ATOM     21  C   UNL     1       0.118   1.858  23.736  0.00  0.00    +0.127 A 
ATOM     28  C   UNL     1      -0.345   3.254  23.496  0.00  0.00    +0.088 C 
BRANCH  19  27
ATOM      1  F   UNL     1       7.183  -0.728  22.730  0.00  0.00    -0.205 F 
ATOM     27  C   UNL     1       3.197   0.058  23.466  0.00  0.00    +0.001 A 
ATOM     29  C   UNL     1       3.750  -1.164  23.850  0.00  0.00    +0.013 A 
ATOM     30  C   UNL     1       3.991   1.014  22.834  0.00  0.00    +0.013 A 
ATOM     31  C   UNL     1       5.096  -1.429  23.601  0.00  0.00    +0.039 A 
ATOM     32  C   UNL     1       5.338   0.749  22.585  0.00  0.00    +0.039 A 
ATOM     33  C   UNL     1       5.890  -0.473  22.969  0.00  0.00    +0.123 A 
ENDBRANCH  19  27
ENDBRANCH   9  16
BRANCH  10  15
ATOM     15  C   UNL     1      -4.845   0.506  24.335  0.00  0.00    +0.252 C 
BRANCH  15   2
ATOM      2  O   UNL     1      -5.773   0.682  25.388  0.00  0.00    -0.449 OA
BRANCH   2  20
ATOM      3  O   UNL     1      -6.510   2.204  26.941  0.00  0.00    -0.226 OA
ATOM      6  N   UNL     1      -4.900   2.766  25.369  0.00  0.00    -0.278 N 
ATOM     20  C   UNL     1      -5.792   1.917  25.989  0.00  0.00    +0.401 C 
ATOM     34  H   UNL     1      -4.335   2.382  24.618  0.00  0.00    +0.152 HD
BRANCH   6  18
ATOM     18  C   UNL     1      -4.687   4.140  25.768  0.00  0.00    +0.076 C 
ATOM     22  C   UNL     1      -3.658   4.230  26.901  0.00  0.00    +0.022 C 
ATOM     23  C   UNL     1      -4.275   5.004  24.573  0.00  0.00    +0.022 C 
ATOM     24  C   UNL     1      -2.236   3.935  26.422  0.00  0.00    +0.002 C 
ATOM     25  C   UNL     1      -2.852   4.708  24.099  0.00  0.00    +0.002 C 
ATOM     26  C   UNL     1      -1.845   4.815  25.239  0.00  0.00    +0.000 C 
ENDBRANCH   6  18
ENDBRANCH   2  20
ENDBRANCH  15   2
ENDBRANCH  10  15
TORSDOF 6
ENDMDL
MODEL 3
REMARK VINA RESULT:       2.5      2.573      6.150
REMARK  Name = 40776883
REMARK  7 active torsions:
REMARK  status: ('A' for Active; 'I' for Inactive)
REMARK    1  A    between atoms: O_2  and  C_15
REMARK    2  A    between atoms: O_2  and  C_20
REMARK    3  A    between atoms: N_6  and  C_18
REMARK    4  A    between atoms: C_9  and  C_16
REMARK    5  A    between atoms: C_10  and  C_15
REMARK    6  A    between atoms: C_19  and  C_27
REMARK    7  A    between atoms: C_21  and  C_28
REMARK                            x       y       z     vdW  Elec       q    Type
REMARK                         _______ _______ _______ _____ _____    ______ ____
ROOT
ATOM      4  N   UNL     1      -3.929  -1.618  25.853  0.00  0.00    -0.296 NA
ATOM      8  C   UNL     1      -2.607  -2.406  23.752  0.00  0.00    +0.002 C 
ATOM      9  C   UNL     1      -1.685  -1.588  24.699  0.00  0.00    +0.055 C 
ATOM     10  C   UNL     1      -4.686  -1.278  24.618  0.00  0.00    +0.095 C 
ATOM     11  C   UNL     1      -3.829  -1.548  23.362  0.00  0.00    +0.026 C 
ATOM     12  C   UNL     1      -3.135  -3.604  24.570  0.00  0.00    +0.019 C 
ATOM     13  C   UNL     1      -2.586  -0.986  25.816  0.00  0.00    +0.094 C 
ATOM     14  C   UNL     1      -3.749  -3.088  25.884  0.00  0.00    +0.085 C 
ENDROOT
BRANCH   9  16
ATOM      5  N   UNL     1      -1.341   0.567  23.597  0.00  0.00    -0.237 NA
ATOM      7  N   UNL     1       0.847   1.348  22.959  0.00  0.00    -0.232 NA
ATOM     16  C   UNL     1      -0.761  -0.550  24.082  0.00  0.00    +0.050 A 
ATOM     17  C   UNL     1       0.599  -0.787  24.042  0.00  0.00    +0.052 A 
ATOM     19  C   UNL     1       1.361   0.208  23.463  0.00  0.00    +0.075 A 
ATOM     21  C   UNL     1      -0.491   1.462  23.057  0.00  0.00    +0.127 A 
ATOM     28  C   UNL     1      -1.096   2.710  22.510  0.00  0.00    +0.088 C 
BRANCH  19  27
ATOM      1  F   UNL     1       6.897  -0.282  23.059  0.00  0.00    -0.205 F 
ATOM     27  C   UNL     1       2.795   0.081  23.358  0.00  0.00    +0.001 A 
ATOM     29  C   UNL     1       3.551   1.124  22.823  0.00  0.00    +0.013 A 
ATOM     30  C   UNL     1       3.426  -1.085  23.792  0.00  0.00    +0.013 A 
ATOM     31  C   UNL     1       4.936   1.002  22.722  0.00  0.00    +0.039 A 
ATOM     32  C   UNL     1       4.811  -1.208  23.691  0.00  0.00    +0.039 A 
ATOM     33  C   UNL     1       5.566  -0.164  23.156  0.00  0.00    +0.123 A 
ENDBRANCH  19  27
ENDBRANCH   9  16
BRANCH  10  15
ATOM     15  C   UNL     1      -5.226   0.153  24.642  0.00  0.00    +0.252 C 
BRANCH  15   2
ATOM      2  O   UNL     1      -4.157   1.039  24.369  0.00  0.00    -0.449 OA
BRANCH   2  20
ATOM      3  O   UNL     1      -4.954   2.802  25.606  0.00  0.00    -0.226 OA
ATOM      6  N   UNL     1      -2.692   2.291  25.550  0.00  0.00    -0.278 N 
ATOM     20  C   UNL     1      -4.018   2.112  25.215  0.00  0.00    +0.401 C 
ATOM     34  H   UNL     1      -2.025   1.616  25.189  0.00  0.00    +0.152 HD
BRANCH   6  18
ATOM     18  C   UNL     1      -2.219   3.339  26.427  0.00  0.00    +0.076 C 
ATOM     22  C   UNL     1      -0.688   3.336  26.511  0.00  0.00    +0.022 C 
ATOM     23  C   UNL     1      -2.749   4.707  25.987  0.00  0.00    +0.022 C 
ATOM     24  C   UNL     1      -0.032   3.837  25.224  0.00  0.00    +0.002 C 
ATOM     25  C   UNL     1      -2.089   5.204  24.701  0.00  0.00    +0.002 C 
ATOM     26  C   UNL     1      -0.568   5.204  24.813  0.00  0.00    +0.000 C 
ENDBRANCH   6  18
ENDBRANCH   2  20
ENDBRANCH  15   2
ENDBRANCH  10  15
TORSDOF 6
ENDMDL
MODEL 4
REMARK VINA RESULT:       4.0      1.430      2.137
REMARK  Name = 40776883
REMARK  7 active torsions:
REMARK  status: ('A' for Active; 'I' for Inactive)
REMARK    1  A    between atoms: O_2  and  C_15
REMARK    2  A    between atoms: O_2  and  C_20
REMARK    3  A    between atoms: N_6  and  C_18
REMARK    4  A    between atoms: C_9  and  C_16
REMARK    5  A    between atoms: C_10  and  C_15
REMARK    6  A    between atoms: C_19  and  C_27
REMARK    7  A    between atoms: C_21  and  C_28
REMARK                            x       y       z     vdW  Elec       q    Type
REMARK                         _______ _______ _______ _____ _____    ______ ____
ROOT
ATOM      4  N   UNL     1      -1.825  -2.715  23.809  0.00  0.00    -0.296 NA
ATOM      8  C   UNL     1      -4.083  -2.337  25.051  0.00  0.00    +0.002 C 
ATOM      9  C   UNL     1      -3.835  -1.204  24.017  0.00  0.00    +0.055 C 
ATOM     10  C   UNL     1      -1.622  -2.820  25.279  0.00  0.00    +0.095 C 
ATOM     11  C   UNL     1      -2.898  -2.397  26.038  0.00  0.00    +0.026 C 
ATOM     12  C   UNL     1      -4.086  -3.665  24.264  0.00  0.00    +0.019 C 
ATOM     13  C   UNL     1      -2.390  -1.386  23.468  0.00  0.00    +0.094 C 
ATOM     14  C   UNL     1      -2.806  -3.752  23.412  0.00  0.00    +0.085 C 
ENDROOT
BRANCH   9  16
ATOM      5  N   UNL     1      -5.363   0.500  24.876  0.00  0.00    -0.237 NA
ATOM      7  N   UNL     1      -4.679   2.786  25.213  0.00  0.00    -0.232 NA
ATOM     16  C   UNL     1      -4.115   0.230  24.441  0.00  0.00    +0.050 A 
ATOM     17  C   UNL     1      -3.109   1.171  24.364  0.00  0.00    +0.052 A 
ATOM     19  C   UNL     1      -3.452   2.446  24.768  0.00  0.00    +0.075 A 
ATOM     21  C   UNL     1      -5.574   1.780  25.241  0.00  0.00    +0.127 A 
ATOM     28  C   UNL     1      -6.942   2.118  25.727  0.00  0.00    +0.088 C 
BRANCH  19  27
ATOM      1  F   UNL     1       0.258   6.602  24.639  0.00  0.00    -0.205 F 
ATOM     27  C   UNL     1      -2.491   3.522  24.734  0.00  0.00    +0.001 A 
ATOM     29  C   UNL     1      -1.345   3.410  23.946  0.00  0.00    +0.013 A 
ATOM     30  C   UNL     1      -2.708   4.674  25.490  0.00  0.00    +0.013 A 
ATOM     31  C   UNL     1      -0.417   4.451  23.914  0.00  0.00    +0.039 A 
ATOM     32  C   UNL     1      -1.779   5.714  25.458  0.00  0.00    +0.039 A 
ATOM     33  C   UNL     1      -0.634   5.603  24.670  0.00  0.00    +0.123 A 
ENDBRANCH  19  27
ENDBRANCH   9  16
BRANCH  10  15
ATOM     15  C   UNL     1      -0.393  -2.043  25.754  0.00  0.00    +0.252 C 
BRANCH  15   2
ATOM      2  O   UNL     1      -0.826  -0.810  26.294  0.00  0.00    -0.449 OA
BRANCH   2  20
ATOM      3  O   UNL     1      -0.438   1.448  26.135  0.00  0.00    -0.226 OA
ATOM      6  N   UNL     1       0.035   0.015  24.374  0.00  0.00    -0.278 N 
ATOM     20  C   UNL     1      -0.410   0.326  25.641  0.00  0.00    +0.401 C 
ATOM     34  H   UNL     1       0.045  -0.965  24.110  0.00  0.00    +0.152 HD
BRANCH   6  18
ATOM     18  C   UNL     1       0.538   0.994  23.436  0.00  0.00    +0.076 C 
ATOM     22  C   UNL     1       2.022   1.283  23.685  0.00  0.00    +0.022 C 
ATOM     23  C   UNL     1       0.294   0.549  21.990  0.00  0.00    +0.022 C 
ATOM     24  C   UNL     1       2.922   0.120  23.267  0.00  0.00    +0.002 C 
ATOM     25  C   UNL     1       1.197  -0.613  21.575  0.00  0.00    +0.002 C 
ATOM     26  C   UNL     1       2.669  -0.297  21.822  0.00  0.00    +0.000 C 
ENDBRANCH   6  18
ENDBRANCH   2  20
ENDBRANCH  15   2
ENDBRANCH  10  15
TORSDOF 6
ENDMDL
MODEL 5
REMARK VINA RESULT:       4.9      2.597      6.929
REMARK  Name = 40776883
REMARK  7 active torsions:
REMARK  status: ('A' for Active; 'I' for Inactive)
REMARK    1  A    between atoms: O_2  and  C_15
REMARK    2  A    between atoms: O_2  and  C_20
REMARK    3  A    between atoms: N_6  and  C_18
REMARK    4  A    between atoms: C_9  and  C_16
REMARK    5  A    between atoms: C_10  and  C_15
REMARK    6  A    between atoms: C_19  and  C_27
REMARK    7  A    between atoms: C_21  and  C_28
REMARK                            x       y       z     vdW  Elec       q    Type
REMARK                         _______ _______ _______ _____ _____    ______ ____
ROOT
ATOM      4  N   UNL     1      -2.672   4.682  24.181  0.00  0.00    -0.296 NA
ATOM      8  C   UNL     1      -1.460   3.141  25.896  0.00  0.00    +0.002 C 
ATOM      9  C   UNL     1      -0.645   3.231  24.576  0.00  0.00    +0.055 C 
ATOM     10  C   UNL     1      -3.625   3.679  24.728  0.00  0.00    +0.095 C 
ATOM     11  C   UNL     1      -2.883   2.632  25.585  0.00  0.00    +0.026 C 
ATOM     12  C   UNL     1      -1.600   4.582  26.431  0.00  0.00    +0.019 C 
ATOM     13  C   UNL     1      -1.523   3.993  23.541  0.00  0.00    +0.094 C 
ATOM     14  C   UNL     1      -2.158   5.485  25.316  0.00  0.00    +0.085 C 
ENDROOT
BRANCH   9  16
ATOM      5  N   UNL     1      -0.939   1.042  23.527  0.00  0.00    -0.237 NA
ATOM      7  N   UNL     1       0.927  -0.374  22.965  0.00  0.00    -0.232 NA
ATOM     16  C   UNL     1      -0.061   1.949  24.003  0.00  0.00    +0.050 A 
ATOM     17  C   UNL     1       1.307   1.768  23.994  0.00  0.00    +0.052 A 
ATOM     19  C   UNL     1       1.748   0.576  23.458  0.00  0.00    +0.075 A 
ATOM     21  C   UNL     1      -0.386  -0.081  23.029  0.00  0.00    +0.127 A 
ATOM     28  C   UNL     1      -1.325  -1.107  22.495  0.00  0.00    +0.088 C 
BRANCH  19  27
ATOM      1  F   UNL     1       7.183  -0.628  23.205  0.00  0.00    -0.205 F 
ATOM     27  C   UNL     1       3.157   0.264  23.392  0.00  0.00    +0.001 A 
ATOM     29  C   UNL     1       4.069   1.238  22.987  0.00  0.00    +0.013 A 
ATOM     30  C   UNL     1       3.605  -1.012  23.733  0.00  0.00    +0.013 A 
ATOM     31  C   UNL     1       5.429   0.937  22.924  0.00  0.00    +0.039 A 
ATOM     32  C   UNL     1       4.965  -1.313  23.670  0.00  0.00    +0.039 A 
ATOM     33  C   UNL     1       5.877  -0.339  23.265  0.00  0.00    +0.123 A 
ENDBRANCH  19  27
ENDBRANCH   9  16
BRANCH  10  15
ATOM     15  C   UNL     1      -4.472   3.024  23.635  0.00  0.00    +0.252 C 
BRANCH  15   2
ATOM      2  O   UNL     1      -4.031   1.691  23.467  0.00  0.00    -0.449 OA
BRANCH   2  20
ATOM      3  O   UNL     1      -5.515   0.781  24.965  0.00  0.00    -0.226 OA
ATOM      6  N   UNL     1      -3.373  -0.073  24.717  0.00  0.00    -0.278 N 
ATOM     20  C   UNL     1      -4.408   0.793  24.436  0.00  0.00    +0.401 C 
ATOM     34  H   UNL     1      -2.523   0.023  24.170  0.00  0.00    +0.152 HD
BRANCH   6  18
ATOM     18  C   UNL     1      -3.456  -1.135  25.695  0.00  0.00    +0.076 C 
ATOM     22  C   UNL     1      -3.590  -2.501  25.013  0.00  0.00    +0.022 C 
ATOM     23  C   UNL     1      -2.256  -1.105  26.646  0.00  0.00    +0.022 C 
ATOM     24  C   UNL     1      -2.292  -2.948  24.339  0.00  0.00    +0.002 C 
ATOM     25  C   UNL     1      -0.961  -1.553  25.969  0.00  0.00    +0.002 C 
ATOM     26  C   UNL     1      -1.115  -2.919  25.308  0.00  0.00    +0.000 C 
ENDBRANCH   6  18
ENDBRANCH   2  20
ENDBRANCH  15   2
ENDBRANCH  10  15
TORSDOF 6
ENDMDL
MODEL 6
REMARK VINA RESULT:       5.2      2.616      6.296
REMARK  Name = 40776883
REMARK  7 active torsions:
REMARK  status: ('A' for Active; 'I' for Inactive)
REMARK    1  A    between atoms: O_2  and  C_15
REMARK    2  A    between atoms: O_2  and  C_20
REMARK    3  A    between atoms: N_6  and  C_18
REMARK    4  A    between atoms: C_9  and  C_16
REMARK    5  A    between atoms: C_10  and  C_15
REMARK    6  A    between atoms: C_19  and  C_27
REMARK    7  A    between atoms: C_21  and  C_28
REMARK                            x       y       z     vdW  Elec       q    Type
REMARK                         _______ _______ _______ _____ _____    ______ ____
ROOT
ATOM      4  N   UNL     1      -5.079   3.231  24.183  0.00  0.00    -0.296 NA
ATOM      8  C   UNL     1      -3.621   4.350  26.028  0.00  0.00    +0.002 C 
ATOM      9  C   UNL     1      -2.729   3.852  24.856  0.00  0.00    +0.055 C 
ATOM     10  C   UNL     1      -5.424   2.668  25.515  0.00  0.00    +0.095 C 
ATOM     11  C   UNL     1      -4.433   3.164  26.590  0.00  0.00    +0.026 C 
ATOM     12  C   UNL     1      -4.632   5.348  25.424  0.00  0.00    +0.019 C 
ATOM     13  C   UNL     1      -3.636   3.024  23.902  0.00  0.00    +0.094 C 
ATOM     14  C   UNL     1      -5.339   4.689  24.225  0.00  0.00    +0.085 C 
ENDROOT
BRANCH   9  16
ATOM      5  N   UNL     1      -1.090   3.081  26.499  0.00  0.00    -0.237 NA
ATOM      7  N   UNL     1       0.876   1.839  25.867  0.00  0.00    -0.232 NA
ATOM     16  C   UNL     1      -1.436   3.126  25.196  0.00  0.00    +0.050 A 
ATOM     17  C   UNL     1      -0.687   2.559  24.184  0.00  0.00    +0.052 A 
ATOM     19  C   UNL     1       0.470   1.922  24.584  0.00  0.00    +0.075 A 
ATOM     21  C   UNL     1       0.061   2.431  26.761  0.00  0.00    +0.127 A 
ATOM     28  C   UNL     1       0.477   2.362  28.191  0.00  0.00    +0.088 C 
BRANCH  19  27
ATOM      1  F   UNL     1       3.834  -0.521  20.873  0.00  0.00    -0.205 F 
ATOM     27  C   UNL     1       1.342   1.289  23.622  0.00  0.00    +0.001 A 
ATOM     29  C   UNL     1       2.692   1.637  23.569  0.00  0.00    +0.013 A 
ATOM     30  C   UNL     1       0.834   0.330  22.746  0.00  0.00    +0.013 A 
ATOM     31  C   UNL     1       3.534   1.026  22.641  0.00  0.00    +0.039 A 
ATOM     32  C   UNL     1       1.676  -0.282  21.818  0.00  0.00    +0.039 A 
ATOM     33  C   UNL     1       3.026   0.066  21.765  0.00  0.00    +0.123 A 
ENDBRANCH  19  27
ENDBRANCH   9  16
BRANCH  10  15
ATOM     15  C   UNL     1      -5.525   1.141  25.494  0.00  0.00    +0.252 C 
BRANCH  15   2
ATOM      2  O   UNL     1      -5.039   0.680  24.249  0.00  0.00    -0.449 OA
BRANCH   2  20
ATOM      3  O   UNL     1      -4.345  -1.274  23.261  0.00  0.00    -0.226 OA
ATOM      6  N   UNL     1      -3.923  -0.837  25.499  0.00  0.00    -0.278 N 
ATOM     20  C   UNL     1      -4.425  -0.550  24.247  0.00  0.00    +0.401 C 
ATOM     34  H   UNL     1      -4.021  -0.124  26.216  0.00  0.00    +0.152 HD
BRANCH   6  18
ATOM     18  C   UNL     1      -3.220  -2.058  25.822  0.00  0.00    +0.076 C 
ATOM     22  C   UNL     1      -2.557  -2.658  24.577  0.00  0.00    +0.022 C 
ATOM     23  C   UNL     1      -2.197  -1.826  26.939  0.00  0.00    +0.022 C 
ATOM     24  C   UNL     1      -1.348  -1.845  24.111  0.00  0.00    +0.002 C 
ATOM     25  C   UNL     1      -0.989  -1.016  26.468  0.00  0.00    +0.002 C 
ATOM     26  C   UNL     1      -0.340  -1.638  25.236  0.00  0.00    +0.000 C 
ENDBRANCH   6  18
ENDBRANCH   2  20
ENDBRANCH  15   2
ENDBRANCH  10  15
TORSDOF 6
ENDMDL
