MODEL 1
REMARK VINA RESULT:      -1.9      0.000      0.000
REMARK  Name = 45784195
REMARK  4 active torsions:
REMARK  status: ('A' for Active; 'I' for Inactive)
REMARK    1  A    between atoms: N_4  and  C_10
REMARK    2  A    between atoms: C_6  and  C_11
REMARK    3  A    between atoms: C_10  and  C_12
REMARK    4  A    between atoms: C_22  and  C_25
REMARK                            x       y       z     vdW  Elec       q    Type
REMARK                         _______ _______ _______ _____ _____    ______ ____
ROOT
ATOM      4  N   UNL     1      -4.149  -0.610  24.614  0.00  0.00    -0.297 NA
ATOM      6  C   UNL     1      -2.014  -1.399  24.054  0.00  0.00    +0.090 C 
ATOM      7  C   UNL     1      -3.042  -0.315  23.703  0.00  0.00    +0.097 C 
ATOM      8  C   UNL     1      -2.345  -1.795  25.503  0.00  0.00    +0.029 C 
ATOM      9  C   UNL     1      -3.514  -0.902  25.899  0.00  0.00    +0.085 C 
ENDROOT
BRANCH   6  11
ATOM      1  O   UNL     1      -0.409   0.381  23.612  0.00  0.00    -0.439 OA
ATOM      5  N   UNL     1       0.505  -1.682  23.813  0.00  0.00    -0.213 NA
ATOM     11  C   UNL     1      -0.587  -0.952  23.828  0.00  0.00    +0.201 A 
ATOM     13  C   UNL     1       1.496  -0.763  23.566  0.00  0.00    +0.110 A 
ATOM     14  C   UNL     1       0.940   0.501  23.443  0.00  0.00    +0.155 A 
ATOM     18  C   UNL     1       2.886  -0.910  23.433  0.00  0.00    +0.035 A 
ATOM     21  C   UNL     1       1.661   1.662  23.191  0.00  0.00    +0.049 A 
ATOM     22  C   UNL     1       3.647   0.241  23.177  0.00  0.00    -0.048 A 
ATOM     23  C   UNL     1       3.045   1.499  23.060  0.00  0.00    +0.007 A 
ATOM     25  C   UNL     1       5.129   0.117  23.030  0.00  0.00    +0.044 C 
ENDBRANCH   6  11
BRANCH   4  10
ATOM     10  C   UNL     1      -5.102   0.486  24.704  0.00  0.00    +0.119 C 
BRANCH  10  12
ATOM      2  O   UNL     1      -1.283   3.626  24.518  0.00  0.00    -0.453 OA
ATOM      3  O   UNL     1      -2.467   5.326  25.751  0.00  0.00    -0.453 OA
ATOM     12  C   UNL     1      -4.425   1.796  25.004  0.00  0.00    -0.030 A 
ATOM     15  C   UNL     1      -3.117   2.018  24.564  0.00  0.00    +0.054 A 
ATOM     16  C   UNL     1      -5.115   2.787  25.724  0.00  0.00    +0.009 A 
ATOM     17  C   UNL     1      -2.541   3.235  24.861  0.00  0.00    +0.167 A 
ATOM     19  C   UNL     1      -4.508   4.011  26.011  0.00  0.00    +0.050 A 
ATOM     20  C   UNL     1      -3.216   4.205  25.566  0.00  0.00    +0.166 A 
ATOM     24  C   UNL     1      -1.244   4.953  25.085  0.00  0.00    +0.466 C 
ENDBRANCH  10  12
ENDBRANCH   4  10
TORSDOF 3
ENDMDL
MODEL 2
REMARK VINA RESULT:      -0.4      2.182      4.468
REMARK  Name = 45784195
REMARK  4 active torsions:
REMARK  status: ('A' for Active; 'I' for Inactive)
REMARK    1  A    between atoms: N_4  and  C_10
REMARK    2  A    between atoms: C_6  and  C_11
REMARK    3  A    between atoms: C_10  and  C_12
REMARK    4  A    between atoms: C_22  and  C_25
REMARK                            x       y       z     vdW  Elec       q    Type
REMARK                         _______ _______ _______ _____ _____    ______ ____
ROOT
ATOM      4  N   UNL     1      -3.890   2.626  25.035  0.00  0.00    -0.297 NA
ATOM      6  C   UNL     1      -1.622   3.018  24.587  0.00  0.00    +0.090 C 
ATOM      7  C   UNL     1      -2.569   2.068  25.332  0.00  0.00    +0.097 C 
ATOM      8  C   UNL     1      -2.481   3.621  23.462  0.00  0.00    +0.029 C 
ATOM      9  C   UNL     1      -3.846   2.963  23.612  0.00  0.00    +0.085 C 
ENDROOT
BRANCH   6  11
ATOM      1  O   UNL     1      -0.511   1.126  23.527  0.00  0.00    -0.439 OA
ATOM      5  N   UNL     1       0.885   2.770  24.221  0.00  0.00    -0.213 NA
ATOM     11  C   UNL     1      -0.353   2.341  24.124  0.00  0.00    +0.201 A 
ATOM     13  C   UNL     1       1.617   1.761  23.643  0.00  0.00    +0.110 A 
ATOM     14  C   UNL     1       0.765   0.753  23.217  0.00  0.00    +0.155 A 
ATOM     18  C   UNL     1       2.997   1.616  23.436  0.00  0.00    +0.035 A 
ATOM     21  C   UNL     1       1.175  -0.417  22.589  0.00  0.00    +0.049 A 
ATOM     22  C   UNL     1       3.448   0.447  22.805  0.00  0.00    -0.048 A 
ATOM     23  C   UNL     1       2.554  -0.547  22.390  0.00  0.00    +0.007 A 
ATOM     25  C   UNL     1       4.913   0.263  22.571  0.00  0.00    +0.044 C 
ENDBRANCH   6  11
BRANCH   4  10
ATOM     10  C   UNL     1      -4.968   1.702  25.352  0.00  0.00    +0.119 C 
BRANCH  10  12
ATOM      2  O   UNL     1      -4.499  -2.629  23.004  0.00  0.00    -0.453 OA
ATOM      3  O   UNL     1      -3.361  -3.651  24.866  0.00  0.00    -0.453 OA
ATOM     12  C   UNL     1      -4.524   0.267  25.257  0.00  0.00    -0.030 A 
ATOM     15  C   UNL     1      -4.773  -0.460  24.090  0.00  0.00    +0.054 A 
ATOM     16  C   UNL     1      -3.861  -0.330  26.344  0.00  0.00    +0.009 A 
ATOM     17  C   UNL     1      -4.345  -1.771  24.049  0.00  0.00    +0.167 A 
ATOM     19  C   UNL     1      -3.438  -1.659  26.276  0.00  0.00    +0.050 A 
ATOM     20  C   UNL     1      -3.696  -2.355  25.113  0.00  0.00    +0.166 A 
ATOM     24  C   UNL     1      -3.873  -3.818  23.529  0.00  0.00    +0.466 C 
ENDBRANCH  10  12
ENDBRANCH   4  10
TORSDOF 3
ENDMDL
MODEL 3
REMARK VINA RESULT:      -0.1      1.497      2.115
REMARK  Name = 45784195
REMARK  4 active torsions:
REMARK  status: ('A' for Active; 'I' for Inactive)
REMARK    1  A    between atoms: N_4  and  C_10
REMARK    2  A    between atoms: C_6  and  C_11
REMARK    3  A    between atoms: C_10  and  C_12
REMARK    4  A    between atoms: C_22  and  C_25
REMARK                            x       y       z     vdW  Elec       q    Type
REMARK                         _______ _______ _______ _____ _____    ______ ____
ROOT
ATOM      4  N   UNL     1      -3.190  -1.686  24.742  0.00  0.00    -0.297 NA
ATOM      6  C   UNL     1      -0.884  -2.087  24.869  0.00  0.00    +0.090 C 
ATOM      7  C   UNL     1      -2.013  -1.782  23.876  0.00  0.00    +0.097 C 
ATOM      8  C   UNL     1      -1.384  -1.526  26.212  0.00  0.00    +0.029 C 
ATOM      9  C   UNL     1      -2.744  -0.915  25.902  0.00  0.00    +0.085 C 
ENDROOT
BRANCH   6  11
ATOM      1  O   UNL     1       0.424  -0.397  23.698  0.00  0.00    -0.439 OA
ATOM      5  N   UNL     1       1.651  -2.058  24.630  0.00  0.00    -0.213 NA
ATOM     11  C   UNL     1       0.457  -1.553  24.418  0.00  0.00    +0.201 A 
ATOM     13  C   UNL     1       2.487  -1.169  24.000  0.00  0.00    +0.110 A 
ATOM     14  C   UNL     1       1.740  -0.150  23.429  0.00  0.00    +0.155 A 
ATOM     18  C   UNL     1       3.884  -1.144  23.863  0.00  0.00    +0.035 A 
ATOM     21  C   UNL     1       2.271   0.917  22.714  0.00  0.00    +0.049 A 
ATOM     22  C   UNL     1       4.456  -0.082  23.148  0.00  0.00    -0.048 A 
ATOM     23  C   UNL     1       3.664   0.927  22.587  0.00  0.00    +0.007 A 
ATOM     25  C   UNL     1       5.940  -0.028  22.985  0.00  0.00    +0.044 C 
ENDBRANCH   6  11
BRANCH   4  10
ATOM     10  C   UNL     1      -4.325  -1.071  24.071  0.00  0.00    +0.119 C 
BRANCH  10  12
ATOM      2  O   UNL     1      -5.916   3.230  25.931  0.00  0.00    -0.453 OA
ATOM      3  O   UNL     1      -4.346   4.511  24.625  0.00  0.00    -0.453 OA
ATOM     12  C   UNL     1      -4.304   0.429  24.193  0.00  0.00    -0.030 A 
ATOM     15  C   UNL     1      -5.193   1.067  25.064  0.00  0.00    +0.054 A 
ATOM     16  C   UNL     1      -3.389   1.177  23.432  0.00  0.00    +0.009 A 
ATOM     17  C   UNL     1      -5.133   2.442  25.144  0.00  0.00    +0.167 A 
ATOM     19  C   UNL     1      -3.350   2.569  23.532  0.00  0.00    +0.050 A 
ATOM     20  C   UNL     1      -4.238   3.174  24.398  0.00  0.00    +0.166 A 
ATOM     24  C   UNL     1      -5.411   4.540  25.597  0.00  0.00    +0.466 C 
ENDBRANCH  10  12
ENDBRANCH   4  10
TORSDOF 3
ENDMDL
MODEL 4
REMARK VINA RESULT:       1.6      2.342      4.875
REMARK  Name = 45784195
REMARK  4 active torsions:
REMARK  status: ('A' for Active; 'I' for Inactive)
REMARK    1  A    between atoms: N_4  and  C_10
REMARK    2  A    between atoms: C_6  and  C_11
REMARK    3  A    between atoms: C_10  and  C_12
REMARK    4  A    between atoms: C_22  and  C_25
REMARK                            x       y       z     vdW  Elec       q    Type
REMARK                         _______ _______ _______ _____ _____    ______ ____
ROOT
ATOM      4  N   UNL     1      -0.159   3.636  25.187  0.00  0.00    -0.297 NA
ATOM      6  C   UNL     1       0.001   1.300  25.070  0.00  0.00    +0.090 C 
ATOM      7  C   UNL     1      -0.866   2.434  25.633  0.00  0.00    +0.097 C 
ATOM      8  C   UNL     1       0.731   1.927  23.869  0.00  0.00    +0.029 C 
ATOM      9  C   UNL     1       0.219   3.360  23.801  0.00  0.00    +0.085 C 
ENDROOT
BRANCH   6  11
ATOM      1  O   UNL     1      -2.143   0.152  24.910  0.00  0.00    -0.439 OA
ATOM      5  N   UNL     1      -0.352  -1.113  24.339  0.00  0.00    -0.213 NA
ATOM     11  C   UNL     1      -0.793   0.054  24.750  0.00  0.00    +0.201 A 
ATOM     13  C   UNL     1      -1.499  -1.858  24.212  0.00  0.00    +0.110 A 
ATOM     14  C   UNL     1      -2.597  -1.086  24.560  0.00  0.00    +0.155 A 
ATOM     18  C   UNL     1      -1.703  -3.187  23.809  0.00  0.00    +0.035 A 
ATOM     21  C   UNL     1      -3.914  -1.531  24.545  0.00  0.00    +0.049 A 
ATOM     22  C   UNL     1      -3.020  -3.671  23.782  0.00  0.00    -0.048 A 
ATOM     23  C   UNL     1      -4.101  -2.858  24.142  0.00  0.00    +0.007 A 
ATOM     25  C   UNL     1      -3.270  -5.081  23.357  0.00  0.00    +0.044 C 
ENDBRANCH   6  11
BRANCH   4  10
ATOM     10  C   UNL     1      -0.972   4.837  25.311  0.00  0.00    +0.119 C 
BRANCH  10  12
ATOM      2  O   UNL     1      -5.002   2.135  24.338  0.00  0.00    -0.453 OA
ATOM      3  O   UNL     1      -6.409   3.517  25.724  0.00  0.00    -0.453 OA
ATOM     12  C   UNL     1      -2.436   4.513  25.443  0.00  0.00    -0.030 A 
ATOM     15  C   UNL     1      -2.967   3.413  24.765  0.00  0.00    +0.054 A 
ATOM     16  C   UNL     1      -3.257   5.320  26.251  0.00  0.00    +0.009 A 
ATOM     17  C   UNL     1      -4.313   3.155  24.920  0.00  0.00    +0.167 A 
ATOM     19  C   UNL     1      -4.617   5.036  26.390  0.00  0.00    +0.050 A 
ATOM     20  C   UNL     1      -5.117   3.945  25.709  0.00  0.00    +0.166 A 
ATOM     24  C   UNL     1      -6.329   2.371  24.853  0.00  0.00    +0.466 C 
ENDBRANCH  10  12
ENDBRANCH   4  10
TORSDOF 3
ENDMDL
MODEL 5
REMARK VINA RESULT:       1.6      1.874      6.422
REMARK  Name = 45784195
REMARK  4 active torsions:
REMARK  status: ('A' for Active; 'I' for Inactive)
REMARK    1  A    between atoms: N_4  and  C_10
REMARK    2  A    between atoms: C_6  and  C_11
REMARK    3  A    between atoms: C_10  and  C_12
REMARK    4  A    between atoms: C_22  and  C_25
REMARK                            x       y       z     vdW  Elec       q    Type
REMARK                         _______ _______ _______ _____ _____    ______ ____
ROOT
ATOM      4  N   UNL     1      -2.253  -2.478  24.926  0.00  0.00    -0.297 NA
ATOM      6  C   UNL     1      -4.059  -1.034  25.314  0.00  0.00    +0.090 C 
ATOM      7  C   UNL     1      -2.574  -1.241  25.641  0.00  0.00    +0.097 C 
ATOM      8  C   UNL     1      -4.274  -1.782  23.987  0.00  0.00    +0.029 C 
ATOM      9  C   UNL     1      -2.905  -2.341  23.623  0.00  0.00    +0.085 C 
ENDROOT
BRANCH   6  11
ATOM      1  O   UNL     1      -3.546   1.284  24.765  0.00  0.00    -0.439 OA
ATOM      5  N   UNL     1      -5.576   0.970  25.721  0.00  0.00    -0.213 NA
ATOM     11  C   UNL     1      -4.460   0.423  25.294  0.00  0.00    +0.201 A 
ATOM     13  C   UNL     1      -5.396   2.306  25.457  0.00  0.00    +0.110 A 
ATOM     14  C   UNL     1      -4.154   2.502  24.871  0.00  0.00    +0.155 A 
ATOM     18  C   UNL     1      -6.225   3.416  25.677  0.00  0.00    +0.035 A 
ATOM     21  C   UNL     1      -3.651   3.735  24.477  0.00  0.00    +0.049 A 
ATOM     22  C   UNL     1      -5.751   4.679  25.291  0.00  0.00    -0.048 A 
ATOM     23  C   UNL     1      -4.490   4.833  24.702  0.00  0.00    +0.007 A 
ATOM     25  C   UNL     1      -6.611   5.880  25.512  0.00  0.00    +0.044 C 
ENDBRANCH   6  11
BRANCH   4  10
ATOM     10  C   UNL     1      -0.819  -2.695  24.807  0.00  0.00    +0.119 C 
BRANCH  10  12
ATOM      2  O   UNL     1       2.860  -0.175  22.663  0.00  0.00    -0.453 OA
ATOM      3  O   UNL     1       2.004   1.948  23.418  0.00  0.00    -0.453 OA
ATOM     12  C   UNL     1      -0.086  -1.429  24.455  0.00  0.00    -0.030 A 
ATOM     15  C   UNL     1       1.082  -1.494  23.690  0.00  0.00    +0.054 A 
ATOM     16  C   UNL     1      -0.585  -0.190  24.895  0.00  0.00    +0.009 A 
ATOM     17  C   UNL     1       1.717  -0.307  23.390  0.00  0.00    +0.167 A 
ATOM     19  C   UNL     1       0.078   0.997  24.576  0.00  0.00    +0.050 A 
ATOM     20  C   UNL     1       1.229   0.905  23.822  0.00  0.00    +0.166 A 
ATOM     24  C   UNL     1       3.036   1.257  22.685  0.00  0.00    +0.466 C 
ENDBRANCH  10  12
ENDBRANCH   4  10
TORSDOF 3
ENDMDL
