MODEL 1
REMARK VINA RESULT:      -4.3      0.000      0.000
REMARK  Name = 7156584
REMARK  4 active torsions:
REMARK  status: ('A' for Active; 'I' for Inactive)
REMARK    1  A    between atoms: S_2  and  N_7
REMARK    2  A    between atoms: S_2  and  C_16
REMARK    3  A    between atoms: N_9  and  C_17
REMARK    4  A    between atoms: C_26  and  C_28
REMARK                            x       y       z     vdW  Elec       q    Type
REMARK                         _______ _______ _______ _____ _____    ______ ____
ROOT
ATOM      3  O   UNL     1      -6.822 -10.189  12.885  0.00  0.00    -0.273 OA
ATOM      6  O   UNL     1      -9.985  -8.582  15.975  0.00  0.00    -0.252 OA
ATOM      7  N   UNL     1      -8.616  -9.988  10.925  0.00  0.00    -0.163 NA
ATOM      8  N   UNL     1     -10.524  -8.795  13.792  0.00  0.00    -0.294 N 
ATOM      9  N   UNL     1      -8.354  -9.439  14.507  0.00  0.00    -0.193 N 
ATOM     10  C   UNL     1     -10.249  -9.154  12.433  0.00  0.00    +0.103 C 
ATOM     11  C   UNL     1      -8.777  -9.069  12.096  0.00  0.00    +0.186 C 
ATOM     12  C   UNL     1     -10.613 -10.588  12.079  0.00  0.00    +0.041 C 
ATOM     13  C   UNL     1      -9.872 -10.781  10.764  0.00  0.00    +0.112 C 
ATOM     14  C   UNL     1      -7.876  -9.624  13.185  0.00  0.00    +0.248 C 
ATOM     15  C   UNL     1      -9.640  -8.937  14.843  0.00  0.00    +0.313 C 
ATOM     29  H   UNL     1     -11.450  -8.436  14.007  0.00  0.00    +0.151 HD
ENDROOT
BRANCH   9  17
ATOM     17  C   UNL     1      -7.463  -9.780  15.600  0.00  0.00    +0.045 A 
ATOM     20  C   UNL     1      -7.973 -10.409  16.728  0.00  0.00    +0.024 A 
ATOM     21  C   UNL     1      -6.114  -9.470  15.504  0.00  0.00    +0.024 A 
ATOM     24  C   UNL     1      -7.115 -10.735  17.779  0.00  0.00    +0.005 A 
ATOM     25  C   UNL     1      -5.256  -9.797  16.554  0.00  0.00    +0.005 A 
ATOM     26  C   UNL     1      -5.757 -10.430  17.692  0.00  0.00    -0.050 A 
ATOM     28  C   UNL     1      -4.841 -10.779  18.815  0.00  0.00    +0.044 C 
ENDBRANCH   9  17
BRANCH   7   2
ATOM      2  S   UNL     1      -7.906  -9.357   9.514  0.00  0.00    +0.062 S 
ATOM      4  O   UNL     1      -8.249  -7.954   9.386  0.00  0.00    -0.153 OA
ATOM      5  O   UNL     1      -8.130 -10.274   8.411  0.00  0.00    -0.153 OA
BRANCH   2  16
ATOM      1 CL   UNL     1      -1.849  -9.684  11.051  0.00  0.00    -0.084 Cl
ATOM     16  C   UNL     1      -6.195  -9.450   9.947  0.00  0.00    +0.106 A 
ATOM     18  C   UNL     1      -5.556 -10.678   9.923  0.00  0.00    +0.030 A 
ATOM     19  C   UNL     1      -5.524  -8.292  10.304  0.00  0.00    +0.030 A 
ATOM     22  C   UNL     1      -4.206 -10.750  10.266  0.00  0.00    +0.022 A 
ATOM     23  C   UNL     1      -4.174  -8.365  10.647  0.00  0.00    +0.022 A 
ATOM     27  C   UNL     1      -3.515  -9.594  10.628  0.00  0.00    +0.041 A 
ENDBRANCH   2  16
ENDBRANCH   7   2
TORSDOF 3
ENDMDL
MODEL 2
REMARK VINA RESULT:      -1.7      2.040      2.806
REMARK  Name = 7156584
REMARK  4 active torsions:
REMARK  status: ('A' for Active; 'I' for Inactive)
REMARK    1  A    between atoms: S_2  and  N_7
REMARK    2  A    between atoms: S_2  and  C_16
REMARK    3  A    between atoms: N_9  and  C_17
REMARK    4  A    between atoms: C_26  and  C_28
REMARK                            x       y       z     vdW  Elec       q    Type
REMARK                         _______ _______ _______ _____ _____    ______ ____
ROOT
ATOM      3  O   UNL     1      -6.140 -10.007  12.876  0.00  0.00    -0.273 OA
ATOM      6  O   UNL     1     -10.717  -8.925  13.009  0.00  0.00    -0.252 OA
ATOM      7  N   UNL     1      -6.172  -9.872  10.215  0.00  0.00    -0.163 NA
ATOM      8  N   UNL     1      -9.629  -9.058  11.033  0.00  0.00    -0.294 N 
ATOM      9  N   UNL     1      -8.437  -9.519  13.034  0.00  0.00    -0.193 N 
ATOM     10  C   UNL     1      -8.477  -9.304  10.219  0.00  0.00    +0.103 C 
ATOM     11  C   UNL     1      -7.180  -9.047  10.954  0.00  0.00    +0.186 C 
ATOM     12  C   UNL     1      -8.341 -10.743   9.746  0.00  0.00    +0.041 C 
ATOM     13  C   UNL     1      -6.895 -10.778   9.273  0.00  0.00    +0.112 C 
ATOM     14  C   UNL     1      -7.181  -9.573  12.379  0.00  0.00    +0.248 C 
ATOM     15  C   UNL     1      -9.665  -9.173  12.409  0.00  0.00    +0.313 C 
ATOM     29  H   UNL     1     -10.495  -8.809  10.564  0.00  0.00    +0.151 HD
ENDROOT
BRANCH   9  17
ATOM     17  C   UNL     1      -8.472  -9.832  14.450  0.00  0.00    +0.045 A 
ATOM     20  C   UNL     1      -9.600 -10.437  14.989  0.00  0.00    +0.024 A 
ATOM     21  C   UNL     1      -7.380  -9.522  15.247  0.00  0.00    +0.024 A 
ATOM     24  C   UNL     1      -9.634 -10.738  16.351  0.00  0.00    +0.005 A 
ATOM     25  C   UNL     1      -7.413  -9.822  16.608  0.00  0.00    +0.005 A 
ATOM     26  C   UNL     1      -8.541 -10.431  17.160  0.00  0.00    -0.050 A 
ATOM     28  C   UNL     1      -8.577 -10.752  18.616  0.00  0.00    +0.044 C 
ENDBRANCH   9  17
BRANCH   7   2
ATOM      2  S   UNL     1      -4.781  -9.087   9.630  0.00  0.00    +0.062 S 
ATOM      4  O   UNL     1      -4.963  -7.651   9.720  0.00  0.00    -0.153 OA
ATOM      5  O   UNL     1      -4.373  -9.701   8.380  0.00  0.00    -0.153 OA
BRANCH   2  16
ATOM      1 CL   UNL     1      -0.621 -10.742  14.001  0.00  0.00    -0.084 Cl
ATOM     16  C   UNL     1      -3.606  -9.554  10.865  0.00  0.00    +0.106 A 
ATOM     18  C   UNL     1      -2.274  -9.218  10.692  0.00  0.00    +0.030 A 
ATOM     19  C   UNL     1      -4.038 -10.247  11.982  0.00  0.00    +0.030 A 
ATOM     22  C   UNL     1      -1.347  -9.588  11.667  0.00  0.00    +0.022 A 
ATOM     23  C   UNL     1      -3.111 -10.616  12.957  0.00  0.00    +0.022 A 
ATOM     27  C   UNL     1      -1.765 -10.286  12.798  0.00  0.00    +0.041 A 
ENDBRANCH   2  16
ENDBRANCH   7   2
TORSDOF 3
ENDMDL
MODEL 3
REMARK VINA RESULT:      -1.2     15.207     17.379
REMARK  Name = 7156584
REMARK  4 active torsions:
REMARK  status: ('A' for Active; 'I' for Inactive)
REMARK    1  A    between atoms: S_2  and  N_7
REMARK    2  A    between atoms: S_2  and  C_16
REMARK    3  A    between atoms: N_9  and  C_17
REMARK    4  A    between atoms: C_26  and  C_28
REMARK                            x       y       z     vdW  Elec       q    Type
REMARK                         _______ _______ _______ _____ _____    ______ ____
ROOT
ATOM      3  O   UNL     1      -2.138   1.264  23.629  0.00  0.00    -0.273 OA
ATOM      6  O   UNL     1       0.127  -2.411  25.502  0.00  0.00    -0.252 OA
ATOM      7  N   UNL     1      -4.465   0.271  24.464  0.00  0.00    -0.163 NA
ATOM      8  N   UNL     1      -2.118  -2.235  25.686  0.00  0.00    -0.294 N 
ATOM      9  N   UNL     1      -0.929  -0.562  24.493  0.00  0.00    -0.193 N 
ATOM     10  C   UNL     1      -3.377  -1.597  25.446  0.00  0.00    +0.103 C 
ATOM     11  C   UNL     1      -3.243  -0.104  25.244  0.00  0.00    +0.186 C 
ATOM     12  C   UNL     1      -4.085  -2.066  24.184  0.00  0.00    +0.041 C 
ATOM     13  C   UNL     1      -5.135  -0.980  23.995  0.00  0.00    +0.112 C 
ATOM     14  C   UNL     1      -2.061   0.282  24.372  0.00  0.00    +0.248 C 
ATOM     15  C   UNL     1      -0.899  -1.781  25.222  0.00  0.00    +0.313 C 
ATOM     29  H   UNL     1      -2.121  -3.105  26.212  0.00  0.00    +0.151 HD
ENDROOT
BRANCH   9  17
ATOM     17  C   UNL     1       0.294  -0.149  23.831  0.00  0.00    +0.045 A 
ATOM     20  C   UNL     1       0.769  -0.883  22.752  0.00  0.00    +0.024 A 
ATOM     21  C   UNL     1       0.972   0.973  24.285  0.00  0.00    +0.024 A 
ATOM     24  C   UNL     1       1.946  -0.485  22.116  0.00  0.00    +0.005 A 
ATOM     25  C   UNL     1       2.148   1.371  23.649  0.00  0.00    +0.005 A 
ATOM     26  C   UNL     1       2.635   0.641  22.564  0.00  0.00    -0.050 A 
ATOM     28  C   UNL     1       3.892   1.067  21.884  0.00  0.00    +0.044 C 
ENDBRANCH   9  17
BRANCH   7   2
ATOM      2  S   UNL     1      -5.460   1.499  25.092  0.00  0.00    +0.062 S 
ATOM      4  O   UNL     1      -5.770   1.209  26.479  0.00  0.00    -0.153 OA
ATOM      5  O   UNL     1      -6.521   1.790  24.145  0.00  0.00    -0.153 OA
BRANCH   2  16
ATOM      1 CL   UNL     1      -1.478   6.326  25.020  0.00  0.00    -0.084 Cl
ATOM     16  C   UNL     1      -4.336   2.863  25.072  0.00  0.00    +0.106 A 
ATOM     18  C   UNL     1      -4.129   3.552  23.889  0.00  0.00    +0.030 A 
ATOM     19  C   UNL     1      -3.681   3.218  26.239  0.00  0.00    +0.030 A 
ATOM     22  C   UNL     1      -3.241   4.627  23.873  0.00  0.00    +0.022 A 
ATOM     23  C   UNL     1      -2.793   4.293  26.223  0.00  0.00    +0.022 A 
ATOM     27  C   UNL     1      -2.574   4.998  25.040  0.00  0.00    +0.041 A 
ENDBRANCH   2  16
ENDBRANCH   7   2
TORSDOF 3
ENDMDL
