MODEL 1
REMARK VINA RESULT:      -5.7      0.000      0.000
REMARK  Name = 56775604
REMARK  7 active torsions:
REMARK  status: ('A' for Active; 'I' for Inactive)
REMARK    1  A    between atoms: O_3  and  C_20
REMARK    2  A    between atoms: N_4  and  C_7
REMARK    3  A    between atoms: N_4  and  C_8
REMARK    4  A    between atoms: N_5  and  C_17
REMARK    5  A    between atoms: C_7  and  C_11
REMARK    6  A    between atoms: C_11  and  C_16
REMARK    7  A    between atoms: C_19  and  C_20
REMARK                            x       y       z     vdW  Elec       q    Type
REMARK                         _______ _______ _______ _____ _____    ______ ____
ROOT
ATOM      1  O   UNL     1      -3.515  -2.937  25.040  0.00  0.00    -0.376 OA
ATOM      7  C   UNL     1      -2.600  -1.009  25.011  0.00  0.00    +0.072 C 
ATOM      9  C   UNL     1      -2.418  -2.348  24.305  0.00  0.00    +0.184 C 
ATOM     10  C   UNL     1      -3.679  -1.726  25.813  0.00  0.00    +0.184 C 
ENDROOT
BRANCH   7   4
ATOM      4  N   UNL     1      -3.243  -0.071  24.087  0.00  0.00    -0.304 NA
ATOM     21  H   UNL     1      -2.630   0.203  23.318  0.00  0.00    +0.123 HD
BRANCH   4   8
ATOM      5  N   UNL     1      -5.289   3.546  24.978  0.00  0.00    -0.305 NA
ATOM      8  C   UNL     1      -3.650   1.127  24.817  0.00  0.00    +0.057 C 
ATOM     12  C   UNL     1      -3.318   2.394  24.024  0.00  0.00    +0.034 C 
ATOM     13  C   UNL     1      -5.150   1.079  25.119  0.00  0.00    +0.034 C 
ATOM     14  C   UNL     1      -3.842   3.642  24.737  0.00  0.00    +0.085 C 
ATOM     15  C   UNL     1      -5.616   2.371  25.798  0.00  0.00    +0.085 C 
ATOM     17  C   UNL     1      -5.783   4.767  25.615  0.00  0.00    +0.104 C 
ENDBRANCH   4   8
ENDBRANCH   7   4
BRANCH   7  11
ATOM     11  C   UNL     1      -1.435  -0.408  25.736  0.00  0.00    +0.085 C 
BRANCH  11  16
ATOM      2  O   UNL     1       0.893   1.462  23.702  0.00  0.00    -0.357 OA
ATOM      6  N   UNL     1      -0.098   1.373  24.672  0.00  0.00    -0.083 NA
ATOM     16  C   UNL     1      -0.382   0.071  24.758  0.00  0.00    +0.086 A 
ATOM     18  C   UNL     1       0.391  -0.703  23.876  0.00  0.00    +0.073 A 
ATOM     19  C   UNL     1       1.176   0.219  23.235  0.00  0.00    +0.163 A 
BRANCH  19  20
ATOM     20  C   UNL     1       2.208   0.128  22.196  0.00  0.00    +0.232 C 
BRANCH  20   3
ATOM      3  O   UNL     1       3.340   0.929  22.548  0.00  0.00    -0.387 OA
ATOM     22  H   UNL     1       3.926   0.370  23.085  0.00  0.00    +0.210 HD
ENDBRANCH  20   3
ENDBRANCH  19  20
ENDBRANCH  11  16
ENDBRANCH   7  11
TORSDOF 6
ENDMDL
MODEL 2
REMARK VINA RESULT:      -5.0     15.620     18.371
REMARK  Name = 56775604
REMARK  7 active torsions:
REMARK  status: ('A' for Active; 'I' for Inactive)
REMARK    1  A    between atoms: O_3  and  C_20
REMARK    2  A    between atoms: N_4  and  C_7
REMARK    3  A    between atoms: N_4  and  C_8
REMARK    4  A    between atoms: N_5  and  C_17
REMARK    5  A    between atoms: C_7  and  C_11
REMARK    6  A    between atoms: C_11  and  C_16
REMARK    7  A    between atoms: C_19  and  C_20
REMARK                            x       y       z     vdW  Elec       q    Type
REMARK                         _______ _______ _______ _____ _____    ______ ____
ROOT
ATOM      1  O   UNL     1      17.286   6.051  19.299  0.00  0.00    -0.376 OA
ATOM      7  C   UNL     1      15.502   7.187  19.577  0.00  0.00    +0.072 C 
ATOM      9  C   UNL     1      16.100   6.283  18.506  0.00  0.00    +0.184 C 
ATOM     10  C   UNL     1      16.819   6.971  20.312  0.00  0.00    +0.184 C 
ENDROOT
BRANCH   7   4
ATOM      4  N   UNL     1      14.444   6.451  20.278  0.00  0.00    -0.304 NA
ATOM     21  H   UNL     1      14.057   5.693  19.716  0.00  0.00    +0.123 HD
BRANCH   4   8
ATOM      5  N   UNL     1      11.312   8.233  22.532  0.00  0.00    -0.305 NA
ATOM      8  C   UNL     1      13.368   7.373  20.635  0.00  0.00    +0.057 C 
ATOM     12  C   UNL     1      12.038   6.630  20.792  0.00  0.00    +0.034 C 
ATOM     13  C   UNL     1      13.710   8.109  21.933  0.00  0.00    +0.034 C 
ATOM     14  C   UNL     1      10.934   7.575  21.273  0.00  0.00    +0.085 C 
ATOM     15  C   UNL     1      12.552   9.007  22.378  0.00  0.00    +0.085 C 
ATOM     17  C   UNL     1      10.228   9.094  23.004  0.00  0.00    +0.104 C 
ENDBRANCH   4   8
ENDBRANCH   7   4
BRANCH   7  11
ATOM     11  C   UNL     1      15.095   8.580  19.208  0.00  0.00    +0.085 C 
BRANCH  11  16
ATOM      2  O   UNL     1      13.540   8.208  15.968  0.00  0.00    -0.357 OA
ATOM      6  N   UNL     1      14.609   8.063  16.844  0.00  0.00    -0.083 NA
ATOM     16  C   UNL     1      14.180   8.572  18.001  0.00  0.00    +0.086 A 
ATOM     18  C   UNL     1      12.861   9.050  17.917  0.00  0.00    +0.073 A 
ATOM     19  C   UNL     1      12.505   8.798  16.619  0.00  0.00    +0.163 A 
BRANCH  19  20
ATOM     20  C   UNL     1      11.285   9.030  15.836  0.00  0.00    +0.232 C 
BRANCH  20   3
ATOM      3  O   UNL     1      10.348   7.971  16.051  0.00  0.00    -0.387 OA
ATOM     22  H   UNL     1      10.414   7.720  16.987  0.00  0.00    +0.210 HD
ENDBRANCH  20   3
ENDBRANCH  19  20
ENDBRANCH  11  16
ENDBRANCH   7  11
TORSDOF 6
ENDMDL
MODEL 3
REMARK VINA RESULT:      -4.6      2.497      5.920
REMARK  Name = 56775604
REMARK  7 active torsions:
REMARK  status: ('A' for Active; 'I' for Inactive)
REMARK    1  A    between atoms: O_3  and  C_20
REMARK    2  A    between atoms: N_4  and  C_7
REMARK    3  A    between atoms: N_4  and  C_8
REMARK    4  A    between atoms: N_5  and  C_17
REMARK    5  A    between atoms: C_7  and  C_11
REMARK    6  A    between atoms: C_11  and  C_16
REMARK    7  A    between atoms: C_19  and  C_20
REMARK                            x       y       z     vdW  Elec       q    Type
REMARK                         _______ _______ _______ _____ _____    ______ ____
ROOT
ATOM      1  O   UNL     1       1.466   1.545  24.163  0.00  0.00    -0.376 OA
ATOM      7  C   UNL     1      -0.645   1.840  24.258  0.00  0.00    +0.072 C 
ATOM      9  C   UNL     1       0.335   0.998  23.448  0.00  0.00    +0.184 C 
ATOM     10  C   UNL     1       0.601   2.439  24.899  0.00  0.00    +0.184 C 
ENDROOT
BRANCH   7   4
ATOM      4  N   UNL     1      -1.312   0.976  25.237  0.00  0.00    -0.304 NA
ATOM     21  H   UNL     1      -0.670   0.620  25.946  0.00  0.00    +0.123 HD
BRANCH   4   8
ATOM      5  N   UNL     1      -3.460  -2.645  24.658  0.00  0.00    -0.305 NA
ATOM      8  C   UNL     1      -1.930  -0.153  24.546  0.00  0.00    +0.057 C 
ATOM     12  C   UNL     1      -1.304  -1.478  24.991  0.00  0.00    +0.034 C 
ATOM     13  C   UNL     1      -3.438  -0.175  24.810  0.00  0.00    +0.034 C 
ATOM     14  C   UNL     1      -2.023  -2.668  24.352  0.00  0.00    +0.085 C 
ATOM     15  C   UNL     1      -4.089  -1.407  24.175  0.00  0.00    +0.085 C 
ATOM     17  C   UNL     1      -4.125  -3.814  24.083  0.00  0.00    +0.104 C 
ENDBRANCH   4   8
ENDBRANCH   7   4
BRANCH   7  11
ATOM     11  C   UNL     1      -1.596   2.743  23.533  0.00  0.00    +0.085 C 
BRANCH  11  16
ATOM      2  O   UNL     1      -3.763   4.029  26.122  0.00  0.00    -0.357 OA
ATOM      6  N   UNL     1      -2.511   3.830  25.551  0.00  0.00    -0.083 NA
ATOM     16  C   UNL     1      -2.748   3.142  24.431  0.00  0.00    +0.086 A 
ATOM     18  C   UNL     1      -4.116   2.882  24.244  0.00  0.00    +0.073 A 
ATOM     19  C   UNL     1      -4.711   3.460  25.335  0.00  0.00    +0.163 A 
BRANCH  19  20
ATOM     20  C   UNL     1      -6.099   3.576  25.793  0.00  0.00    +0.232 C 
BRANCH  20   3
ATOM      3  O   UNL     1      -6.422   2.502  26.681  0.00  0.00    -0.387 OA
ATOM     22  H   UNL     1      -6.948   2.882  27.405  0.00  0.00    +0.210 HD
ENDBRANCH  20   3
ENDBRANCH  19  20
ENDBRANCH  11  16
ENDBRANCH   7  11
TORSDOF 6
ENDMDL
MODEL 4
REMARK VINA RESULT:      -4.6      2.389      5.673
REMARK  Name = 56775604
REMARK  7 active torsions:
REMARK  status: ('A' for Active; 'I' for Inactive)
REMARK    1  A    between atoms: O_3  and  C_20
REMARK    2  A    between atoms: N_4  and  C_7
REMARK    3  A    between atoms: N_4  and  C_8
REMARK    4  A    between atoms: N_5  and  C_17
REMARK    5  A    between atoms: C_7  and  C_11
REMARK    6  A    between atoms: C_11  and  C_16
REMARK    7  A    between atoms: C_19  and  C_20
REMARK                            x       y       z     vdW  Elec       q    Type
REMARK                         _______ _______ _______ _____ _____    ______ ____
ROOT
ATOM      1  O   UNL     1      -3.238  -2.903  25.394  0.00  0.00    -0.376 OA
ATOM      7  C   UNL     1      -2.890  -0.944  24.624  0.00  0.00    +0.072 C 
ATOM      9  C   UNL     1      -3.800  -1.597  25.658  0.00  0.00    +0.184 C 
ATOM     10  C   UNL     1      -2.416  -2.363  24.334  0.00  0.00    +0.184 C 
ENDROOT
BRANCH   7   4
ATOM      4  N   UNL     1      -1.823  -0.222  25.323  0.00  0.00    -0.304 NA
ATOM     21  H   UNL     1      -2.174   0.570  25.863  0.00  0.00    +0.123 HD
BRANCH   4   8
ATOM      5  N   UNL     1       1.934   0.804  23.621  0.00  0.00    -0.305 NA
ATOM      8  C   UNL     1      -0.849   0.265  24.349  0.00  0.00    +0.057 C 
ATOM     12  C   UNL     1      -0.079   1.470  24.897  0.00  0.00    +0.034 C 
ATOM     13  C   UNL     1       0.129  -0.852  23.975  0.00  0.00    +0.034 C 
ATOM     14  C   UNL     1       1.017   1.911  23.923  0.00  0.00    +0.085 C 
ATOM     15  C   UNL     1       1.218  -0.335  23.030  0.00  0.00    +0.085 C 
ATOM     17  C   UNL     1       3.003   1.254  22.729  0.00  0.00    +0.104 C 
ENDBRANCH   4   8
ENDBRANCH   7   4
BRANCH   7  11
ATOM     11  C   UNL     1      -3.507  -0.144  23.518  0.00  0.00    +0.085 C 
BRANCH  11  16
ATOM      2  O   UNL     1      -3.578   3.443  23.946  0.00  0.00    -0.357 OA
ATOM      6  N   UNL     1      -3.151   2.288  23.300  0.00  0.00    -0.083 NA
ATOM     16  C   UNL     1      -3.744   1.286  23.955  0.00  0.00    +0.086 A 
ATOM     18  C   UNL     1      -4.549   1.743  25.012  0.00  0.00    +0.073 A 
ATOM     19  C   UNL     1      -4.410   3.105  24.964  0.00  0.00    +0.163 A 
BRANCH  19  20
ATOM     20  C   UNL     1      -4.956   4.211  25.759  0.00  0.00    +0.232 C 
BRANCH  20   3
ATOM      3  O   UNL     1      -6.386   4.171  25.747  0.00  0.00    -0.387 OA
ATOM     22  H   UNL     1      -6.650   3.331  26.158  0.00  0.00    +0.210 HD
ENDBRANCH  20   3
ENDBRANCH  19  20
ENDBRANCH  11  16
ENDBRANCH   7  11
TORSDOF 6
ENDMDL
MODEL 5
REMARK VINA RESULT:      -4.4      1.641      2.271
REMARK  Name = 56775604
REMARK  7 active torsions:
REMARK  status: ('A' for Active; 'I' for Inactive)
REMARK    1  A    between atoms: O_3  and  C_20
REMARK    2  A    between atoms: N_4  and  C_7
REMARK    3  A    between atoms: N_4  and  C_8
REMARK    4  A    between atoms: N_5  and  C_17
REMARK    5  A    between atoms: C_7  and  C_11
REMARK    6  A    between atoms: C_11  and  C_16
REMARK    7  A    between atoms: C_19  and  C_20
REMARK                            x       y       z     vdW  Elec       q    Type
REMARK                         _______ _______ _______ _____ _____    ______ ____
ROOT
ATOM      1  O   UNL     1      -2.988  -3.193  24.613  0.00  0.00    -0.376 OA
ATOM      7  C   UNL     1      -2.426  -1.159  24.929  0.00  0.00    +0.072 C 
ATOM      9  C   UNL     1      -1.893  -2.364  24.162  0.00  0.00    +0.184 C 
ATOM     10  C   UNL     1      -3.495  -2.119  25.438  0.00  0.00    +0.184 C 
ENDROOT
BRANCH   7   4
ATOM      4  N   UNL     1      -3.041  -0.228  23.977  0.00  0.00    -0.304 NA
ATOM     21  H   UNL     1      -2.387   0.084  23.258  0.00  0.00    +0.123 HD
BRANCH   4   8
ATOM      5  N   UNL     1      -5.530   3.072  24.964  0.00  0.00    -0.305 NA
ATOM      8  C   UNL     1      -3.545   0.939  24.697  0.00  0.00    +0.057 C 
ATOM     12  C   UNL     1      -3.533   2.183  23.805  0.00  0.00    +0.034 C 
ATOM     13  C   UNL     1      -4.965   0.675  25.205  0.00  0.00    +0.034 C 
ATOM     14  C   UNL     1      -4.163   3.379  24.522  0.00  0.00    +0.085 C 
ATOM     15  C   UNL     1      -5.549   1.921  25.877  0.00  0.00    +0.085 C 
ATOM     17  C   UNL     1      -6.136   4.241  25.602  0.00  0.00    +0.104 C 
ENDBRANCH   4   8
ENDBRANCH   7   4
BRANCH   7  11
ATOM     11  C   UNL     1      -1.532  -0.475  25.918  0.00  0.00    +0.085 C 
BRANCH  11  16
ATOM      2  O   UNL     1       0.176   2.015  23.935  0.00  0.00    -0.357 OA
ATOM      6  N   UNL     1      -0.214   0.707  24.199  0.00  0.00    -0.083 NA
ATOM     16  C   UNL     1      -0.932   0.781  25.323  0.00  0.00    +0.086 A 
ATOM     18  C   UNL     1      -1.027   2.096  25.809  0.00  0.00    +0.073 A 
ATOM     19  C   UNL     1      -0.314   2.833  24.901  0.00  0.00    +0.163 A 
BRANCH  19  20
ATOM     20  C   UNL     1       0.007   4.259  24.777  0.00  0.00    +0.232 C 
BRANCH  20   3
ATOM      3  O   UNL     1      -1.124   5.056  25.140  0.00  0.00    -0.387 OA
ATOM     22  H   UNL     1      -1.120   5.128  26.110  0.00  0.00    +0.210 HD
ENDBRANCH  20   3
ENDBRANCH  19  20
ENDBRANCH  11  16
ENDBRANCH   7  11
TORSDOF 6
ENDMDL
MODEL 6
REMARK VINA RESULT:      -3.3      2.720      4.972
REMARK  Name = 56775604
REMARK  7 active torsions:
REMARK  status: ('A' for Active; 'I' for Inactive)
REMARK    1  A    between atoms: O_3  and  C_20
REMARK    2  A    between atoms: N_4  and  C_7
REMARK    3  A    between atoms: N_4  and  C_8
REMARK    4  A    between atoms: N_5  and  C_17
REMARK    5  A    between atoms: C_7  and  C_11
REMARK    6  A    between atoms: C_11  and  C_16
REMARK    7  A    between atoms: C_19  and  C_20
REMARK                            x       y       z     vdW  Elec       q    Type
REMARK                         _______ _______ _______ _____ _____    ______ ____
ROOT
ATOM      1  O   UNL     1      -3.126  -2.904  25.740  0.00  0.00    -0.376 OA
ATOM      7  C   UNL     1      -2.640  -1.208  24.540  0.00  0.00    +0.072 C 
ATOM      9  C   UNL     1      -3.429  -1.493  25.813  0.00  0.00    +0.184 C 
ATOM     10  C   UNL     1      -2.444  -2.718  24.479  0.00  0.00    +0.184 C 
ENDROOT
BRANCH   7   4
ATOM      4  N   UNL     1      -1.366  -0.580  24.905  0.00  0.00    -0.304 NA
ATOM     21  H   UNL     1      -1.105  -0.760  25.875  0.00  0.00    +0.123 HD
BRANCH   4   8
ATOM      5  N   UNL     1      -0.324   3.538  25.041  0.00  0.00    -0.305 NA
ATOM      8  C   UNL     1      -1.462   0.863  24.700  0.00  0.00    +0.057 C 
ATOM     12  C   UNL     1      -1.507   1.606  26.038  0.00  0.00    +0.034 C 
ATOM     13  C   UNL     1      -0.276   1.359  23.868  0.00  0.00    +0.034 C 
ATOM     14  C   UNL     1      -1.495   3.122  25.826  0.00  0.00    +0.085 C 
ATOM     15  C   UNL     1      -0.304   2.884  23.726  0.00  0.00    +0.085 C 
ATOM     17  C   UNL     1      -0.300   4.992  24.890  0.00  0.00    +0.104 C 
ENDBRANCH   4   8
ENDBRANCH   7   4
BRANCH   7  11
ATOM     11  C   UNL     1      -3.325  -0.518  23.401  0.00  0.00    +0.085 C 
BRANCH  11  16
ATOM      2  O   UNL     1      -4.378   2.910  23.845  0.00  0.00    -0.357 OA
ATOM      6  N   UNL     1      -3.674   1.915  23.176  0.00  0.00    -0.083 NA
ATOM     16  C   UNL     1      -3.933   0.793  23.853  0.00  0.00    +0.086 A 
ATOM     18  C   UNL     1      -4.786   1.016  24.948  0.00  0.00    +0.073 A 
ATOM     19  C   UNL     1      -5.035   2.362  24.899  0.00  0.00    +0.163 A 
BRANCH  19  20
ATOM     20  C   UNL     1      -5.834   3.279  25.720  0.00  0.00    +0.232 C 
BRANCH  20   3
ATOM      3  O   UNL     1      -6.361   2.593  26.860  0.00  0.00    -0.387 OA
ATOM     22  H   UNL     1      -6.144   3.132  27.640  0.00  0.00    +0.210 HD
ENDBRANCH  20   3
ENDBRANCH  19  20
ENDBRANCH  11  16
ENDBRANCH   7  11
TORSDOF 6
ENDMDL
MODEL 7
REMARK VINA RESULT:      -3.2      2.452      5.866
REMARK  Name = 56775604
REMARK  7 active torsions:
REMARK  status: ('A' for Active; 'I' for Inactive)
REMARK    1  A    between atoms: O_3  and  C_20
REMARK    2  A    between atoms: N_4  and  C_7
REMARK    3  A    between atoms: N_4  and  C_8
REMARK    4  A    between atoms: N_5  and  C_17
REMARK    5  A    between atoms: C_7  and  C_11
REMARK    6  A    between atoms: C_11  and  C_16
REMARK    7  A    between atoms: C_19  and  C_20
REMARK                            x       y       z     vdW  Elec       q    Type
REMARK                         _______ _______ _______ _____ _____    ______ ____
ROOT
ATOM      1  O   UNL     1      -2.013   4.861  25.013  0.00  0.00    -0.376 OA
ATOM      7  C   UNL     1      -2.760   2.888  25.336  0.00  0.00    +0.072 C 
ATOM      9  C   UNL     1      -2.223   3.707  24.168  0.00  0.00    +0.184 C 
ATOM     10  C   UNL     1      -2.601   4.173  26.140  0.00  0.00    +0.184 C 
ENDROOT
BRANCH   7   4
ATOM      4  N   UNL     1      -1.729   1.935  25.758  0.00  0.00    -0.304 NA
ATOM     21  H   UNL     1      -1.121   2.313  26.486  0.00  0.00    +0.123 HD
BRANCH   4   8
ATOM      5  N   UNL     1       1.555   0.409  23.532  0.00  0.00    -0.305 NA
ATOM      8  C   UNL     1      -0.911   1.563  24.606  0.00  0.00    +0.057 C 
ATOM     12  C   UNL     1       0.416   2.327  24.604  0.00  0.00    +0.034 C 
ATOM     13  C   UNL     1      -0.645   0.056  24.611  0.00  0.00    +0.034 C 
ATOM     14  C   UNL     1       1.318   1.858  23.460  0.00  0.00    +0.085 C 
ATOM     15  C   UNL     1       0.292  -0.340  23.466  0.00  0.00    +0.085 C 
ATOM     17  C   UNL     1       2.458  -0.015  22.463  0.00  0.00    +0.104 C 
ENDBRANCH   4   8
ENDBRANCH   7   4
BRANCH   7  11
ATOM     11  C   UNL     1      -4.117   2.266  25.222  0.00  0.00    +0.085 C 
BRANCH  11  16
ATOM      2  O   UNL     1      -3.754  -0.604  23.057  0.00  0.00    -0.357 OA
ATOM      6  N   UNL     1      -3.770   0.766  23.293  0.00  0.00    -0.083 NA
ATOM     16  C   UNL     1      -4.028   0.889  24.598  0.00  0.00    +0.086 A 
ATOM     18  C   UNL     1      -4.183  -0.356  25.231  0.00  0.00    +0.073 A 
ATOM     19  C   UNL     1      -4.002  -1.262  24.219  0.00  0.00    +0.163 A 
BRANCH  19  20
ATOM     20  C   UNL     1      -4.023  -2.727  24.151  0.00  0.00    +0.232 C 
BRANCH  20   3
ATOM      3  O   UNL     1      -3.439  -3.288  25.329  0.00  0.00    -0.387 OA
ATOM     22  H   UNL     1      -2.479  -3.322  25.181  0.00  0.00    +0.210 HD
ENDBRANCH  20   3
ENDBRANCH  19  20
ENDBRANCH  11  16
ENDBRANCH   7  11
TORSDOF 6
ENDMDL
MODEL 8
REMARK VINA RESULT:      -3.2     17.992     19.974
REMARK  Name = 56775604
REMARK  7 active torsions:
REMARK  status: ('A' for Active; 'I' for Inactive)
REMARK    1  A    between atoms: O_3  and  C_20
REMARK    2  A    between atoms: N_4  and  C_7
REMARK    3  A    between atoms: N_4  and  C_8
REMARK    4  A    between atoms: N_5  and  C_17
REMARK    5  A    between atoms: C_7  and  C_11
REMARK    6  A    between atoms: C_11  and  C_16
REMARK    7  A    between atoms: C_19  and  C_20
REMARK                            x       y       z     vdW  Elec       q    Type
REMARK                         _______ _______ _______ _____ _____    ______ ____
ROOT
ATOM      1  O   UNL     1      11.874  -5.767  32.810  0.00  0.00    -0.376 OA
ATOM      7  C   UNL     1      13.694  -5.966  31.715  0.00  0.00    +0.072 C 
ATOM      9  C   UNL     1      12.788  -6.857  32.557  0.00  0.00    +0.184 C 
ATOM     10  C   UNL     1      12.736  -4.846  32.104  0.00  0.00    +0.184 C 
ENDROOT
BRANCH   7   4
ATOM      4  N   UNL     1      13.491  -6.290  30.299  0.00  0.00    -0.304 NA
ATOM     21  H   UNL     1      12.598  -6.752  30.128  0.00  0.00    +0.123 HD
BRANCH   4   8
ATOM      5  N   UNL     1      15.618  -9.058  27.873  0.00  0.00    -0.305 NA
ATOM      8  C   UNL     1      14.570  -7.164  29.843  0.00  0.00    +0.057 C 
ATOM     12  C   UNL     1      14.109  -8.623  29.786  0.00  0.00    +0.034 C 
ATOM     13  C   UNL     1      15.064  -6.719  28.464  0.00  0.00    +0.034 C 
ATOM     14  C   UNL     1      15.202  -9.522  29.204  0.00  0.00    +0.085 C 
ATOM     15  C   UNL     1      16.127  -7.680  27.925  0.00  0.00    +0.085 C 
ATOM     17  C   UNL     1      16.626  -9.955  27.310  0.00  0.00    +0.104 C 
ENDBRANCH   4   8
ENDBRANCH   7   4
BRANCH   7  11
ATOM     11  C   UNL     1      15.140  -5.846  32.084  0.00  0.00    +0.085 C 
BRANCH  11  16
ATOM      2  O   UNL     1      16.213  -2.635  30.821  0.00  0.00    -0.357 OA
ATOM      6  N   UNL     1      15.751  -3.935  30.647  0.00  0.00    -0.083 NA
ATOM     16  C   UNL     1      15.632  -4.428  31.883  0.00  0.00    +0.086 A 
ATOM     18  C   UNL     1      16.001  -3.495  32.867  0.00  0.00    +0.073 A 
ATOM     19  C   UNL     1      16.359  -2.385  32.147  0.00  0.00    +0.163 A 
BRANCH  19  20
ATOM     20  C   UNL     1      16.843  -1.050  32.513  0.00  0.00    +0.232 C 
BRANCH  20   3
ATOM      3  O   UNL     1      16.671  -0.142  31.421  0.00  0.00    -0.387 OA
ATOM     22  H   UNL     1      15.727  -0.153  31.190  0.00  0.00    +0.210 HD
ENDBRANCH  20   3
ENDBRANCH  19  20
ENDBRANCH  11  16
ENDBRANCH   7  11
TORSDOF 6
ENDMDL
MODEL 9
REMARK VINA RESULT:      -3.0     16.307     18.283
REMARK  Name = 56775604
REMARK  7 active torsions:
REMARK  status: ('A' for Active; 'I' for Inactive)
REMARK    1  A    between atoms: O_3  and  C_20
REMARK    2  A    between atoms: N_4  and  C_7
REMARK    3  A    between atoms: N_4  and  C_8
REMARK    4  A    between atoms: N_5  and  C_17
REMARK    5  A    between atoms: C_7  and  C_11
REMARK    6  A    between atoms: C_11  and  C_16
REMARK    7  A    between atoms: C_19  and  C_20
REMARK                            x       y       z     vdW  Elec       q    Type
REMARK                         _______ _______ _______ _____ _____    ______ ____
ROOT
ATOM      1  O   UNL     1      -3.995  -8.523  10.186  0.00  0.00    -0.376 OA
ATOM      7  C   UNL     1      -5.817  -9.273   9.367  0.00  0.00    +0.072 C 
ATOM      9  C   UNL     1      -4.327  -9.573   9.250  0.00  0.00    +0.184 C 
ATOM     10  C   UNL     1      -5.383  -8.125  10.270  0.00  0.00    +0.184 C 
ENDROOT
BRANCH   7   4
ATOM      4  N   UNL     1      -6.444 -10.312  10.190  0.00  0.00    -0.304 NA
ATOM     21  H   UNL     1      -7.348 -10.610   9.822  0.00  0.00    +0.123 HD
BRANCH   4   8
ATOM      5  N   UNL     1      -7.288 -10.307  14.356  0.00  0.00    -0.305 NA
ATOM      8  C   UNL     1      -6.630  -9.807  11.548  0.00  0.00    +0.057 C 
ATOM     12  C   UNL     1      -8.069 -10.026  12.024  0.00  0.00    +0.034 C 
ATOM     13  C   UNL     1      -5.653 -10.493  12.507  0.00  0.00    +0.034 C 
ATOM     14  C   UNL     1      -8.235  -9.598  13.485  0.00  0.00    +0.085 C 
ATOM     15  C   UNL     1      -5.898 -10.050  13.952  0.00  0.00    +0.085 C 
ATOM     17  C   UNL     1      -7.493  -9.925  15.753  0.00  0.00    +0.104 C 
ENDBRANCH   4   8
ENDBRANCH   7   4
BRANCH   7  11
ATOM     11  C   UNL     1      -6.595  -8.966   8.124  0.00  0.00    +0.085 C 
BRANCH  11  16
ATOM      2  O   UNL     1      -9.743  -7.562   9.205  0.00  0.00    -0.357 OA
ATOM      6  N   UNL     1      -8.845  -8.615   9.074  0.00  0.00    -0.083 NA
ATOM     16  C   UNL     1      -7.792  -8.094   8.440  0.00  0.00    +0.086 A 
ATOM     18  C   UNL     1      -7.966  -6.730   8.147  0.00  0.00    +0.073 A 
ATOM     19  C   UNL     1      -9.209  -6.445   8.649  0.00  0.00    +0.163 A 
BRANCH  19  20
ATOM     20  C   UNL     1     -10.030  -5.231   8.698  0.00  0.00    +0.232 C 
BRANCH  20   3
ATOM      3  O   UNL     1      -9.198  -4.068   8.736  0.00  0.00    -0.387 OA
ATOM     22  H   UNL     1      -9.156  -3.720   7.829  0.00  0.00    +0.210 HD
ENDBRANCH  20   3
ENDBRANCH  19  20
ENDBRANCH  11  16
ENDBRANCH   7  11
TORSDOF 6
ENDMDL
MODEL 10
REMARK VINA RESULT:      -3.0      2.623      5.008
REMARK  Name = 56775604
REMARK  7 active torsions:
REMARK  status: ('A' for Active; 'I' for Inactive)
REMARK    1  A    between atoms: O_3  and  C_20
REMARK    2  A    between atoms: N_4  and  C_7
REMARK    3  A    between atoms: N_4  and  C_8
REMARK    4  A    between atoms: N_5  and  C_17
REMARK    5  A    between atoms: C_7  and  C_11
REMARK    6  A    between atoms: C_11  and  C_16
REMARK    7  A    between atoms: C_19  and  C_20
REMARK                            x       y       z     vdW  Elec       q    Type
REMARK                         _______ _______ _______ _____ _____    ______ ____
ROOT
ATOM      1  O   UNL     1       0.826  -0.778  23.446  0.00  0.00    -0.376 OA
ATOM      7  C   UNL     1      -0.946  -0.483  24.597  0.00  0.00    +0.072 C 
ATOM      9  C   UNL     1       0.271  -1.400  24.627  0.00  0.00    +0.184 C 
ATOM     10  C   UNL     1      -0.346   0.057  23.305  0.00  0.00    +0.184 C 
ENDROOT
BRANCH   7   4
ATOM      4  N   UNL     1      -0.799   0.531  25.646  0.00  0.00    -0.304 NA
ATOM     21  H   UNL     1      -1.359   0.322  26.473  0.00  0.00    +0.123 HD
BRANCH   4   8
ATOM      5  N   UNL     1      -1.063   4.754  25.250  0.00  0.00    -0.305 NA
ATOM      8  C   UNL     1      -1.200   1.834  25.121  0.00  0.00    +0.057 C 
ATOM     12  C   UNL     1      -1.960   2.642  26.176  0.00  0.00    +0.034 C 
ATOM     13  C   UNL     1       0.029   2.616  24.650  0.00  0.00    +0.034 C 
ATOM     14  C   UNL     1      -2.283   4.048  25.664  0.00  0.00    +0.085 C 
ATOM     15  C   UNL     1      -0.359   4.023  24.187  0.00  0.00    +0.085 C 
ATOM     17  C   UNL     1      -1.383   6.112  24.810  0.00  0.00    +0.104 C 
ENDBRANCH   4   8
ENDBRANCH   7   4
BRANCH   7  11
ATOM     11  C   UNL     1      -2.314  -1.093  24.564  0.00  0.00    +0.085 C 
BRANCH  11  16
ATOM      2  O   UNL     1      -4.458   1.705  23.772  0.00  0.00    -0.357 OA
ATOM      6  N   UNL     1      -3.358   0.890  23.530  0.00  0.00    -0.083 NA
ATOM     16  C   UNL     1      -3.381  -0.020  24.508  0.00  0.00    +0.086 A 
ATOM     18  C   UNL     1      -4.460   0.169  25.388  0.00  0.00    +0.073 A 
ATOM     19  C   UNL     1      -5.106   1.267  24.881  0.00  0.00    +0.163 A 
BRANCH  19  20
ATOM     20  C   UNL     1      -6.299   2.019  25.284  0.00  0.00    +0.232 C 
BRANCH  20   3
ATOM      3  O   UNL     1      -6.036   2.771  26.472  0.00  0.00    -0.387 OA
ATOM     22  H   UNL     1      -5.400   2.257  26.997  0.00  0.00    +0.210 HD
ENDBRANCH  20   3
ENDBRANCH  19  20
ENDBRANCH  11  16
ENDBRANCH   7  11
TORSDOF 6
ENDMDL
