MODEL 1
REMARK VINA RESULT:      -5.1      0.000      0.000
REMARK  Name = 45784275
REMARK  5 active torsions:
REMARK  status: ('A' for Active; 'I' for Inactive)
REMARK    1  A    between atoms: N_4  and  C_11
REMARK    2  A    between atoms: C_7  and  C_12
REMARK    3  A    between atoms: C_11  and  C_13
REMARK    4  A    between atoms: C_11  and  C_14
REMARK    5  A    between atoms: C_19  and  C_21
REMARK                            x       y       z     vdW  Elec       q    Type
REMARK                         _______ _______ _______ _____ _____    ______ ____
ROOT
ATOM      5  N   UNL     1      -6.630  -9.968  13.783  0.00  0.00    -0.342 N 
ATOM      6  N   UNL     1      -5.150 -10.776  15.232  0.00  0.00    -0.232 NA
ATOM     12  C   UNL     1      -6.407 -10.440  15.047  0.00  0.00    +0.113 A 
ATOM     15  C   UNL     1      -5.437 -10.000  13.108  0.00  0.00    +0.067 A 
ATOM     16  C   UNL     1      -4.529 -10.508  14.032  0.00  0.00    +0.089 A 
ATOM     17  C   UNL     1      -5.085  -9.640  11.806  0.00  0.00    +0.040 A 
ATOM     18  C   UNL     1      -3.186 -10.672  13.655  0.00  0.00    +0.030 A 
ATOM     19  C   UNL     1      -3.743  -9.810  11.447  0.00  0.00    +0.057 A 
ATOM     20  C   UNL     1      -2.809 -10.317  12.354  0.00  0.00    +0.014 A 
ATOM     22  H   UNL     1      -7.514  -9.650  13.409  0.00  0.00    +0.167 HD
ENDROOT
BRANCH  12   7
ATOM      4  N   UNL     1      -9.558  -9.549  16.692  0.00  0.00    -0.299 NA
ATOM      7  C   UNL     1      -7.526 -10.535  16.058  0.00  0.00    +0.070 C 
ATOM      8  C   UNL     1      -8.876 -10.062  15.502  0.00  0.00    +0.096 C 
ATOM      9  C   UNL     1      -7.317  -9.702  17.334  0.00  0.00    +0.028 C 
ATOM     10  C   UNL     1      -8.536  -8.791  17.415  0.00  0.00    +0.085 C 
BRANCH   4  11
ATOM     11  C   UNL     1     -10.719  -8.738  16.361  0.00  0.00    +0.050 C 
ATOM     13  C   UNL     1     -10.714  -8.390  14.875  0.00  0.00    +0.024 C 
ATOM     14  C   UNL     1     -10.719  -7.477  17.219  0.00  0.00    +0.024 C 
ENDBRANCH   4  11
ENDBRANCH  12   7
BRANCH  19  21
ATOM      1  F   UNL     1      -3.399 -10.486   9.194  0.00  0.00    -0.166 F 
ATOM      2  F   UNL     1      -4.034  -8.431   9.514  0.00  0.00    -0.166 F 
ATOM      3  F   UNL     1      -2.006  -9.025  10.003  0.00  0.00    -0.166 F 
ATOM     21  C   UNL     1      -3.304  -9.443  10.068  0.00  0.00    +0.417 C 
ENDBRANCH  19  21
TORSDOF 3
ENDMDL
MODEL 2
REMARK VINA RESULT:      -4.3     15.715     17.611
REMARK  Name = 45784275
REMARK  5 active torsions:
REMARK  status: ('A' for Active; 'I' for Inactive)
REMARK    1  A    between atoms: N_4  and  C_11
REMARK    2  A    between atoms: C_7  and  C_12
REMARK    3  A    between atoms: C_11  and  C_13
REMARK    4  A    between atoms: C_11  and  C_14
REMARK    5  A    between atoms: C_19  and  C_21
REMARK                            x       y       z     vdW  Elec       q    Type
REMARK                         _______ _______ _______ _____ _____    ______ ____
ROOT
ATOM      5  N   UNL     1      -1.707   0.191  24.121  0.00  0.00    -0.342 N 
ATOM      6  N   UNL     1      -0.325   1.930  24.171  0.00  0.00    -0.232 NA
ATOM     12  C   UNL     1      -0.430   0.643  23.931  0.00  0.00    +0.113 A 
ATOM     15  C   UNL     1      -2.476   1.257  24.510  0.00  0.00    +0.067 A 
ATOM     16  C   UNL     1      -1.591   2.331  24.534  0.00  0.00    +0.089 A 
ATOM     17  C   UNL     1      -3.829   1.372  24.832  0.00  0.00    +0.040 A 
ATOM     18  C   UNL     1      -2.065   3.602  24.899  0.00  0.00    +0.030 A 
ATOM     19  C   UNL     1      -4.284   2.644  25.194  0.00  0.00    +0.057 A 
ATOM     20  C   UNL     1      -3.420   3.741  25.228  0.00  0.00    +0.014 A 
ATOM     22  H   UNL     1      -2.031  -0.760  23.998  0.00  0.00    +0.167 HD
ENDROOT
BRANCH  12   7
ATOM      4  N   UNL     1       2.879  -0.325  22.692  0.00  0.00    -0.299 NA
ATOM      7  C   UNL     1       0.676  -0.290  23.496  0.00  0.00    +0.070 C 
ATOM      8  C   UNL     1       2.077   0.281  23.757  0.00  0.00    +0.096 C 
ATOM      9  C   UNL     1       0.672  -0.642  21.998  0.00  0.00    +0.028 C 
ATOM     10  C   UNL     1       2.048  -0.229  21.492  0.00  0.00    +0.085 C 
BRANCH   4  11
ATOM     11  C   UNL     1       4.168   0.329  22.528  0.00  0.00    +0.050 C 
ATOM     13  C   UNL     1       5.167  -0.207  23.549  0.00  0.00    +0.024 C 
ATOM     14  C   UNL     1       3.994   1.838  22.671  0.00  0.00    +0.024 C 
ENDBRANCH   4  11
ENDBRANCH  12   7
BRANCH  19  21
ATOM      1  F   UNL     1      -6.562   2.197  24.683  0.00  0.00    -0.166 F 
ATOM      2  F   UNL     1      -6.044   2.354  26.789  0.00  0.00    -0.166 F 
ATOM      3  F   UNL     1      -6.117   4.138  25.557  0.00  0.00    -0.166 F 
ATOM     21  C   UNL     1      -5.722   2.831  25.551  0.00  0.00    +0.417 C 
ENDBRANCH  19  21
TORSDOF 3
ENDMDL
MODEL 3
REMARK VINA RESULT:      -4.1      1.450      1.989
REMARK  Name = 45784275
REMARK  5 active torsions:
REMARK  status: ('A' for Active; 'I' for Inactive)
REMARK    1  A    between atoms: N_4  and  C_11
REMARK    2  A    between atoms: C_7  and  C_12
REMARK    3  A    between atoms: C_11  and  C_13
REMARK    4  A    between atoms: C_11  and  C_14
REMARK    5  A    between atoms: C_19  and  C_21
REMARK                            x       y       z     vdW  Elec       q    Type
REMARK                         _______ _______ _______ _____ _____    ______ ____
ROOT
ATOM      5  N   UNL     1      -6.955  -9.620  13.673  0.00  0.00    -0.342 N 
ATOM      6  N   UNL     1      -5.108 -10.777  14.113  0.00  0.00    -0.232 NA
ATOM     12  C   UNL     1      -6.281 -10.401  14.571  0.00  0.00    +0.113 A 
ATOM     15  C   UNL     1      -6.163  -9.481  12.562  0.00  0.00    +0.067 A 
ATOM     16  C   UNL     1      -5.017 -10.212  12.860  0.00  0.00    +0.089 A 
ATOM     17  C   UNL     1      -6.346  -8.800  11.358  0.00  0.00    +0.040 A 
ATOM     18  C   UNL     1      -3.981 -10.278  11.914  0.00  0.00    +0.030 A 
ATOM     19  C   UNL     1      -5.305  -8.876  10.427  0.00  0.00    +0.057 A 
ATOM     20  C   UNL     1      -4.142  -9.601  10.698  0.00  0.00    +0.014 A 
ATOM     22  H   UNL     1      -7.873  -9.214  13.802  0.00  0.00    +0.167 HD
ENDROOT
BRANCH  12   7
ATOM      4  N   UNL     1      -8.354  -9.964  17.561  0.00  0.00    -0.299 NA
ATOM      7  C   UNL     1      -6.881 -10.750  15.914  0.00  0.00    +0.070 C 
ATOM      8  C   UNL     1      -8.286 -10.164  16.112  0.00  0.00    +0.096 C 
ATOM      9  C   UNL     1      -6.078 -10.255  17.129  0.00  0.00    +0.028 C 
ATOM     10  C   UNL     1      -7.054  -9.400  17.926  0.00  0.00    +0.085 C 
BRANCH   4  11
ATOM     11  C   UNL     1      -9.460  -9.104  17.951  0.00  0.00    +0.050 C 
ATOM     13  C   UNL     1     -10.719  -9.935  18.186  0.00  0.00    +0.024 C 
ATOM     14  C   UNL     1      -9.692  -8.052  16.871  0.00  0.00    +0.024 C 
ENDBRANCH   4  11
ENDBRANCH  12   7
BRANCH  19  21
ATOM      1  F   UNL     1      -6.555  -8.551   8.432  0.00  0.00    -0.166 F 
ATOM      2  F   UNL     1      -5.531  -6.811   9.241  0.00  0.00    -0.166 F 
ATOM      3  F   UNL     1      -4.393  -8.383   8.272  0.00  0.00    -0.166 F 
ATOM     21  C   UNL     1      -5.441  -8.168   9.120  0.00  0.00    +0.417 C 
ENDBRANCH  19  21
TORSDOF 3
ENDMDL
MODEL 4
REMARK VINA RESULT:      -3.8     25.734     26.669
REMARK  Name = 45784275
REMARK  5 active torsions:
REMARK  status: ('A' for Active; 'I' for Inactive)
REMARK    1  A    between atoms: N_4  and  C_11
REMARK    2  A    between atoms: C_7  and  C_12
REMARK    3  A    between atoms: C_11  and  C_13
REMARK    4  A    between atoms: C_11  and  C_14
REMARK    5  A    between atoms: C_19  and  C_21
REMARK                            x       y       z     vdW  Elec       q    Type
REMARK                         _______ _______ _______ _____ _____    ______ ____
ROOT
ATOM      5  N   UNL     1      16.053  -5.892  27.263  0.00  0.00    -0.342 N 
ATOM      6  N   UNL     1      16.648  -7.663  26.058  0.00  0.00    -0.232 NA
ATOM     12  C   UNL     1      16.711  -6.354  26.156  0.00  0.00    +0.113 A 
ATOM     15  C   UNL     1      15.530  -6.975  27.922  0.00  0.00    +0.067 A 
ATOM     16  C   UNL     1      15.915  -8.068  27.151  0.00  0.00    +0.089 A 
ATOM     17  C   UNL     1      14.778  -7.088  29.091  0.00  0.00    +0.040 A 
ATOM     18  C   UNL     1      15.534  -9.359  27.554  0.00  0.00    +0.030 A 
ATOM     19  C   UNL     1      14.407  -8.380  29.478  0.00  0.00    +0.057 A 
ATOM     20  C   UNL     1      14.778  -9.497  28.725  0.00  0.00    +0.014 A 
ATOM     22  H   UNL     1      15.965  -4.925  27.547  0.00  0.00    +0.167 HD
ENDROOT
BRANCH  12   7
ATOM      4  N   UNL     1      17.157  -3.353  24.101  0.00  0.00    -0.299 NA
ATOM      7  C   UNL     1      17.405  -5.409  25.204  0.00  0.00    +0.070 C 
ATOM      8  C   UNL     1      17.027  -3.940  25.437  0.00  0.00    +0.096 C 
ATOM      9  C   UNL     1      17.107  -5.656  23.715  0.00  0.00    +0.028 C 
ATOM     10  C   UNL     1      16.554  -4.334  23.198  0.00  0.00    +0.085 C 
BRANCH   4  11
ATOM     11  C   UNL     1      16.524  -2.048  24.004  0.00  0.00    +0.050 C 
ATOM     13  C   UNL     1      16.866  -1.393  22.668  0.00  0.00    +0.024 C 
ATOM     14  C   UNL     1      16.973  -1.177  25.172  0.00  0.00    +0.024 C 
ENDBRANCH   4  11
ENDBRANCH  12   7
BRANCH  19  21
ATOM      1  F   UNL     1      12.467  -7.809  30.727  0.00  0.00    -0.166 F 
ATOM      2  F   UNL     1      13.184  -9.853  30.913  0.00  0.00    -0.166 F 
ATOM      3  F   UNL     1      14.272  -8.235  31.862  0.00  0.00    -0.166 F 
ATOM     21  C   UNL     1      13.601  -8.567  30.721  0.00  0.00    +0.417 C 
ENDBRANCH  19  21
TORSDOF 3
ENDMDL
MODEL 5
REMARK VINA RESULT:      -2.7     15.280     16.423
REMARK  Name = 45784275
REMARK  5 active torsions:
REMARK  status: ('A' for Active; 'I' for Inactive)
REMARK    1  A    between atoms: N_4  and  C_11
REMARK    2  A    between atoms: C_7  and  C_12
REMARK    3  A    between atoms: C_11  and  C_13
REMARK    4  A    between atoms: C_11  and  C_14
REMARK    5  A    between atoms: C_19  and  C_21
REMARK                            x       y       z     vdW  Elec       q    Type
REMARK                         _______ _______ _______ _____ _____    ______ ____
ROOT
ATOM      5  N   UNL     1      -0.150   2.663  24.768  0.00  0.00    -0.342 N 
ATOM      6  N   UNL     1      -1.572   1.052  24.200  0.00  0.00    -0.232 NA
ATOM     12  C   UNL     1      -1.441   2.212  24.803  0.00  0.00    +0.113 A 
ATOM     15  C   UNL     1       0.602   1.731  24.101  0.00  0.00    +0.067 A 
ATOM     16  C   UNL     1      -0.307   0.735  23.756  0.00  0.00    +0.089 A 
ATOM     17  C   UNL     1       1.958   1.675  23.778  0.00  0.00    +0.040 A 
ATOM     18  C   UNL     1       0.145  -0.391  23.048  0.00  0.00    +0.030 A 
ATOM     19  C   UNL     1       2.392   0.548  23.073  0.00  0.00    +0.057 A 
ATOM     20  C   UNL     1       1.503  -0.468  22.713  0.00  0.00    +0.014 A 
ATOM     22  H   UNL     1       0.193   3.528  25.164  0.00  0.00    +0.167 HD
ENDROOT
BRANCH  12   7
ATOM      4  N   UNL     1      -4.863   3.151  25.715  0.00  0.00    -0.299 NA
ATOM      7  C   UNL     1      -2.534   3.011  25.473  0.00  0.00    +0.070 C 
ATOM      8  C   UNL     1      -3.778   2.171  25.795  0.00  0.00    +0.096 C 
ATOM      9  C   UNL     1      -3.067   4.195  24.648  0.00  0.00    +0.028 C 
ATOM     10  C   UNL     1      -4.565   3.948  24.525  0.00  0.00    +0.085 C 
BRANCH   4  11
ATOM     11  C   UNL     1      -6.173   2.524  25.649  0.00  0.00    +0.050 C 
ATOM     13  C   UNL     1      -6.492   1.824  26.967  0.00  0.00    +0.024 C 
ATOM     14  C   UNL     1      -6.208   1.541  24.484  0.00  0.00    +0.024 C 
ENDBRANCH   4  11
ENDBRANCH  12   7
BRANCH  19  21
ATOM      1  F   UNL     1       4.032   0.524  21.352  0.00  0.00    -0.166 F 
ATOM      2  F   UNL     1       4.622   1.393  23.256  0.00  0.00    -0.166 F 
ATOM      3  F   UNL     1       4.397  -0.756  23.071  0.00  0.00    -0.166 F 
ATOM     21  C   UNL     1       3.832   0.430  22.698  0.00  0.00    +0.417 C 
ENDBRANCH  19  21
TORSDOF 3
ENDMDL
MODEL 6
REMARK VINA RESULT:      -2.4     15.198     17.110
REMARK  Name = 45784275
REMARK  5 active torsions:
REMARK  status: ('A' for Active; 'I' for Inactive)
REMARK    1  A    between atoms: N_4  and  C_11
REMARK    2  A    between atoms: C_7  and  C_12
REMARK    3  A    between atoms: C_11  and  C_13
REMARK    4  A    between atoms: C_11  and  C_14
REMARK    5  A    between atoms: C_19  and  C_21
REMARK                            x       y       z     vdW  Elec       q    Type
REMARK                         _______ _______ _______ _____ _____    ______ ____
ROOT
ATOM      5  N   UNL     1      -0.691   0.717  23.313  0.00  0.00    -0.342 N 
ATOM      6  N   UNL     1      -0.867  -1.286  24.261  0.00  0.00    -0.232 NA
ATOM     12  C   UNL     1      -0.122  -0.512  23.504  0.00  0.00    +0.113 A 
ATOM     15  C   UNL     1      -1.883   0.737  23.991  0.00  0.00    +0.067 A 
ATOM     16  C   UNL     1      -1.970  -0.524  24.574  0.00  0.00    +0.089 A 
ATOM     17  C   UNL     1      -2.862   1.719  24.140  0.00  0.00    +0.040 A 
ATOM     18  C   UNL     1      -3.094  -0.842  25.355  0.00  0.00    +0.030 A 
ATOM     19  C   UNL     1      -3.975   1.386  24.920  0.00  0.00    +0.057 A 
ATOM     20  C   UNL     1      -4.090   0.129  25.519  0.00  0.00    +0.014 A 
ATOM     22  H   UNL     1      -0.306   1.478  22.769  0.00  0.00    +0.167 HD
ENDROOT
BRANCH  12   7
ATOM      4  N   UNL     1       3.526  -0.632  23.180  0.00  0.00    -0.299 NA
ATOM      7  C   UNL     1       1.211  -0.864  22.885  0.00  0.00    +0.070 C 
ATOM      8  C   UNL     1       2.328  -1.028  23.924  0.00  0.00    +0.096 C 
ATOM      9  C   UNL     1       1.755   0.174  21.888  0.00  0.00    +0.028 C 
ATOM     10  C   UNL     1       3.126   0.558  22.428  0.00  0.00    +0.085 C 
BRANCH   4  11
ATOM     11  C   UNL     1       4.663  -0.381  24.051  0.00  0.00    +0.050 C 
ATOM     13  C   UNL     1       5.460   0.820  23.548  0.00  0.00    +0.024 C 
ATOM     14  C   UNL     1       5.536  -1.629  24.120  0.00  0.00    +0.024 C 
ENDBRANCH   4  11
ENDBRANCH  12   7
BRANCH  19  21
ATOM      1  F   UNL     1      -4.824   3.552  24.433  0.00  0.00    -0.166 F 
ATOM      2  F   UNL     1      -6.286   1.965  24.707  0.00  0.00    -0.166 F 
ATOM      3  F   UNL     1      -5.225   2.767  26.421  0.00  0.00    -0.166 F 
ATOM     21  C   UNL     1      -5.057   2.396  25.117  0.00  0.00    +0.417 C 
ENDBRANCH  19  21
TORSDOF 3
ENDMDL
MODEL 7
REMARK VINA RESULT:      -2.2     16.330     18.131
REMARK  Name = 45784275
REMARK  5 active torsions:
REMARK  status: ('A' for Active; 'I' for Inactive)
REMARK    1  A    between atoms: N_4  and  C_11
REMARK    2  A    between atoms: C_7  and  C_12
REMARK    3  A    between atoms: C_11  and  C_13
REMARK    4  A    between atoms: C_11  and  C_14
REMARK    5  A    between atoms: C_19  and  C_21
REMARK                            x       y       z     vdW  Elec       q    Type
REMARK                         _______ _______ _______ _____ _____    ______ ____
ROOT
ATOM      5  N   UNL     1       0.905   1.486  23.740  0.00  0.00    -0.342 N 
ATOM      6  N   UNL     1      -0.238  -0.414  23.585  0.00  0.00    -0.232 NA
ATOM     12  C   UNL     1       0.915   0.174  23.356  0.00  0.00    +0.113 A 
ATOM     15  C   UNL     1      -0.338   1.764  24.250  0.00  0.00    +0.067 A 
ATOM     16  C   UNL     1      -1.032   0.563  24.142  0.00  0.00    +0.089 A 
ATOM     17  C   UNL     1      -0.896   2.928  24.780  0.00  0.00    +0.040 A 
ATOM     18  C   UNL     1      -2.364   0.500  24.584  0.00  0.00    +0.030 A 
ATOM     19  C   UNL     1      -2.223   2.848  25.215  0.00  0.00    +0.057 A 
ATOM     20  C   UNL     1      -2.946   1.656  25.120  0.00  0.00    +0.014 A 
ATOM     22  H   UNL     1       1.674   2.139  23.663  0.00  0.00    +0.167 HD
ENDROOT
BRANCH  12   7
ATOM      4  N   UNL     1       4.465  -0.668  23.023  0.00  0.00    -0.299 NA
ATOM      7  C   UNL     1       2.145  -0.456  22.747  0.00  0.00    +0.070 C 
ATOM      8  C   UNL     1       3.222  -0.792  23.788  0.00  0.00    +0.096 C 
ATOM      9  C   UNL     1       2.869   0.414  21.705  0.00  0.00    +0.028 C 
ATOM     10  C   UNL     1       4.296   0.545  22.223  0.00  0.00    +0.085 C 
BRANCH   4  11
ATOM     11  C   UNL     1       5.640  -0.607  23.878  0.00  0.00    +0.050 C 
ATOM     13  C   UNL     1       5.567   0.614  24.792  0.00  0.00    +0.024 C 
ATOM     14  C   UNL     1       6.896  -0.571  23.015  0.00  0.00    +0.024 C 
ENDBRANCH   4  11
ENDBRANCH  12   7
BRANCH  19  21
ATOM      1  F   UNL     1      -3.052   3.966  27.142  0.00  0.00    -0.166 F 
ATOM      2  F   UNL     1      -2.170   5.209  25.591  0.00  0.00    -0.166 F 
ATOM      3  F   UNL     1      -4.117   4.307  25.277  0.00  0.00    -0.166 F 
ATOM     21  C   UNL     1      -2.877   4.059  25.792  0.00  0.00    +0.417 C 
ENDBRANCH  19  21
TORSDOF 3
ENDMDL
MODEL 8
REMARK VINA RESULT:      -1.2     14.980     15.891
REMARK  Name = 45784275
REMARK  5 active torsions:
REMARK  status: ('A' for Active; 'I' for Inactive)
REMARK    1  A    between atoms: N_4  and  C_11
REMARK    2  A    between atoms: C_7  and  C_12
REMARK    3  A    between atoms: C_11  and  C_13
REMARK    4  A    between atoms: C_11  and  C_14
REMARK    5  A    between atoms: C_19  and  C_21
REMARK                            x       y       z     vdW  Elec       q    Type
REMARK                         _______ _______ _______ _____ _____    ______ ____
ROOT
ATOM      5  N   UNL     1       0.102  -0.950  23.919  0.00  0.00    -0.342 N 
ATOM      6  N   UNL     1      -0.200   1.153  23.266  0.00  0.00    -0.232 NA
ATOM     12  C   UNL     1      -0.796   0.044  23.643  0.00  0.00    +0.113 A 
ATOM     15  C   UNL     1       1.360  -0.450  23.704  0.00  0.00    +0.067 A 
ATOM     16  C   UNL     1       1.146   0.863  23.298  0.00  0.00    +0.089 A 
ATOM     17  C   UNL     1       2.629  -1.017  23.828  0.00  0.00    +0.040 A 
ATOM     18  C   UNL     1       2.251   1.675  22.992  0.00  0.00    +0.030 A 
ATOM     19  C   UNL     1       3.719  -0.196  23.520  0.00  0.00    +0.057 A 
ATOM     20  C   UNL     1       3.535   1.127  23.109  0.00  0.00    +0.014 A 
ATOM     22  H   UNL     1      -0.120  -1.889  24.225  0.00  0.00    +0.167 HD
ENDROOT
BRANCH  12   7
ATOM      4  N   UNL     1      -4.285   0.884  24.380  0.00  0.00    -0.299 NA
ATOM      7  C   UNL     1      -2.284  -0.181  23.779  0.00  0.00    +0.070 C 
ATOM      8  C   UNL     1      -3.106   1.093  23.537  0.00  0.00    +0.096 C 
ATOM      9  C   UNL     1      -2.737  -0.680  25.162  0.00  0.00    +0.028 C 
ATOM     10  C   UNL     1      -3.761   0.344  25.635  0.00  0.00    +0.085 C 
BRANCH   4  11
ATOM     11  C   UNL     1      -5.048   2.107  24.580  0.00  0.00    +0.050 C 
ATOM     13  C   UNL     1      -4.115   3.315  24.596  0.00  0.00    +0.024 C 
ATOM     14  C   UNL     1      -5.838   2.006  25.880  0.00  0.00    +0.024 C 
ENDBRANCH   4  11
ENDBRANCH  12   7
BRANCH  19  21
ATOM      1  F   UNL     1       5.133  -2.106  23.555  0.00  0.00    -0.166 F 
ATOM      2  F   UNL     1       5.946  -0.302  22.655  0.00  0.00    -0.166 F 
ATOM      3  F   UNL     1       5.720  -0.429  24.809  0.00  0.00    -0.166 F 
ATOM     21  C   UNL     1       5.102  -0.745  23.632  0.00  0.00    +0.417 C 
ENDBRANCH  19  21
TORSDOF 3
ENDMDL
