MODEL 1
REMARK VINA RESULT:      -3.1      0.000      0.000
REMARK  Name = 11883407
REMARK  7 active torsions:
REMARK  status: ('A' for Active; 'I' for Inactive)
REMARK    1  A    between atoms: O_6  and  C_15
REMARK    2  A    between atoms: O_6  and  C_19
REMARK    3  A    between atoms: N_9  and  C_14
REMARK    4  A    between atoms: N_10  and  C_20
REMARK    5  A    between atoms: N_11  and  C_21
REMARK    6  A    between atoms: C_20  and  C_22
REMARK    7  A    between atoms: C_27  and  C_32
REMARK                            x       y       z     vdW  Elec       q    Type
REMARK                         _______ _______ _______ _____ _____    ______ ____
ROOT
ATOM      4  O   UNL     1      -3.397   3.136  24.089  0.00  0.00    -0.368 OA
ATOM      5  O   UNL     1      -3.148   5.256  26.291  0.00  0.00    -0.368 OA
ATOM     12  C   UNL     1      -2.371   4.072  26.012  0.00  0.00    +0.173 C 
ATOM     13  C   UNL     1      -3.342   3.016  25.521  0.00  0.00    +0.192 C 
ATOM     14  C   UNL     1      -1.467   4.312  24.825  0.00  0.00    +0.131 C 
ATOM     15  C   UNL     1      -4.638   3.438  26.168  0.00  0.00    +0.235 C 
ATOM     16  C   UNL     1      -2.404   4.076  23.652  0.00  0.00    +0.185 C 
ATOM     17  C   UNL     1      -4.539   4.947  26.127  0.00  0.00    +0.207 C 
ENDROOT
BRANCH  14   9
ATOM      7  O   UNL     1      -1.066   2.120  22.992  0.00  0.00    -0.253 OA
ATOM      9  N   UNL     1      -0.364   3.382  24.811  0.00  0.00    -0.292 N 
ATOM     10  N   UNL     1       0.907   1.601  24.097  0.00  0.00    -0.295 N 
ATOM     18  C   UNL     1      -0.250   2.347  23.884  0.00  0.00    +0.300 C 
ATOM     34  H   UNL     1       0.398   3.523  25.467  0.00  0.00    +0.151 HD
ATOM     35  H   UNL     1       1.534   1.876  24.847  0.00  0.00    +0.151 HD
BRANCH  10  20
ATOM     20  C   UNL     1       1.270   0.468  23.278  0.00  0.00    +0.141 C 
BRANCH  20  22
ATOM     22  C   UNL     1       2.736   0.157  23.368  0.00  0.00    -0.030 A 
ATOM     25  C   UNL     1       3.156  -1.108  23.779  0.00  0.00    +0.005 A 
ATOM     26  C   UNL     1       3.678   1.133  23.040  0.00  0.00    +0.005 A 
ATOM     30  C   UNL     1       4.518  -1.397  23.862  0.00  0.00    +0.000 A 
ATOM     31  C   UNL     1       5.040   0.844  23.123  0.00  0.00    +0.000 A 
ATOM     33  C   UNL     1       5.460  -0.421  23.535  0.00  0.00    +0.000 A 
ENDBRANCH  20  22
ENDBRANCH  10  20
ENDBRANCH  14   9
BRANCH  15   6
ATOM      6  O   UNL     1      -5.784   2.964  25.496  0.00  0.00    -0.442 OA
BRANCH   6  19
ATOM      8  O   UNL     1      -6.607   1.218  24.271  0.00  0.00    -0.226 OA
ATOM     11  N   UNL     1      -4.483   1.139  25.250  0.00  0.00    -0.251 N 
ATOM     19  C   UNL     1      -5.702   1.706  24.937  0.00  0.00    +0.405 C 
ATOM     36  H   UNL     1      -3.857   1.703  25.820  0.00  0.00    +0.158 HD
BRANCH  11  21
ATOM     21  C   UNL     1      -3.994  -0.135  24.879  0.00  0.00    +0.037 A 
ATOM     23  C   UNL     1      -2.668  -0.477  25.142  0.00  0.00    +0.035 A 
ATOM     24  C   UNL     1      -4.838  -1.049  24.248  0.00  0.00    +0.023 A 
ATOM     27  C   UNL     1      -2.186  -1.733  24.776  0.00  0.00    +0.057 A 
ATOM     28  C   UNL     1      -4.355  -2.306  23.882  0.00  0.00    +0.002 A 
ATOM     29  C   UNL     1      -3.029  -2.648  24.145  0.00  0.00    +0.012 A 
BRANCH  27  32
ATOM      1  F   UNL     1      -0.596  -3.418  25.373  0.00  0.00    -0.166 F 
ATOM      2  F   UNL     1      -0.220  -1.410  26.101  0.00  0.00    -0.166 F 
ATOM      3  F   UNL     1       0.055  -1.869  23.993  0.00  0.00    -0.166 F 
ATOM     32  C   UNL     1      -0.768  -2.100  25.058  0.00  0.00    +0.417 C 
ENDBRANCH  27  32
ENDBRANCH  11  21
ENDBRANCH   6  19
ENDBRANCH  15   6
TORSDOF 7
ENDMDL
MODEL 2
REMARK VINA RESULT:      -2.1      2.542      4.873
REMARK  Name = 11883407
REMARK  7 active torsions:
REMARK  status: ('A' for Active; 'I' for Inactive)
REMARK    1  A    between atoms: O_6  and  C_15
REMARK    2  A    between atoms: O_6  and  C_19
REMARK    3  A    between atoms: N_9  and  C_14
REMARK    4  A    between atoms: N_10  and  C_20
REMARK    5  A    between atoms: N_11  and  C_21
REMARK    6  A    between atoms: C_20  and  C_22
REMARK    7  A    between atoms: C_27  and  C_32
REMARK                            x       y       z     vdW  Elec       q    Type
REMARK                         _______ _______ _______ _____ _____    ______ ____
ROOT
ATOM      4  O   UNL     1      -3.416  -0.444  25.789  0.00  0.00    -0.368 OA
ATOM      5  O   UNL     1      -3.314  -2.893  23.946  0.00  0.00    -0.368 OA
ATOM     12  C   UNL     1      -2.469  -1.725  24.032  0.00  0.00    +0.173 C 
ATOM     13  C   UNL     1      -3.375  -0.552  24.356  0.00  0.00    +0.192 C 
ATOM     14  C   UNL     1      -1.564  -1.827  25.237  0.00  0.00    +0.131 C 
ATOM     15  C   UNL     1      -4.701  -0.997  23.790  0.00  0.00    +0.235 C 
ATOM     16  C   UNL     1      -2.470  -1.359  26.363  0.00  0.00    +0.185 C 
ATOM     17  C   UNL     1      -4.684  -2.484  24.067  0.00  0.00    +0.207 C 
ENDROOT
BRANCH  14   9
ATOM      7  O   UNL     1      -0.021  -1.359  22.843  0.00  0.00    -0.253 OA
ATOM      9  N   UNL     1      -0.412  -0.969  25.099  0.00  0.00    -0.292 N 
ATOM     10  N   UNL     1       1.346   0.079  24.046  0.00  0.00    -0.295 N 
ATOM     18  C   UNL     1       0.277  -0.802  23.899  0.00  0.00    +0.300 C 
ATOM     34  H   UNL     1      -0.124  -0.412  25.898  0.00  0.00    +0.151 HD
ATOM     35  H   UNL     1       1.502   0.510  24.953  0.00  0.00    +0.151 HD
BRANCH  10  20
ATOM     20  C   UNL     1       2.226   0.431  22.957  0.00  0.00    +0.141 C 
BRANCH  20  22
ATOM     22  C   UNL     1       3.651   0.051  23.241  0.00  0.00    -0.030 A 
ATOM     25  C   UNL     1       4.669   0.989  23.072  0.00  0.00    +0.005 A 
ATOM     26  C   UNL     1       3.956  -1.240  23.674  0.00  0.00    +0.005 A 
ATOM     30  C   UNL     1       5.992   0.637  23.337  0.00  0.00    +0.000 A 
ATOM     31  C   UNL     1       5.280  -1.592  23.938  0.00  0.00    +0.000 A 
ATOM     33  C   UNL     1       6.298  -0.654  23.769  0.00  0.00    +0.000 A 
ENDBRANCH  20  22
ENDBRANCH  10  20
ENDBRANCH  14   9
BRANCH  15   6
ATOM      6  O   UNL     1      -5.809  -0.361  24.385  0.00  0.00    -0.442 OA
BRANCH   6  19
ATOM      8  O   UNL     1      -6.212   1.173  26.033  0.00  0.00    -0.226 OA
ATOM     11  N   UNL     1      -4.516   1.486  24.450  0.00  0.00    -0.251 N 
ATOM     19  C   UNL     1      -5.565   0.821  25.055  0.00  0.00    +0.405 C 
ATOM     36  H   UNL     1      -4.102   1.031  23.641  0.00  0.00    +0.158 HD
BRANCH  11  21
ATOM     21  C   UNL     1      -3.947   2.728  24.815  0.00  0.00    +0.037 A 
ATOM     23  C   UNL     1      -2.576   2.937  24.667  0.00  0.00    +0.035 A 
ATOM     24  C   UNL     1      -4.757   3.743  25.325  0.00  0.00    +0.023 A 
ATOM     27  C   UNL     1      -2.014   4.161  25.027  0.00  0.00    +0.057 A 
ATOM     28  C   UNL     1      -4.194   4.968  25.686  0.00  0.00    +0.002 A 
ATOM     29  C   UNL     1      -2.823   5.177  25.537  0.00  0.00    +0.012 A 
BRANCH  27  32
ATOM      1  F   UNL     1      -0.183   5.699  24.965  0.00  0.00    -0.166 F 
ATOM      2  F   UNL     1      -0.057   3.966  23.666  0.00  0.00    -0.166 F 
ATOM      3  F   UNL     1       0.188   3.731  25.814  0.00  0.00    -0.166 F 
ATOM     32  C   UNL     1      -0.549   4.386  24.869  0.00  0.00    +0.417 C 
ENDBRANCH  27  32
ENDBRANCH  11  21
ENDBRANCH   6  19
ENDBRANCH  15   6
TORSDOF 7
ENDMDL
MODEL 3
REMARK VINA RESULT:      -1.5      2.559      6.400
REMARK  Name = 11883407
REMARK  7 active torsions:
REMARK  status: ('A' for Active; 'I' for Inactive)
REMARK    1  A    between atoms: O_6  and  C_15
REMARK    2  A    between atoms: O_6  and  C_19
REMARK    3  A    between atoms: N_9  and  C_14
REMARK    4  A    between atoms: N_10  and  C_20
REMARK    5  A    between atoms: N_11  and  C_21
REMARK    6  A    between atoms: C_20  and  C_22
REMARK    7  A    between atoms: C_27  and  C_32
REMARK                            x       y       z     vdW  Elec       q    Type
REMARK                         _______ _______ _______ _____ _____    ______ ____
ROOT
ATOM      4  O   UNL     1      -2.549  -0.434  23.916  0.00  0.00    -0.368 OA
ATOM      5  O   UNL     1      -4.900  -2.402  23.961  0.00  0.00    -0.368 OA
ATOM     12  C   UNL     1      -4.566  -1.292  24.821  0.00  0.00    +0.173 C 
ATOM     13  C   UNL     1      -3.056  -1.283  24.960  0.00  0.00    +0.192 C 
ATOM     14  C   UNL     1      -4.874   0.014  24.126  0.00  0.00    +0.131 C 
ATOM     15  C   UNL     1      -2.698  -2.730  24.727  0.00  0.00    +0.235 C 
ATOM     16  C   UNL     1      -3.646   0.212  23.252  0.00  0.00    +0.185 C 
ATOM     17  C   UNL     1      -3.705  -3.144  23.677  0.00  0.00    +0.207 C 
ENDROOT
BRANCH  14   9
ATOM      7  O   UNL     1      -3.494   2.549  24.108  0.00  0.00    -0.253 OA
ATOM      9  N   UNL     1      -5.021   1.090  25.075  0.00  0.00    -0.292 N 
ATOM     10  N   UNL     1      -4.643   3.149  26.032  0.00  0.00    -0.295 N 
ATOM     18  C   UNL     1      -4.310   2.286  24.990  0.00  0.00    +0.300 C 
ATOM     34  H   UNL     1      -5.720   0.999  25.806  0.00  0.00    +0.151 HD
ATOM     35  H   UNL     1      -5.346   2.855  26.703  0.00  0.00    +0.151 HD
BRANCH  10  20
ATOM     20  C   UNL     1      -4.052   4.458  26.183  0.00  0.00    +0.141 C 
BRANCH  20  22
ATOM     22  C   UNL     1      -2.604   4.471  25.784  0.00  0.00    -0.030 A 
ATOM     25  C   UNL     1      -1.764   3.429  26.177  0.00  0.00    +0.005 A 
ATOM     26  C   UNL     1      -2.101   5.524  25.020  0.00  0.00    +0.005 A 
ATOM     30  C   UNL     1      -0.420   3.441  25.806  0.00  0.00    +0.000 A 
ATOM     31  C   UNL     1      -0.755   5.535  24.650  0.00  0.00    +0.000 A 
ATOM     33  C   UNL     1       0.085   4.493  25.043  0.00  0.00    +0.000 A 
ENDBRANCH  20  22
ENDBRANCH  10  20
ENDBRANCH  14   9
BRANCH  15   6
ATOM      6  O   UNL     1      -1.371  -2.920  24.292  0.00  0.00    -0.442 OA
BRANCH   6  19
ATOM      8  O   UNL     1      -0.190  -1.670  25.800  0.00  0.00    -0.226 OA
ATOM     11  N   UNL     1       0.067  -1.377  23.491  0.00  0.00    -0.251 N 
ATOM     19  C   UNL     1      -0.457  -1.945  24.636  0.00  0.00    +0.405 C 
ATOM     36  H   UNL     1      -0.282  -1.742  22.609  0.00  0.00    +0.158 HD
BRANCH  11  21
ATOM     21  C   UNL     1       1.030  -0.346  23.393  0.00  0.00    +0.037 A 
ATOM     23  C   UNL     1       2.388  -0.659  23.378  0.00  0.00    +0.035 A 
ATOM     24  C   UNL     1       0.619   0.985  23.311  0.00  0.00    +0.023 A 
ATOM     27  C   UNL     1       3.338   0.357  23.280  0.00  0.00    +0.057 A 
ATOM     28  C   UNL     1       1.569   2.002  23.214  0.00  0.00    +0.002 A 
ATOM     29  C   UNL     1       2.928   1.688  23.199  0.00  0.00    +0.012 A 
BRANCH  27  32
ATOM      1  F   UNL     1       5.548   0.833  24.061  0.00  0.00    -0.166 F 
ATOM      2  F   UNL     1       5.359   0.110  22.025  0.00  0.00    -0.166 F 
ATOM      3  F   UNL     1       5.041  -1.249  23.692  0.00  0.00    -0.166 F 
ATOM     32  C   UNL     1       4.791   0.023  23.264  0.00  0.00    +0.417 C 
ENDBRANCH  27  32
ENDBRANCH  11  21
ENDBRANCH   6  19
ENDBRANCH  15   6
TORSDOF 7
ENDMDL
