MODEL 1
REMARK VINA RESULT:      -3.1      0.000      0.000
REMARK  Name = 11913357
REMARK  5 active torsions:
REMARK  status: ('A' for Active; 'I' for Inactive)
REMARK    1  A    between atoms: N_5  and  C_12
REMARK    2  A    between atoms: N_6  and  C_13
REMARK    3  A    between atoms: N_7  and  C_18
REMARK    4  A    between atoms: C_18  and  C_23
REMARK    5  A    between atoms: C_19  and  C_22
REMARK                            x       y       z     vdW  Elec       q    Type
REMARK                         _______ _______ _______ _____ _____    ______ ____
ROOT
ATOM      2  O   UNL     1      -2.617  -2.512  23.879  0.00  0.00    -0.370 OA
ATOM      3  O   UNL     1      -1.195  -1.256  26.331  0.00  0.00    -0.370 OA
ATOM     10  C   UNL     1      -2.278  -0.804  25.498  0.00  0.00    +0.171 C 
ATOM     11  C   UNL     1      -1.964  -1.247  24.082  0.00  0.00    +0.171 C 
ATOM     12  C   UNL     1      -3.546  -1.548  25.843  0.00  0.00    +0.130 C 
ATOM     13  C   UNL     1      -0.460  -1.424  24.075  0.00  0.00    +0.131 C 
ATOM     14  C   UNL     1      -3.413  -2.824  25.033  0.00  0.00    +0.185 C 
ATOM     15  C   UNL     1      -0.191  -1.865  25.505  0.00  0.00    +0.185 C 
ENDROOT
BRANCH  12   5
ATOM      5  N   UNL     1      -4.699  -0.793  25.405  0.00  0.00    -0.306 N 
ATOM      8  N   UNL     1      -3.478   1.206  25.274  0.00  0.00    -0.214 NA
ATOM      9  N   UNL     1      -5.821   1.150  24.718  0.00  0.00    -0.223 NA
ATOM     16  C   UNL     1      -4.665   0.562  25.124  0.00  0.00    +0.216 A 
ATOM     19  C   UNL     1      -3.481   2.526  24.992  0.00  0.00    +0.076 A 
ATOM     20  C   UNL     1      -5.753   2.471  24.453  0.00  0.00    +0.116 A 
ATOM     21  C   UNL     1      -4.599   3.217  24.573  0.00  0.00    +0.048 A 
ATOM     29  H   UNL     1      -5.576  -1.275  25.240  0.00  0.00    +0.149 HD
BRANCH  19  22
ATOM      1  F   UNL     1       1.129   2.499  26.431  0.00  0.00    -0.205 F 
ATOM     22  C   UNL     1      -2.210   3.190  25.156  0.00  0.00    +0.003 A 
ATOM     24  C   UNL     1      -1.131   2.511  25.725  0.00  0.00    +0.048 A 
ATOM     25  C   UNL     1      -2.056   4.517  24.746  0.00  0.00    +0.010 A 
ATOM     26  C   UNL     1       0.096   3.153  25.884  0.00  0.00    +0.124 A 
ATOM     27  C   UNL     1      -0.828   5.160  24.905  0.00  0.00    +0.003 A 
ATOM     28  C   UNL     1       0.248   4.478  25.474  0.00  0.00    +0.038 A 
ENDBRANCH  19  22
ENDBRANCH  12   5
BRANCH  13   6
ATOM      4  O   UNL     1       2.246  -1.015  23.125  0.00  0.00    -0.253 OA
ATOM      6  N   UNL     1       0.205  -0.149  23.817  0.00  0.00    -0.292 N 
ATOM      7  N   UNL     1       1.902   1.279  23.198  0.00  0.00    -0.300 N 
ATOM     17  C   UNL     1       1.518  -0.051  23.359  0.00  0.00    +0.300 C 
ATOM     30  H   UNL     1      -0.334   0.705  23.918  0.00  0.00    +0.151 HD
ATOM     31  H   UNL     1       1.233   2.011  23.418  0.00  0.00    +0.150 HD
BRANCH   7  18
ATOM     18  C   UNL     1       3.212   1.665  22.734  0.00  0.00    +0.102 C 
ATOM     23  C   UNL     1       4.265   0.653  23.138  0.00  0.00    +0.024 C 
ENDBRANCH   7  18
ENDBRANCH  13   6
TORSDOF 4
ENDMDL
MODEL 2
REMARK VINA RESULT:      -2.4      2.644      5.196
REMARK  Name = 11913357
REMARK  5 active torsions:
REMARK  status: ('A' for Active; 'I' for Inactive)
REMARK    1  A    between atoms: N_5  and  C_12
REMARK    2  A    between atoms: N_6  and  C_13
REMARK    3  A    between atoms: N_7  and  C_18
REMARK    4  A    between atoms: C_18  and  C_23
REMARK    5  A    between atoms: C_19  and  C_22
REMARK                            x       y       z     vdW  Elec       q    Type
REMARK                         _______ _______ _______ _____ _____    ______ ____
ROOT
ATOM      2  O   UNL     1      -0.840   4.510  25.649  0.00  0.00    -0.370 OA
ATOM      3  O   UNL     1      -1.053   2.491  23.306  0.00  0.00    -0.370 OA
ATOM     10  C   UNL     1      -1.989   2.913  24.313  0.00  0.00    +0.171 C 
ATOM     11  C   UNL     1      -1.202   3.118  25.593  0.00  0.00    +0.171 C 
ATOM     12  C   UNL     1      -2.522   4.287  23.985  0.00  0.00    +0.130 C 
ATOM     13  C   UNL     1       0.032   2.262  25.410  0.00  0.00    +0.131 C 
ATOM     14  C   UNL     1      -1.453   5.203  24.551  0.00  0.00    +0.185 C 
ATOM     15  C   UNL     1       0.242   2.333  23.906  0.00  0.00    +0.185 C 
ENDROOT
BRANCH  12   5
ATOM      5  N   UNL     1      -3.781   4.505  24.665  0.00  0.00    -0.306 N 
ATOM      8  N   UNL     1      -4.155   2.206  24.947  0.00  0.00    -0.214 NA
ATOM      9  N   UNL     1      -5.741   3.826  25.761  0.00  0.00    -0.223 NA
ATOM     16  C   UNL     1      -4.583   3.482  25.139  0.00  0.00    +0.216 A 
ATOM     19  C   UNL     1      -4.961   1.234  25.420  0.00  0.00    +0.076 A 
ATOM     20  C   UNL     1      -6.499   2.804  26.211  0.00  0.00    +0.116 A 
ATOM     21  C   UNL     1      -6.156   1.476  26.067  0.00  0.00    +0.048 A 
ATOM     29  H   UNL     1      -4.083   5.454  24.859  0.00  0.00    +0.149 HD
BRANCH  19  22
ATOM      1  F   UNL     1      -4.484  -2.667  22.612  0.00  0.00    -0.205 F 
ATOM     22  C   UNL     1      -4.487  -0.112  25.207  0.00  0.00    +0.003 A 
ATOM     24  C   UNL     1      -4.718  -0.753  23.988  0.00  0.00    +0.048 A 
ATOM     25  C   UNL     1      -3.796  -0.780  26.221  0.00  0.00    +0.010 A 
ATOM     26  C   UNL     1      -4.260  -2.055  23.783  0.00  0.00    +0.124 A 
ATOM     27  C   UNL     1      -3.338  -2.082  26.015  0.00  0.00    +0.003 A 
ATOM     28  C   UNL     1      -3.570  -2.719  24.797  0.00  0.00    +0.038 A 
ENDBRANCH  19  22
ENDBRANCH  12   5
BRANCH  13   6
ATOM      4  O   UNL     1       0.554  -0.143  23.878  0.00  0.00    -0.253 OA
ATOM      6  N   UNL     1      -0.239   0.881  25.806  0.00  0.00    -0.292 N 
ATOM      7  N   UNL     1      -0.311  -1.412  25.617  0.00  0.00    -0.300 N 
ATOM     17  C   UNL     1       0.048  -0.217  24.997  0.00  0.00    +0.300 C 
ATOM     30  H   UNL     1      -0.596   0.709  26.741  0.00  0.00    +0.151 HD
ATOM     31  H   UNL     1      -0.725  -1.377  26.544  0.00  0.00    +0.150 HD
BRANCH   7  18
ATOM     18  C   UNL     1      -0.122  -2.702  24.999  0.00  0.00    +0.102 C 
ATOM     23  C   UNL     1      -0.977  -2.853  23.757  0.00  0.00    +0.024 C 
ENDBRANCH   7  18
ENDBRANCH  13   6
TORSDOF 4
ENDMDL
MODEL 3
REMARK VINA RESULT:       0.4      2.419      4.504
REMARK  Name = 11913357
REMARK  5 active torsions:
REMARK  status: ('A' for Active; 'I' for Inactive)
REMARK    1  A    between atoms: N_5  and  C_12
REMARK    2  A    between atoms: N_6  and  C_13
REMARK    3  A    between atoms: N_7  and  C_18
REMARK    4  A    between atoms: C_18  and  C_23
REMARK    5  A    between atoms: C_19  and  C_22
REMARK                            x       y       z     vdW  Elec       q    Type
REMARK                         _______ _______ _______ _____ _____    ______ ____
ROOT
ATOM      2  O   UNL     1      -2.157   3.475  26.816  0.00  0.00    -0.370 OA
ATOM      3  O   UNL     1      -0.908   4.115  24.051  0.00  0.00    -0.370 OA
ATOM     10  C   UNL     1      -2.141   3.484  24.437  0.00  0.00    +0.171 C 
ATOM     11  C   UNL     1      -1.848   2.656  25.674  0.00  0.00    +0.171 C 
ATOM     12  C   UNL     1      -3.130   4.520  24.915  0.00  0.00    +0.130 C 
ATOM     13  C   UNL     1      -0.358   2.398  25.601  0.00  0.00    +0.131 C 
ATOM     14  C   UNL     1      -2.736   4.711  26.368  0.00  0.00    +0.185 C 
ATOM     15  C   UNL     1       0.145   3.657  24.913  0.00  0.00    +0.185 C 
ENDROOT
BRANCH  12   5
ATOM      5  N   UNL     1      -4.477   3.999  24.824  0.00  0.00    -0.306 N 
ATOM      8  N   UNL     1      -3.743   1.774  24.959  0.00  0.00    -0.214 NA
ATOM      9  N   UNL     1      -6.087   2.294  24.755  0.00  0.00    -0.223 NA
ATOM     16  C   UNL     1      -4.779   2.648  24.847  0.00  0.00    +0.216 A 
ATOM     19  C   UNL     1      -4.073   0.466  24.977  0.00  0.00    +0.076 A 
ATOM     20  C   UNL     1      -6.345   0.970  24.781  0.00  0.00    +0.116 A 
ATOM     21  C   UNL     1      -5.369   0.001  24.891  0.00  0.00    +0.048 A 
ATOM     29  H   UNL     1      -5.259   4.644  24.794  0.00  0.00    +0.149 HD
BRANCH  19  22
ATOM      1  F   UNL     1      -1.474  -3.249  23.314  0.00  0.00    -0.205 F 
ATOM     22  C   UNL     1      -2.960  -0.445  25.097  0.00  0.00    +0.003 A 
ATOM     24  C   UNL     1      -2.748  -1.427  24.127  0.00  0.00    +0.048 A 
ATOM     25  C   UNL     1      -2.089  -0.346  26.186  0.00  0.00    +0.010 A 
ATOM     26  C   UNL     1      -1.674  -2.307  24.245  0.00  0.00    +0.124 A 
ATOM     27  C   UNL     1      -1.014  -1.227  26.302  0.00  0.00    +0.003 A 
ATOM     28  C   UNL     1      -0.806  -2.207  25.332  0.00  0.00    +0.038 A 
ENDBRANCH  19  22
ENDBRANCH  12   5
BRANCH  13   6
ATOM      4  O   UNL     1       1.768   2.098  23.655  0.00  0.00    -0.253 OA
ATOM      6  N   UNL     1      -0.080   1.233  24.764  0.00  0.00    -0.292 N 
ATOM      7  N   UNL     1       1.007  -0.043  23.186  0.00  0.00    -0.300 N 
ATOM     17  C   UNL     1       0.972   1.182  23.850  0.00  0.00    +0.300 C 
ATOM     30  H   UNL     1      -0.642   0.398  24.898  0.00  0.00    +0.151 HD
ATOM     31  H   UNL     1       0.306  -0.742  23.412  0.00  0.00    +0.150 HD
BRANCH   7  18
ATOM     18  C   UNL     1       1.997  -0.362  22.186  0.00  0.00    +0.102 C 
ATOM     23  C   UNL     1       3.400  -0.079  22.684  0.00  0.00    +0.024 C 
ENDBRANCH   7  18
ENDBRANCH  13   6
TORSDOF 4
ENDMDL
MODEL 4
REMARK VINA RESULT:       0.8      2.667      6.978
REMARK  Name = 11913357
REMARK  5 active torsions:
REMARK  status: ('A' for Active; 'I' for Inactive)
REMARK    1  A    between atoms: N_5  and  C_12
REMARK    2  A    between atoms: N_6  and  C_13
REMARK    3  A    between atoms: N_7  and  C_18
REMARK    4  A    between atoms: C_18  and  C_23
REMARK    5  A    between atoms: C_19  and  C_22
REMARK                            x       y       z     vdW  Elec       q    Type
REMARK                         _______ _______ _______ _____ _____    ______ ____
ROOT
ATOM      2  O   UNL     1      -0.715   5.156  24.262  0.00  0.00    -0.370 OA
ATOM      3  O   UNL     1      -1.773   3.243  26.459  0.00  0.00    -0.370 OA
ATOM     10  C   UNL     1      -1.041   3.014  25.242  0.00  0.00    +0.171 C 
ATOM     11  C   UNL     1      -1.569   3.999  24.216  0.00  0.00    +0.171 C 
ATOM     12  C   UNL     1       0.405   3.410  25.422  0.00  0.00    +0.130 C 
ATOM     13  C   UNL     1      -2.954   4.348  24.716  0.00  0.00    +0.131 C 
ATOM     14  C   UNL     1       0.375   4.905  25.162  0.00  0.00    +0.185 C 
ATOM     15  C   UNL     1      -2.780   4.238  26.222  0.00  0.00    +0.185 C 
ENDROOT
BRANCH  12   5
ATOM      5  N   UNL     1       1.227   2.744  24.435  0.00  0.00    -0.306 N 
ATOM      8  N   UNL     1      -0.143   0.839  24.417  0.00  0.00    -0.214 NA
ATOM      9  N   UNL     1       1.811   0.971  23.013  0.00  0.00    -0.223 NA
ATOM     16  C   UNL     1       0.957   1.480  23.940  0.00  0.00    +0.216 A 
ATOM     19  C   UNL     1      -0.375  -0.390  23.913  0.00  0.00    +0.076 A 
ATOM     20  C   UNL     1       1.518  -0.262  22.552  0.00  0.00    +0.116 A 
ATOM     21  C   UNL     1       0.428  -0.997  22.970  0.00  0.00    +0.048 A 
ATOM     29  H   UNL     1       2.019   3.235  24.035  0.00  0.00    +0.149 HD
BRANCH  19  22
ATOM      1  F   UNL     1      -4.526  -0.284  26.381  0.00  0.00    -0.205 F 
ATOM     22  C   UNL     1      -1.548  -1.053  24.432  0.00  0.00    +0.003 A 
ATOM     24  C   UNL     1      -2.491  -0.335  25.171  0.00  0.00    +0.048 A 
ATOM     25  C   UNL     1      -1.745  -2.416  24.196  0.00  0.00    +0.010 A 
ATOM     26  C   UNL     1      -3.624  -0.975  25.672  0.00  0.00    +0.124 A 
ATOM     27  C   UNL     1      -2.878  -3.056  24.698  0.00  0.00    +0.003 A 
ATOM     28  C   UNL     1      -3.817  -2.336  25.435  0.00  0.00    +0.038 A 
ENDBRANCH  19  22
ENDBRANCH  12   5
BRANCH  13   6
ATOM      4  O   UNL     1      -5.204   3.279  26.198  0.00  0.00    -0.253 OA
ATOM      6  N   UNL     1      -3.928   3.359  24.258  0.00  0.00    -0.292 N 
ATOM      7  N   UNL     1      -5.757   1.965  24.367  0.00  0.00    -0.300 N 
ATOM     17  C   UNL     1      -4.983   2.903  25.048  0.00  0.00    +0.300 C 
ATOM     30  H   UNL     1      -3.871   3.035  23.298  0.00  0.00    +0.151 HD
ATOM     31  H   UNL     1      -5.498   1.713  23.418  0.00  0.00    +0.150 HD
BRANCH   7  18
ATOM     18  C   UNL     1      -6.913   1.332  24.953  0.00  0.00    +0.102 C 
ATOM     23  C   UNL     1      -6.854   1.358  26.466  0.00  0.00    +0.024 C 
ENDBRANCH   7  18
ENDBRANCH  13   6
TORSDOF 4
ENDMDL
MODEL 5
REMARK VINA RESULT:       0.8      2.582      4.885
REMARK  Name = 11913357
REMARK  5 active torsions:
REMARK  status: ('A' for Active; 'I' for Inactive)
REMARK    1  A    between atoms: N_5  and  C_12
REMARK    2  A    between atoms: N_6  and  C_13
REMARK    3  A    between atoms: N_7  and  C_18
REMARK    4  A    between atoms: C_18  and  C_23
REMARK    5  A    between atoms: C_19  and  C_22
REMARK                            x       y       z     vdW  Elec       q    Type
REMARK                         _______ _______ _______ _____ _____    ______ ____
ROOT
ATOM      2  O   UNL     1      -5.080   2.901  26.063  0.00  0.00    -0.370 OA
ATOM      3  O   UNL     1      -3.516   3.269  23.412  0.00  0.00    -0.370 OA
ATOM     10  C   UNL     1      -3.616   2.172  24.337  0.00  0.00    +0.171 C 
ATOM     11  C   UNL     1      -3.687   2.770  25.728  0.00  0.00    +0.171 C 
ATOM     12  C   UNL     1      -4.943   1.470  24.170  0.00  0.00    +0.130 C 
ATOM     13  C   UNL     1      -3.052   4.135  25.577  0.00  0.00    +0.131 C 
ATOM     14  C   UNL     1      -5.874   2.314  25.021  0.00  0.00    +0.185 C 
ATOM     15  C   UNL     1      -3.425   4.497  24.149  0.00  0.00    +0.185 C 
ENDROOT
BRANCH  12   5
ATOM      5  N   UNL     1      -4.862   0.126  24.698  0.00  0.00    -0.306 N 
ATOM      8  N   UNL     1      -2.544   0.013  24.357  0.00  0.00    -0.214 NA
ATOM      9  N   UNL     1      -3.746  -1.846  25.308  0.00  0.00    -0.223 NA
ATOM     16  C   UNL     1      -3.682  -0.591  24.791  0.00  0.00    +0.216 A 
ATOM     19  C   UNL     1      -1.412  -0.714  24.462  0.00  0.00    +0.076 A 
ATOM     20  C   UNL     1      -2.577  -2.516  25.384  0.00  0.00    +0.116 A 
ATOM     21  C   UNL     1      -1.368  -1.995  24.972  0.00  0.00    +0.048 A 
ATOM     29  H   UNL     1      -5.697  -0.313  25.072  0.00  0.00    +0.149 HD
BRANCH  19  22
ATOM      1  F   UNL     1       3.107  -0.894  22.767  0.00  0.00    -0.205 F 
ATOM     22  C   UNL     1      -0.215  -0.054  23.998  0.00  0.00    +0.003 A 
ATOM     24  C   UNL     1       0.891  -0.807  23.597  0.00  0.00    +0.048 A 
ATOM     25  C   UNL     1      -0.159   1.341  23.948  0.00  0.00    +0.010 A 
ATOM     26  C   UNL     1       2.047  -0.170  23.149  0.00  0.00    +0.124 A 
ATOM     27  C   UNL     1       0.998   1.978  23.499  0.00  0.00    +0.003 A 
ATOM     28  C   UNL     1       2.101   1.224  23.100  0.00  0.00    +0.038 A 
ENDBRANCH  19  22
ENDBRANCH  12   5
BRANCH  13   6
ATOM      4  O   UNL     1      -1.540   2.269  27.199  0.00  0.00    -0.253 OA
ATOM      6  N   UNL     1      -1.598   4.041  25.698  0.00  0.00    -0.292 N 
ATOM      7  N   UNL     1       0.427   3.236  26.439  0.00  0.00    -0.300 N 
ATOM     17  C   UNL     1      -0.958   3.105  26.509  0.00  0.00    +0.300 C 
ATOM     30  H   UNL     1      -1.025   4.645  25.118  0.00  0.00    +0.151 HD
ATOM     31  H   UNL     1       0.821   3.957  25.842  0.00  0.00    +0.150 HD
BRANCH   7  18
ATOM     18  C   UNL     1       1.332   2.390  27.180  0.00  0.00    +0.102 C 
ATOM     23  C   UNL     1       1.370   2.768  28.646  0.00  0.00    +0.024 C 
ENDBRANCH   7  18
ENDBRANCH  13   6
TORSDOF 4
ENDMDL
