MODEL 1
REMARK VINA RESULT:       4.6      0.000      0.000
REMARK  Name = 11885174
REMARK  3 active torsions:
REMARK  status: ('A' for Active; 'I' for Inactive)
REMARK    1  A    between atoms: S_2  and  N_7
REMARK    2  A    between atoms: S_2  and  C_20
REMARK    3  A    between atoms: C_18  and  C_21
REMARK                            x       y       z     vdW  Elec       q    Type
REMARK                         _______ _______ _______ _____ _____    ______ ____
ROOT
ATOM      6  O   UNL     1       0.467   2.203  25.871  0.00  0.00    -0.267 OA
ATOM      7  N   UNL     1      -4.468   2.480  25.222  0.00  0.00    -0.176 NA
ATOM      8  N   UNL     1      -1.398   3.090  24.787  0.00  0.00    -0.311 N 
ATOM      9  C   UNL     1      -3.178   4.468  26.009  0.00  0.00    +0.025 C 
ATOM     10  C   UNL     1      -3.408   4.040  23.602  0.00  0.00    +0.052 C 
ATOM     11  C   UNL     1      -3.382   5.141  24.658  0.00  0.00    +0.017 C 
ATOM     12  C   UNL     1      -4.329   3.493  26.307  0.00  0.00    +0.114 C 
ATOM     13  C   UNL     1      -4.596   3.098  23.869  0.00  0.00    +0.119 C 
ATOM     14  C   UNL     1      -1.808   3.777  26.020  0.00  0.00    +0.130 C 
ATOM     15  C   UNL     1      -2.106   3.259  23.596  0.00  0.00    +0.026 A 
ATOM     16  C   UNL     1      -1.648   2.716  22.457  0.00  0.00    +0.022 A 
ATOM     17  C   UNL     1      -0.204   2.345  24.848  0.00  0.00    +0.259 A 
ATOM     18  C   UNL     1       0.266   1.719  23.562  0.00  0.00    +0.047 A 
ATOM     19  C   UNL     1      -0.446   1.931  22.445  0.00  0.00    +0.015 A 
ENDROOT
BRANCH  18  21
ATOM      1 CL   UNL     1       5.187  -1.683  23.393  0.00  0.00    -0.084 Cl
ATOM     21  C   UNL     1       1.478   0.881  23.520  0.00  0.00    -0.013 A 
ATOM     24  C   UNL     1       1.388  -0.490  23.763  0.00  0.00    +0.010 A 
ATOM     25  C   UNL     1       2.717   1.459  23.238  0.00  0.00    +0.010 A 
ATOM     29  C   UNL     1       2.535  -1.283  23.723  0.00  0.00    +0.020 A 
ATOM     30  C   UNL     1       3.864   0.666  23.199  0.00  0.00    +0.020 A 
ATOM     31  C   UNL     1       3.773  -0.705  23.442  0.00  0.00    +0.041 A 
ENDBRANCH  18  21
BRANCH   7   2
ATOM      2  S   UNL     1      -5.539   1.187  25.549  0.00  0.00    +0.061 S 
ATOM      4  O   UNL     1      -6.636   1.246  24.605  0.00  0.00    -0.153 OA
ATOM      5  O   UNL     1      -5.762   1.102  26.978  0.00  0.00    -0.153 OA
BRANCH   2  20
ATOM      3  F   UNL     1      -2.721  -3.806  24.262  0.00  0.00    -0.205 F 
ATOM     20  C   UNL     1      -4.681  -0.334  25.157  0.00  0.00    +0.106 A 
ATOM     22  C   UNL     1      -4.902  -0.912  23.931  0.00  0.00    +0.031 A 
ATOM     23  C   UNL     1      -3.833  -0.867  26.098  0.00  0.00    +0.031 A 
ATOM     26  C   UNL     1      -4.233  -2.098  23.626  0.00  0.00    +0.040 A 
ATOM     27  C   UNL     1      -3.165  -2.052  25.791  0.00  0.00    +0.040 A 
ATOM     28  C   UNL     1      -3.365  -2.668  24.556  0.00  0.00    +0.124 A 
ENDBRANCH   2  20
ENDBRANCH   7   2
TORSDOF 3
ENDMDL
MODEL 2
REMARK VINA RESULT:       7.3      2.496      4.782
REMARK  Name = 11885174
REMARK  3 active torsions:
REMARK  status: ('A' for Active; 'I' for Inactive)
REMARK    1  A    between atoms: S_2  and  N_7
REMARK    2  A    between atoms: S_2  and  C_20
REMARK    3  A    between atoms: C_18  and  C_21
REMARK                            x       y       z     vdW  Elec       q    Type
REMARK                         _______ _______ _______ _____ _____    ______ ____
ROOT
ATOM      6  O   UNL     1      -0.299  -0.860  22.175  0.00  0.00    -0.267 OA
ATOM      7  N   UNL     1      -4.196   0.595  24.922  0.00  0.00    -0.176 NA
ATOM      8  N   UNL     1      -1.806  -1.212  23.921  0.00  0.00    -0.311 N 
ATOM      9  C   UNL     1      -4.324  -1.479  23.538  0.00  0.00    +0.025 C 
ATOM     10  C   UNL     1      -3.419  -1.589  25.818  0.00  0.00    +0.052 C 
ATOM     11  C   UNL     1      -4.282  -2.329  24.801  0.00  0.00    +0.017 C 
ATOM     12  C   UNL     1      -4.940  -0.102  23.833  0.00  0.00    +0.114 C 
ATOM     13  C   UNL     1      -4.068  -0.235  26.156  0.00  0.00    +0.119 C 
ATOM     14  C   UNL     1      -2.906  -1.375  22.961  0.00  0.00    +0.130 C 
ATOM     15  C   UNL     1      -2.010  -1.383  25.291  0.00  0.00    +0.026 A 
ATOM     16  C   UNL     1      -0.970  -1.345  26.138  0.00  0.00    +0.022 A 
ATOM     17  C   UNL     1      -0.525  -0.981  23.380  0.00  0.00    +0.259 A 
ATOM     18  C   UNL     1       0.617  -0.908  24.358  0.00  0.00    +0.047 A 
ATOM     19  C   UNL     1       0.362  -1.098  25.661  0.00  0.00    +0.015 A 
ENDROOT
BRANCH  18  21
ATOM      1 CL   UNL     1       6.198   0.243  22.527  0.00  0.00    -0.084 Cl
ATOM     21  C   UNL     1       1.991  -0.625  23.906  0.00  0.00    -0.013 A 
ATOM     24  C   UNL     1       3.002  -1.563  24.116  0.00  0.00    +0.010 A 
ATOM     25  C   UNL     1       2.283   0.583  23.270  0.00  0.00    +0.010 A 
ATOM     29  C   UNL     1       4.303  -1.295  23.689  0.00  0.00    +0.020 A 
ATOM     30  C   UNL     1       3.583   0.851  22.843  0.00  0.00    +0.020 A 
ATOM     31  C   UNL     1       4.594  -0.088  23.053  0.00  0.00    +0.041 A 
ENDBRANCH  18  21
BRANCH   7   2
ATOM      2  S   UNL     1      -4.617   2.234  25.173  0.00  0.00    +0.061 S 
ATOM      4  O   UNL     1      -5.054   2.393  26.545  0.00  0.00    -0.153 OA
ATOM      5  O   UNL     1      -5.413   2.699  24.056  0.00  0.00    -0.153 OA
BRANCH   2  20
ATOM      3  F   UNL     1       0.319   5.399  24.797  0.00  0.00    -0.205 F 
ATOM     20  C   UNL     1      -3.113   3.199  25.059  0.00  0.00    +0.106 A 
ATOM     22  C   UNL     1      -1.965   2.572  24.637  0.00  0.00    +0.031 A 
ATOM     23  C   UNL     1      -3.162   4.529  25.398  0.00  0.00    +0.031 A 
ATOM     26  C   UNL     1      -0.794   3.324  24.548  0.00  0.00    +0.040 A 
ATOM     27  C   UNL     1      -1.990   5.279  25.308  0.00  0.00    +0.040 A 
ATOM     28  C   UNL     1      -0.806   4.677  24.884  0.00  0.00    +0.124 A 
ENDBRANCH   2  20
ENDBRANCH   7   2
TORSDOF 3
ENDMDL
