MODEL 1
REMARK VINA RESULT:      -1.2      0.000      0.000
REMARK  Name = 11883403
REMARK  7 active torsions:
REMARK  status: ('A' for Active; 'I' for Inactive)
REMARK    1  A    between atoms: O_6  and  C_16
REMARK    2  A    between atoms: O_6  and  C_20
REMARK    3  A    between atoms: N_9  and  C_15
REMARK    4  A    between atoms: N_10  and  C_21
REMARK    5  A    between atoms: N_11  and  C_22
REMARK    6  A    between atoms: C_27  and  C_33
REMARK    7  A    between atoms: C_28  and  C_34
REMARK                            x       y       z     vdW  Elec       q    Type
REMARK                         _______ _______ _______ _____ _____    ______ ____
ROOT
ATOM      4  O   UNL     1      -3.840   3.190  24.179  0.00  0.00    -0.368 OA
ATOM      5  O   UNL     1      -4.032   5.165  26.517  0.00  0.00    -0.368 OA
ATOM     13  C   UNL     1      -3.073   4.129  26.217  0.00  0.00    +0.173 C 
ATOM     14  C   UNL     1      -3.847   2.980  25.601  0.00  0.00    +0.192 C 
ATOM     15  C   UNL     1      -2.150   4.581  25.109  0.00  0.00    +0.131 C 
ATOM     16  C   UNL     1      -5.225   3.163  26.188  0.00  0.00    +0.235 C 
ATOM     17  C   UNL     1      -2.975   4.294  23.867  0.00  0.00    +0.185 C 
ATOM     18  C   UNL     1      -5.351   4.669  26.245  0.00  0.00    +0.207 C 
ENDROOT
BRANCH  15   9
ATOM      7  O   UNL     1      -1.314   2.666  23.150  0.00  0.00    -0.252 OA
ATOM      9  N   UNL     1      -0.922   3.825  25.111  0.00  0.00    -0.292 N 
ATOM     10  N   UNL     1       0.658   2.327  24.378  0.00  0.00    -0.269 N 
ATOM     19  C   UNL     1      -0.587   2.904  24.111  0.00  0.00    +0.304 C 
ATOM     35  H   UNL     1      -0.238   4.016  25.837  0.00  0.00    +0.151 HD
ATOM     36  H   UNL     1       1.133   2.636  25.222  0.00  0.00    +0.156 HD
BRANCH  10  21
ATOM     21  C   UNL     1       1.345   1.356  23.613  0.00  0.00    +0.036 A 
ATOM     23  C   UNL     1       2.731   1.240  23.715  0.00  0.00    +0.042 A 
ATOM     24  C   UNL     1       0.637   0.514  22.756  0.00  0.00    +0.023 A 
ATOM     28  C   UNL     1       3.410   0.283  22.961  0.00  0.00    +0.054 A 
ATOM     29  C   UNL     1       1.315  -0.444  22.001  0.00  0.00    +0.003 A 
ATOM     32  C   UNL     1       2.701  -0.559  22.104  0.00  0.00    +0.019 A 
BRANCH  28  34
ATOM     12  N   UNL     1       5.983   0.068  23.152  0.00  0.00    -0.191 NA
ATOM     34  C   UNL     1       4.830   0.165  23.066  0.00  0.00    +0.099 C 
ENDBRANCH  28  34
ENDBRANCH  10  21
ENDBRANCH  15   9
BRANCH  16   6
ATOM      6  O   UNL     1      -6.248   2.574  25.416  0.00  0.00    -0.442 OA
BRANCH   6  20
ATOM      8  O   UNL     1      -6.717   0.817  24.028  0.00  0.00    -0.226 OA
ATOM     11  N   UNL     1      -4.744   0.900  25.285  0.00  0.00    -0.251 N 
ATOM     20  C   UNL     1      -5.964   1.359  24.828  0.00  0.00    +0.405 C 
ATOM     37  H   UNL     1      -4.260   1.494  25.953  0.00  0.00    +0.158 HD
BRANCH  11  22
ATOM     22  C   UNL     1      -4.081  -0.300  24.939  0.00  0.00    +0.037 A 
ATOM     25  C   UNL     1      -2.761  -0.510  25.342  0.00  0.00    +0.035 A 
ATOM     26  C   UNL     1      -4.745  -1.273  24.193  0.00  0.00    +0.023 A 
ATOM     27  C   UNL     1      -2.107  -1.693  25.000  0.00  0.00    +0.057 A 
ATOM     30  C   UNL     1      -4.091  -2.456  23.850  0.00  0.00    +0.002 A 
ATOM     31  C   UNL     1      -2.773  -2.667  24.254  0.00  0.00    +0.012 A 
BRANCH  27  33
ATOM      1  F   UNL     1      -0.373  -3.238  25.576  0.00  0.00    -0.166 F 
ATOM      2  F   UNL     1       0.226  -1.418  24.559  0.00  0.00    -0.166 F 
ATOM      3  F   UNL     1      -0.418  -1.338  26.634  0.00  0.00    -0.166 F 
ATOM     33  C   UNL     1      -0.698  -1.918  25.430  0.00  0.00    +0.417 C 
ENDBRANCH  27  33
ENDBRANCH  11  22
ENDBRANCH   6  20
ENDBRANCH  16   6
TORSDOF 7
ENDMDL
MODEL 2
REMARK VINA RESULT:      -0.4     16.929     19.328
REMARK  Name = 11883403
REMARK  7 active torsions:
REMARK  status: ('A' for Active; 'I' for Inactive)
REMARK    1  A    between atoms: O_6  and  C_16
REMARK    2  A    between atoms: O_6  and  C_20
REMARK    3  A    between atoms: N_9  and  C_15
REMARK    4  A    between atoms: N_10  and  C_21
REMARK    5  A    between atoms: N_11  and  C_22
REMARK    6  A    between atoms: C_27  and  C_33
REMARK    7  A    between atoms: C_28  and  C_34
REMARK                            x       y       z     vdW  Elec       q    Type
REMARK                         _______ _______ _______ _____ _____    ______ ____
ROOT
ATOM      4  O   UNL     1      15.072  -7.507  27.066  0.00  0.00    -0.368 OA
ATOM      5  O   UNL     1      17.365  -8.802  28.637  0.00  0.00    -0.368 OA
ATOM     13  C   UNL     1      17.367  -7.838  27.564  0.00  0.00    +0.173 C 
ATOM     14  C   UNL     1      16.238  -8.223  26.627  0.00  0.00    +0.192 C 
ATOM     15  C   UNL     1      16.959  -6.479  28.084  0.00  0.00    +0.131 C 
ATOM     16  C   UNL     1      16.107  -9.707  26.866  0.00  0.00    +0.235 C 
ATOM     17  C   UNL     1      15.444  -6.583  28.101  0.00  0.00    +0.185 C 
ATOM     18  C   UNL     1      16.395  -9.819  28.346  0.00  0.00    +0.207 C 
ENDROOT
BRANCH  15   9
ATOM      7  O   UNL     1      15.369  -5.058  26.172  0.00  0.00    -0.252 OA
ATOM      9  N   UNL     1      17.405  -5.428  27.204  0.00  0.00    -0.292 N 
ATOM     10  N   UNL     1      17.267  -3.810  25.578  0.00  0.00    -0.269 N 
ATOM     19  C   UNL     1      16.560  -4.781  26.294  0.00  0.00    +0.304 C 
ATOM     35  H   UNL     1      18.361  -5.096  27.293  0.00  0.00    +0.151 HD
ATOM     36  H   UNL     1      18.254  -3.707  25.801  0.00  0.00    +0.156 HD
BRANCH  10  21
ATOM     21  C   UNL     1      16.776  -2.946  24.572  0.00  0.00    +0.036 A 
ATOM     23  C   UNL     1      15.665  -3.316  23.815  0.00  0.00    +0.042 A 
ATOM     24  C   UNL     1      17.403  -1.722  24.336  0.00  0.00    +0.023 A 
ATOM     28  C   UNL     1      15.181  -2.465  22.822  0.00  0.00    +0.054 A 
ATOM     29  C   UNL     1      16.919  -0.869  23.344  0.00  0.00    +0.003 A 
ATOM     32  C   UNL     1      15.808  -1.241  22.587  0.00  0.00    +0.019 A 
BRANCH  28  34
ATOM     12  N   UNL     1      13.118  -3.154  21.417  0.00  0.00    -0.191 NA
ATOM     34  C   UNL     1      14.042  -2.845  22.047  0.00  0.00    +0.099 C 
ENDBRANCH  28  34
ENDBRANCH  10  21
ENDBRANCH  15   9
BRANCH  16   6
ATOM      6  O   UNL     1      14.837 -10.221  26.533  0.00  0.00    -0.442 OA
BRANCH   6  20
ATOM      8  O   UNL     1      12.795 -10.781  27.400  0.00  0.00    -0.226 OA
ATOM     11  N   UNL     1      14.429  -9.713  28.691  0.00  0.00    -0.251 N 
ATOM     20  C   UNL     1      13.904 -10.283  27.548  0.00  0.00    +0.405 C 
ATOM     37  H   UNL     1      15.377  -9.350  28.620  0.00  0.00    +0.158 HD
BRANCH  11  22
ATOM     22  C   UNL     1      13.811  -9.570  29.955  0.00  0.00    +0.037 A 
ATOM     25  C   UNL     1      12.947  -8.500  30.192  0.00  0.00    +0.035 A 
ATOM     26  C   UNL     1      14.065 -10.498  30.964  0.00  0.00    +0.023 A 
ATOM     27  C   UNL     1      12.338  -8.358  31.439  0.00  0.00    +0.057 A 
ATOM     30  C   UNL     1      13.456 -10.357  32.211  0.00  0.00    +0.002 A 
ATOM     31  C   UNL     1      12.593  -9.288  32.448  0.00  0.00    +0.012 A 
BRANCH  27  33
ATOM      1  F   UNL     1      11.417  -6.277  30.700  0.00  0.00    -0.166 F 
ATOM      2  F   UNL     1      10.109  -7.587  31.829  0.00  0.00    -0.166 F 
ATOM      3  F   UNL     1      11.724  -6.537  32.837  0.00  0.00    -0.166 F 
ATOM     33  C   UNL     1      11.415  -7.215  31.693  0.00  0.00    +0.417 C 
ENDBRANCH  27  33
ENDBRANCH  11  22
ENDBRANCH   6  20
ENDBRANCH  16   6
TORSDOF 7
ENDMDL
MODEL 3
REMARK VINA RESULT:       2.3      1.495      1.973
REMARK  Name = 11883403
REMARK  7 active torsions:
REMARK  status: ('A' for Active; 'I' for Inactive)
REMARK    1  A    between atoms: O_6  and  C_16
REMARK    2  A    between atoms: O_6  and  C_20
REMARK    3  A    between atoms: N_9  and  C_15
REMARK    4  A    between atoms: N_10  and  C_21
REMARK    5  A    between atoms: N_11  and  C_22
REMARK    6  A    between atoms: C_27  and  C_33
REMARK    7  A    between atoms: C_28  and  C_34
REMARK                            x       y       z     vdW  Elec       q    Type
REMARK                         _______ _______ _______ _____ _____    ______ ____
ROOT
ATOM      4  O   UNL     1      -3.631   3.129  24.133  0.00  0.00    -0.368 OA
ATOM      5  O   UNL     1      -3.815   5.396  26.190  0.00  0.00    -0.368 OA
ATOM     13  C   UNL     1      -2.785   4.418  25.935  0.00  0.00    +0.173 C 
ATOM     14  C   UNL     1      -3.488   3.127  25.563  0.00  0.00    +0.192 C 
ATOM     15  C   UNL     1      -2.018   4.786  24.686  0.00  0.00    +0.131 C 
ATOM     16  C   UNL     1      -4.820   3.268  26.259  0.00  0.00    +0.235 C 
ATOM     17  C   UNL     1      -2.917   4.250  23.586  0.00  0.00    +0.185 C 
ATOM     18  C   UNL     1      -5.095   4.750  26.125  0.00  0.00    +0.207 C 
ENDROOT
BRANCH  15   9
ATOM      7  O   UNL     1      -1.305   2.400  23.271  0.00  0.00    -0.252 OA
ATOM      9  N   UNL     1      -0.723   4.152  24.663  0.00  0.00    -0.292 N 
ATOM     10  N   UNL     1       0.879   2.602  24.108  0.00  0.00    -0.269 N 
ATOM     19  C   UNL     1      -0.456   2.981  23.942  0.00  0.00    +0.304 C 
ATOM     35  H   UNL     1       0.048   4.611  25.139  0.00  0.00    +0.151 HD
ATOM     36  H   UNL     1       1.453   3.197  24.701  0.00  0.00    +0.156 HD
BRANCH  10  21
ATOM     21  C   UNL     1       1.539   1.483  23.548  0.00  0.00    +0.036 A 
ATOM     23  C   UNL     1       2.928   1.382  23.622  0.00  0.00    +0.042 A 
ATOM     24  C   UNL     1       0.800   0.479  22.922  0.00  0.00    +0.023 A 
ATOM     28  C   UNL     1       3.579   0.279  23.071  0.00  0.00    +0.054 A 
ATOM     29  C   UNL     1       1.450  -0.625  22.370  0.00  0.00    +0.003 A 
ATOM     32  C   UNL     1       2.839  -0.725  22.444  0.00  0.00    +0.019 A 
BRANCH  28  34
ATOM     12  N   UNL     1       6.157   0.093  23.207  0.00  0.00    -0.191 NA
ATOM     34  C   UNL     1       5.002   0.176  23.146  0.00  0.00    +0.099 C 
ENDBRANCH  28  34
ENDBRANCH  10  21
ENDBRANCH  15   9
BRANCH  16   6
ATOM      6  O   UNL     1      -5.842   2.485  25.684  0.00  0.00    -0.442 OA
BRANCH   6  20
ATOM      8  O   UNL     1      -6.242   0.540  24.549  0.00  0.00    -0.226 OA
ATOM     11  N   UNL     1      -4.163   0.989  25.525  0.00  0.00    -0.251 N 
ATOM     20  C   UNL     1      -5.476   1.251  25.187  0.00  0.00    +0.405 C 
ATOM     37  H   UNL     1      -3.684   1.707  26.063  0.00  0.00    +0.158 HD
BRANCH  11  22
ATOM     22  C   UNL     1      -3.397  -0.159  25.215  0.00  0.00    +0.037 A 
ATOM     25  C   UNL     1      -4.009  -1.271  24.637  0.00  0.00    +0.035 A 
ATOM     26  C   UNL     1      -2.030  -0.179  25.489  0.00  0.00    +0.023 A 
ATOM     27  C   UNL     1      -3.254  -2.403  24.333  0.00  0.00    +0.057 A 
ATOM     30  C   UNL     1      -1.274  -1.311  25.185  0.00  0.00    +0.002 A 
ATOM     31  C   UNL     1      -1.886  -2.423  24.606  0.00  0.00    +0.012 A 
BRANCH  27  33
ATOM      1  F   UNL     1      -3.071  -4.328  22.923  0.00  0.00    -0.166 F 
ATOM      2  F   UNL     1      -4.404  -4.479  24.627  0.00  0.00    -0.166 F 
ATOM      3  F   UNL     1      -4.964  -3.256  22.918  0.00  0.00    -0.166 F 
ATOM     33  C   UNL     1      -3.907  -3.593  23.715  0.00  0.00    +0.417 C 
ENDBRANCH  27  33
ENDBRANCH  11  22
ENDBRANCH   6  20
ENDBRANCH  16   6
TORSDOF 7
ENDMDL
