MODEL 1
REMARK VINA RESULT:      -0.2      0.000      0.000
REMARK  Name = 26762199
REMARK  7 active torsions:
REMARK  status: ('A' for Active; 'I' for Inactive)
REMARK    1  A    between atoms: N_6  and  C_11
REMARK    2  A    between atoms: N_8  and  C_24
REMARK    3  A    between atoms: C_10  and  C_15
REMARK    4  A    between atoms: C_15  and  C_17
REMARK    5  A    between atoms: C_17  and  C_18
REMARK    6  A    between atoms: C_24  and  C_28
REMARK    7  A    between atoms: C_24  and  C_29
REMARK                            x       y       z     vdW  Elec       q    Type
REMARK                         _______ _______ _______ _____ _____    ______ ____
ROOT
ATOM      1  O   UNL     1      -1.429   0.818  22.551  0.00  0.00    -0.274 OA
ATOM      4  N   UNL     1      -2.266   3.546  24.465  0.00  0.00    -0.285 NA
ATOM      5  N   UNL     1      -3.364   2.080  22.484  0.00  0.00    -0.313 N 
ATOM      9  C   UNL     1      -1.375   3.090  23.401  0.00  0.00    +0.145 C 
ATOM     10  C   UNL     1      -3.542   4.073  23.976  0.00  0.00    +0.075 C 
ATOM     11  C   UNL     1      -0.139   3.731  25.382  0.00  0.00    +0.090 C 
ATOM     12  C   UNL     1      -0.061   2.844  24.134  0.00  0.00    +0.052 C 
ATOM     13  C   UNL     1      -1.474   4.463  25.279  0.00  0.00    +0.107 C 
ATOM     14  C   UNL     1      -3.968   3.390  22.657  0.00  0.00    +0.123 C 
ATOM     16  C   UNL     1      -2.027   1.865  22.787  0.00  0.00    +0.230 C 
ATOM     31  H   UNL     1      -3.897   1.339  22.040  0.00  0.00    +0.149 HD
ENDROOT
BRANCH  11   6
ATOM      3  O   UNL     1       1.880   3.653  27.480  0.00  0.00    -0.253 OA
ATOM      6  N   UNL     1      -0.125   2.879  26.600  0.00  0.00    -0.295 N 
ATOM      8  N   UNL     1       0.657   2.020  28.585  0.00  0.00    -0.297 N 
ATOM     19  C   UNL     1       0.895   2.918  27.548  0.00  0.00    +0.300 C 
ATOM     32  H   UNL     1      -0.940   2.304  26.793  0.00  0.00    +0.151 HD
ATOM     33  H   UNL     1      -0.223   1.513  28.593  0.00  0.00    +0.150 HD
BRANCH   8  24
ATOM     24  C   UNL     1       1.559   1.856  29.701  0.00  0.00    +0.068 C 
ATOM     28  C   UNL     1       0.946   2.442  30.967  0.00  0.00    +0.027 C 
ATOM     29  C   UNL     1       2.909   2.494  29.395  0.00  0.00    +0.027 C 
ENDBRANCH   8  24
ENDBRANCH  11   6
BRANCH  10  15
ATOM     15  C   UNL     1      -4.607   3.853  25.054  0.00  0.00    +0.029 C 
BRANCH  15  17
ATOM     17  C   UNL     1      -4.276   2.683  25.967  0.00  0.00    +0.098 C 
BRANCH  17  18
ATOM      2  O   UNL     1      -5.638   1.188  24.733  0.00  0.00    -0.275 OA
ATOM      7  N   UNL     1      -3.514   0.446  25.350  0.00  0.00    -0.271 N 
ATOM     18  C   UNL     1      -4.553   1.365  25.285  0.00  0.00    +0.220 C 
ATOM     20  C   UNL     1      -2.210   0.660  26.014  0.00  0.00    +0.118 C 
ATOM     21  C   UNL     1      -3.521  -0.851  24.796  0.00  0.00    +0.039 A 
ATOM     22  C   UNL     1      -1.377  -0.613  25.830  0.00  0.00    +0.056 C 
ATOM     23  C   UNL     1      -2.306  -1.488  25.055  0.00  0.00    -0.024 A 
ATOM     25  C   UNL     1      -4.521  -1.499  24.085  0.00  0.00    +0.024 A 
ATOM     26  C   UNL     1      -2.060  -2.780  24.614  0.00  0.00    +0.005 A 
ATOM     27  C   UNL     1      -4.282  -2.802  23.636  0.00  0.00    +0.002 A 
ATOM     30  C   UNL     1      -3.061  -3.438  23.898  0.00  0.00    +0.000 A 
ENDBRANCH  17  18
ENDBRANCH  15  17
ENDBRANCH  10  15
TORSDOF 5
ENDMDL
MODEL 2
REMARK VINA RESULT:       1.4      3.376      6.441
REMARK  Name = 26762199
REMARK  7 active torsions:
REMARK  status: ('A' for Active; 'I' for Inactive)
REMARK    1  A    between atoms: N_6  and  C_11
REMARK    2  A    between atoms: N_8  and  C_24
REMARK    3  A    between atoms: C_10  and  C_15
REMARK    4  A    between atoms: C_15  and  C_17
REMARK    5  A    between atoms: C_17  and  C_18
REMARK    6  A    between atoms: C_24  and  C_28
REMARK    7  A    between atoms: C_24  and  C_29
REMARK                            x       y       z     vdW  Elec       q    Type
REMARK                         _______ _______ _______ _____ _____    ______ ____
ROOT
ATOM      1  O   UNL     1      -3.591   4.511  27.137  0.00  0.00    -0.274 OA
ATOM      4  N   UNL     1      -2.500   2.809  24.358  0.00  0.00    -0.285 NA
ATOM      5  N   UNL     1      -1.568   4.706  26.036  0.00  0.00    -0.313 N 
ATOM      9  C   UNL     1      -3.451   3.820  24.816  0.00  0.00    +0.145 C 
ATOM     10  C   UNL     1      -1.200   3.361  23.966  0.00  0.00    +0.075 C 
ATOM     11  C   UNL     1      -4.582   1.862  23.948  0.00  0.00    +0.090 C 
ATOM     12  C   UNL     1      -4.759   3.045  24.909  0.00  0.00    +0.052 C 
ATOM     13  C   UNL     1      -3.198   2.045  23.329  0.00  0.00    +0.107 C 
ATOM     14  C   UNL     1      -0.862   4.638  24.768  0.00  0.00    +0.123 C 
ATOM     16  C   UNL     1      -2.910   4.361  26.126  0.00  0.00    +0.230 C 
ATOM     31  H   UNL     1      -1.105   5.109  26.845  0.00  0.00    +0.149 HD
ENDROOT
BRANCH  11   6
ATOM      3  O   UNL     1      -2.972  -0.527  23.525  0.00  0.00    -0.253 OA
ATOM      6  N   UNL     1      -4.628   0.588  24.711  0.00  0.00    -0.295 N 
ATOM      8  N   UNL     1      -4.060  -1.563  25.293  0.00  0.00    -0.297 N 
ATOM     19  C   UNL     1      -3.809  -0.503  24.426  0.00  0.00    +0.300 C 
ATOM     32  H   UNL     1      -5.223   0.542  25.533  0.00  0.00    +0.151 HD
ATOM     33  H   UNL     1      -4.715  -1.419  26.056  0.00  0.00    +0.150 HD
BRANCH   8  24
ATOM     24  C   UNL     1      -3.350  -2.819  25.219  0.00  0.00    +0.068 C 
ATOM     28  C   UNL     1      -1.846  -2.580  25.224  0.00  0.00    +0.027 C 
ATOM     29  C   UNL     1      -3.780  -3.602  23.984  0.00  0.00    +0.027 C 
ENDBRANCH   8  24
ENDBRANCH  11   6
BRANCH  10  15
ATOM     15  C   UNL     1      -0.127   2.293  24.194  0.00  0.00    +0.029 C 
BRANCH  15  17
ATOM     17  C   UNL     1      -0.123   1.232  23.104  0.00  0.00    +0.098 C 
BRANCH  17  18
ATOM      2  O   UNL     1       0.548  -0.950  23.741  0.00  0.00    -0.275 OA
ATOM      7  N   UNL     1       2.228   0.576  23.202  0.00  0.00    -0.271 N 
ATOM     18  C   UNL     1       0.913   0.169  23.383  0.00  0.00    +0.220 C 
ATOM     20  C   UNL     1       2.666   1.922  22.772  0.00  0.00    +0.118 C 
ATOM     21  C   UNL     1       3.375  -0.222  23.395  0.00  0.00    +0.039 A 
ATOM     22  C   UNL     1       4.196   1.915  22.699  0.00  0.00    +0.056 C 
ATOM     23  C   UNL     1       4.525   0.519  23.116  0.00  0.00    -0.024 A 
ATOM     25  C   UNL     1       3.468  -1.546  23.799  0.00  0.00    +0.024 A 
ATOM     26  C   UNL     1       5.789  -0.041  23.231  0.00  0.00    +0.005 A 
ATOM     27  C   UNL     1       4.738  -2.119  23.918  0.00  0.00    +0.002 A 
ATOM     30  C   UNL     1       5.891  -1.372  23.636  0.00  0.00    +0.000 A 
ENDBRANCH  17  18
ENDBRANCH  15  17
ENDBRANCH  10  15
TORSDOF 5
ENDMDL
MODEL 3
REMARK VINA RESULT:       1.4      2.262      3.910
REMARK  Name = 26762199
REMARK  7 active torsions:
REMARK  status: ('A' for Active; 'I' for Inactive)
REMARK    1  A    between atoms: N_6  and  C_11
REMARK    2  A    between atoms: N_8  and  C_24
REMARK    3  A    between atoms: C_10  and  C_15
REMARK    4  A    between atoms: C_15  and  C_17
REMARK    5  A    between atoms: C_17  and  C_18
REMARK    6  A    between atoms: C_24  and  C_28
REMARK    7  A    between atoms: C_24  and  C_29
REMARK                            x       y       z     vdW  Elec       q    Type
REMARK                         _______ _______ _______ _____ _____    ______ ____
ROOT
ATOM      1  O   UNL     1       0.118   5.517  24.244  0.00  0.00    -0.274 OA
ATOM      4  N   UNL     1      -2.185   3.248  25.407  0.00  0.00    -0.285 NA
ATOM      5  N   UNL     1      -2.186   5.689  24.259  0.00  0.00    -0.313 N 
ATOM      9  C   UNL     1      -1.145   4.184  25.829  0.00  0.00    +0.145 C 
ATOM     10  C   UNL     1      -3.515   3.854  25.307  0.00  0.00    +0.075 C 
ATOM     11  C   UNL     1      -0.568   1.900  26.391  0.00  0.00    +0.090 C 
ATOM     12  C   UNL     1       0.048   3.274  26.100  0.00  0.00    +0.052 C 
ATOM     13  C   UNL     1      -2.079   2.105  26.309  0.00  0.00    +0.107 C 
ATOM     14  C   UNL     1      -3.427   5.352  24.936  0.00  0.00    +0.123 C 
ATOM     16  C   UNL     1      -0.972   5.178  24.695  0.00  0.00    +0.230 C 
ATOM     31  H   UNL     1      -2.194   6.388  23.522  0.00  0.00    +0.149 HD
ENDROOT
BRANCH  11   6
ATOM      3  O   UNL     1       1.238   2.370  24.155  0.00  0.00    -0.253 OA
ATOM      6  N   UNL     1      -0.134   0.929  25.353  0.00  0.00    -0.295 N 
ATOM      8  N   UNL     1       0.975   0.163  23.490  0.00  0.00    -0.297 N 
ATOM     19  C   UNL     1       0.739   1.257  24.318  0.00  0.00    +0.300 C 
ATOM     32  H   UNL     1      -0.420  -0.040  25.454  0.00  0.00    +0.151 HD
ATOM     33  H   UNL     1       0.580  -0.735  23.752  0.00  0.00    +0.150 HD
BRANCH   8  24
ATOM     24  C   UNL     1       1.844   0.226  22.338  0.00  0.00    +0.068 C 
ATOM     28  C   UNL     1       1.350  -0.719  21.250  0.00  0.00    +0.027 C 
ATOM     29  C   UNL     1       3.281  -0.091  22.734  0.00  0.00    +0.027 C 
ENDBRANCH   8  24
ENDBRANCH  11   6
BRANCH  10  15
ATOM     15  C   UNL     1      -4.321   3.094  24.251  0.00  0.00    +0.029 C 
BRANCH  15  17
ATOM     17  C   UNL     1      -3.521   2.840  22.983  0.00  0.00    +0.098 C 
BRANCH  17  18
ATOM      2  O   UNL     1      -1.624   1.484  22.561  0.00  0.00    -0.275 OA
ATOM      7  N   UNL     1      -3.373   0.535  23.780  0.00  0.00    -0.271 N 
ATOM     18  C   UNL     1      -2.736   1.553  23.083  0.00  0.00    +0.220 C 
ATOM     20  C   UNL     1      -4.710   0.621  24.406  0.00  0.00    +0.118 C 
ATOM     21  C   UNL     1      -2.855  -0.756  24.013  0.00  0.00    +0.039 A 
ATOM     22  C   UNL     1      -5.002  -0.730  25.069  0.00  0.00    +0.056 C 
ATOM     23  C   UNL     1      -3.769  -1.511  24.752  0.00  0.00    -0.024 A 
ATOM     25  C   UNL     1      -1.643  -1.303  23.619  0.00  0.00    +0.024 A 
ATOM     26  C   UNL     1      -3.497  -2.821  25.113  0.00  0.00    +0.005 A 
ATOM     27  C   UNL     1      -1.360  -2.624  23.979  0.00  0.00    +0.002 A 
ATOM     30  C   UNL     1      -2.280  -3.379  24.721  0.00  0.00    +0.000 A 
ENDBRANCH  17  18
ENDBRANCH  15  17
ENDBRANCH  10  15
TORSDOF 5
ENDMDL
MODEL 4
REMARK VINA RESULT:       1.9      2.457      5.774
REMARK  Name = 26762199
REMARK  7 active torsions:
REMARK  status: ('A' for Active; 'I' for Inactive)
REMARK    1  A    between atoms: N_6  and  C_11
REMARK    2  A    between atoms: N_8  and  C_24
REMARK    3  A    between atoms: C_10  and  C_15
REMARK    4  A    between atoms: C_15  and  C_17
REMARK    5  A    between atoms: C_17  and  C_18
REMARK    6  A    between atoms: C_24  and  C_28
REMARK    7  A    between atoms: C_24  and  C_29
REMARK                            x       y       z     vdW  Elec       q    Type
REMARK                         _______ _______ _______ _____ _____    ______ ____
ROOT
ATOM      1  O   UNL     1      -6.270   3.237  25.461  0.00  0.00    -0.274 OA
ATOM      4  N   UNL     1      -2.896   3.304  24.812  0.00  0.00    -0.285 NA
ATOM      5  N   UNL     1      -4.583   4.180  26.728  0.00  0.00    -0.313 N 
ATOM      9  C   UNL     1      -4.185   3.835  24.374  0.00  0.00    +0.145 C 
ATOM     10  C   UNL     1      -2.248   4.115  25.846  0.00  0.00    +0.075 C 
ATOM     11  C   UNL     1      -3.152   2.476  22.656  0.00  0.00    +0.090 C 
ATOM     12  C   UNL     1      -4.511   2.982  23.154  0.00  0.00    +0.052 C 
ATOM     13  C   UNL     1      -2.118   3.094  23.595  0.00  0.00    +0.107 C 
ATOM     14  C   UNL     1      -3.288   4.839  26.731  0.00  0.00    +0.123 C 
ATOM     16  C   UNL     1      -5.133   3.693  25.550  0.00  0.00    +0.230 C 
ATOM     31  H   UNL     1      -5.138   4.166  27.577  0.00  0.00    +0.149 HD
ENDROOT
BRANCH  11   6
ATOM      3  O   UNL     1      -4.229   0.803  24.784  0.00  0.00    -0.253 OA
ATOM      6  N   UNL     1      -3.103   0.994  22.761  0.00  0.00    -0.295 N 
ATOM      8  N   UNL     1      -3.465  -1.086  23.674  0.00  0.00    -0.297 N 
ATOM     19  C   UNL     1      -3.652   0.285  23.828  0.00  0.00    +0.300 C 
ATOM     32  H   UNL     1      -2.728   0.470  21.977  0.00  0.00    +0.151 HD
ATOM     33  H   UNL     1      -3.046  -1.422  22.812  0.00  0.00    +0.150 HD
BRANCH   8  24
ATOM     24  C   UNL     1      -3.936  -2.053  24.637  0.00  0.00    +0.068 C 
ATOM     28  C   UNL     1      -3.308  -1.793  26.000  0.00  0.00    +0.027 C 
ATOM     29  C   UNL     1      -3.645  -3.470  24.157  0.00  0.00    +0.027 C 
ENDBRANCH   8  24
ENDBRANCH  11   6
BRANCH  10  15
ATOM     15  C   UNL     1      -1.367   3.202  26.704  0.00  0.00    +0.029 C 
BRANCH  15  17
ATOM     17  C   UNL     1      -1.040   1.891  26.007  0.00  0.00    +0.098 C 
BRANCH  17  18
ATOM      2  O   UNL     1       1.088   2.852  25.603  0.00  0.00    -0.275 OA
ATOM      7  N   UNL     1       0.479   1.007  24.310  0.00  0.00    -0.271 N 
ATOM     18  C   UNL     1       0.287   1.972  25.290  0.00  0.00    +0.220 C 
ATOM     20  C   UNL     1      -0.486  -0.049  23.935  0.00  0.00    +0.118 C 
ATOM     21  C   UNL     1       1.626   0.867  23.501  0.00  0.00    +0.039 A 
ATOM     22  C   UNL     1       0.148  -0.886  22.819  0.00  0.00    +0.056 C 
ATOM     23  C   UNL     1       1.468  -0.212  22.630  0.00  0.00    -0.024 A 
ATOM     25  C   UNL     1       2.788   1.624  23.484  0.00  0.00    +0.024 A 
ATOM     26  C   UNL     1       2.460  -0.562  21.726  0.00  0.00    +0.005 A 
ATOM     27  C   UNL     1       3.794   1.279  22.576  0.00  0.00    +0.002 A 
ATOM     30  C   UNL     1       3.632   0.194  21.703  0.00  0.00    +0.000 A 
ENDBRANCH  17  18
ENDBRANCH  15  17
ENDBRANCH  10  15
TORSDOF 5
ENDMDL
MODEL 5
REMARK VINA RESULT:       2.0      2.908      6.196
REMARK  Name = 26762199
REMARK  7 active torsions:
REMARK  status: ('A' for Active; 'I' for Inactive)
REMARK    1  A    between atoms: N_6  and  C_11
REMARK    2  A    between atoms: N_8  and  C_24
REMARK    3  A    between atoms: C_10  and  C_15
REMARK    4  A    between atoms: C_15  and  C_17
REMARK    5  A    between atoms: C_17  and  C_18
REMARK    6  A    between atoms: C_24  and  C_28
REMARK    7  A    between atoms: C_24  and  C_29
REMARK                            x       y       z     vdW  Elec       q    Type
REMARK                         _______ _______ _______ _____ _____    ______ ____
ROOT
ATOM      1  O   UNL     1      -3.246   4.207  27.666  0.00  0.00    -0.274 OA
ATOM      4  N   UNL     1      -3.586   2.886  24.512  0.00  0.00    -0.285 NA
ATOM      5  N   UNL     1      -2.095   4.769  25.743  0.00  0.00    -0.313 N 
ATOM      9  C   UNL     1      -4.253   3.716  25.514  0.00  0.00    +0.145 C 
ATOM     10  C   UNL     1      -2.722   3.645  23.604  0.00  0.00    +0.075 C 
ATOM     11  C   UNL     1      -5.495   1.685  25.069  0.00  0.00    +0.090 C 
ATOM     12  C   UNL     1      -5.258   2.756  26.141  0.00  0.00    +0.052 C 
ATOM     13  C   UNL     1      -4.643   2.107  23.875  0.00  0.00    +0.107 C 
ATOM     14  C   UNL     1      -2.133   4.895  24.296  0.00  0.00    +0.123 C 
ATOM     16  C   UNL     1      -3.167   4.230  26.441  0.00  0.00    +0.230 C 
ATOM     31  H   UNL     1      -1.320   5.174  26.259  0.00  0.00    +0.149 HD
ENDROOT
BRANCH  11   6
ATOM      3  O   UNL     1      -3.800  -0.251  23.706  0.00  0.00    -0.253 OA
ATOM      6  N   UNL     1      -5.035   0.365  25.573  0.00  0.00    -0.295 N 
ATOM      8  N   UNL     1      -3.942  -1.658  25.545  0.00  0.00    -0.297 N 
ATOM     19  C   UNL     1      -4.220  -0.492  24.837  0.00  0.00    +0.300 C 
ATOM     32  H   UNL     1      -5.255   0.115  26.533  0.00  0.00    +0.151 HD
ATOM     33  H   UNL     1      -4.270  -1.731  26.503  0.00  0.00    +0.150 HD
BRANCH   8  24
ATOM     24  C   UNL     1      -3.119  -2.719  25.013  0.00  0.00    +0.068 C 
ATOM     28  C   UNL     1      -1.735  -2.190  24.659  0.00  0.00    +0.027 C 
ATOM     29  C   UNL     1      -3.790  -3.361  23.804  0.00  0.00    +0.027 C 
ENDBRANCH   8  24
ENDBRANCH  11   6
BRANCH  10  15
ATOM     15  C   UNL     1      -1.595   2.727  23.120  0.00  0.00    +0.029 C 
BRANCH  15  17
ATOM     17  C   UNL     1      -1.137   1.755  24.196  0.00  0.00    +0.098 C 
BRANCH  17  18
ATOM      2  O   UNL     1       0.918   2.410  25.178  0.00  0.00    -0.275 OA
ATOM      7  N   UNL     1       1.011   0.929  23.377  0.00  0.00    -0.271 N 
ATOM     18  C   UNL     1       0.369   1.736  24.306  0.00  0.00    +0.220 C 
ATOM     20  C   UNL     1       0.349   0.121  22.330  0.00  0.00    +0.118 C 
ATOM     21  C   UNL     1       2.405   0.740  23.268  0.00  0.00    +0.039 A 
ATOM     22  C   UNL     1       1.442  -0.611  21.544  0.00  0.00    +0.056 C 
ATOM     23  C   UNL     1       2.687  -0.141  22.222  0.00  0.00    -0.024 A 
ATOM     25  C   UNL     1       3.429   1.289  24.025  0.00  0.00    +0.024 A 
ATOM     26  C   UNL     1       3.991  -0.493  21.908  0.00  0.00    +0.005 A 
ATOM     27  C   UNL     1       4.747   0.940  23.715  0.00  0.00    +0.002 A 
ATOM     30  C   UNL     1       5.027   0.055  22.664  0.00  0.00    +0.000 A 
ENDBRANCH  17  18
ENDBRANCH  15  17
ENDBRANCH  10  15
TORSDOF 5
ENDMDL
MODEL 6
REMARK VINA RESULT:       2.8      1.750      4.623
REMARK  Name = 26762199
REMARK  7 active torsions:
REMARK  status: ('A' for Active; 'I' for Inactive)
REMARK    1  A    between atoms: N_6  and  C_11
REMARK    2  A    between atoms: N_8  and  C_24
REMARK    3  A    between atoms: C_10  and  C_15
REMARK    4  A    between atoms: C_15  and  C_17
REMARK    5  A    between atoms: C_17  and  C_18
REMARK    6  A    between atoms: C_24  and  C_28
REMARK    7  A    between atoms: C_24  and  C_29
REMARK                            x       y       z     vdW  Elec       q    Type
REMARK                         _______ _______ _______ _____ _____    ______ ____
ROOT
ATOM      1  O   UNL     1      -1.470  -3.641  25.238  0.00  0.00    -0.274 OA
ATOM      4  N   UNL     1      -2.666  -0.459  24.735  0.00  0.00    -0.285 NA
ATOM      5  N   UNL     1      -3.581  -2.992  24.556  0.00  0.00    -0.313 N 
ATOM      9  C   UNL     1      -1.748  -1.464  24.204  0.00  0.00    +0.145 C 
ATOM     10  C   UNL     1      -4.025  -0.562  24.195  0.00  0.00    +0.075 C 
ATOM     11  C   UNL     1      -0.568   0.515  24.951  0.00  0.00    +0.090 C 
ATOM     12  C   UNL     1      -0.390  -0.989  24.708  0.00  0.00    +0.052 C 
ATOM     13  C   UNL     1      -2.005   0.827  24.539  0.00  0.00    +0.107 C 
ATOM     14  C   UNL     1      -4.378  -2.020  23.826  0.00  0.00    +0.123 C 
ATOM     16  C   UNL     1      -2.217  -2.804  24.738  0.00  0.00    +0.230 C 
ATOM     31  H   UNL     1      -4.004  -3.867  24.848  0.00  0.00    +0.149 HD
ENDROOT
BRANCH  11   6
ATOM      3  O   UNL     1       0.915   2.720  26.141  0.00  0.00    -0.253 OA
ATOM      6  N   UNL     1      -0.383   0.812  26.395  0.00  0.00    -0.295 N 
ATOM      8  N   UNL     1       0.362   1.940  28.255  0.00  0.00    -0.297 N 
ATOM     19  C   UNL     1       0.351   1.900  26.863  0.00  0.00    +0.300 C 
ATOM     32  H   UNL     1      -0.887   0.244  27.070  0.00  0.00    +0.151 HD
ATOM     33  H   UNL     1      -0.199   1.263  28.763  0.00  0.00    +0.150 HD
BRANCH   8  24
ATOM     24  C   UNL     1       1.051   2.967  29.002  0.00  0.00    +0.068 C 
ATOM     28  C   UNL     1       2.554   2.875  28.768  0.00  0.00    +0.027 C 
ATOM     29  C   UNL     1       0.717   2.862  30.486  0.00  0.00    +0.027 C 
ENDBRANCH   8  24
ENDBRANCH  11   6
BRANCH  10  15
ATOM     15  C   UNL     1      -5.008  -0.026  25.239  0.00  0.00    +0.029 C 
BRANCH  15  17
ATOM     17  C   UNL     1      -5.622   1.303  24.830  0.00  0.00    +0.098 C 
BRANCH  17  18
ATOM      2  O   UNL     1      -5.035   3.008  26.367  0.00  0.00    -0.275 OA
ATOM      7  N   UNL     1      -3.739   2.809  24.438  0.00  0.00    -0.271 N 
ATOM     18  C   UNL     1      -4.773   2.461  25.297  0.00  0.00    +0.220 C 
ATOM     20  C   UNL     1      -3.425   2.151  23.151  0.00  0.00    +0.118 C 
ATOM     21  C   UNL     1      -2.808   3.850  24.642  0.00  0.00    +0.039 A 
ATOM     22  C   UNL     1      -2.204   2.856  22.551  0.00  0.00    +0.056 C 
ATOM     23  C   UNL     1      -1.912   3.905  23.573  0.00  0.00    -0.024 A 
ATOM     25  C   UNL     1      -2.704   4.742  25.699  0.00  0.00    +0.024 A 
ATOM     26  C   UNL     1      -0.894   4.846  23.534  0.00  0.00    +0.005 A 
ATOM     27  C   UNL     1      -1.681   5.695  25.668  0.00  0.00    +0.002 A 
ATOM     30  C   UNL     1      -0.782   5.747  24.593  0.00  0.00    +0.000 A 
ENDBRANCH  17  18
ENDBRANCH  15  17
ENDBRANCH  10  15
TORSDOF 5
ENDMDL
