MODEL 1
REMARK VINA RESULT:       1.6      0.000      0.000
REMARK  Name = 11885881
REMARK  3 active torsions:
REMARK  status: ('A' for Active; 'I' for Inactive)
REMARK    1  A    between atoms: N_8  and  C_19
REMARK    2  A    between atoms: C_18  and  C_21
REMARK    3  A    between atoms: C_24  and  C_28
REMARK                            x       y       z     vdW  Elec       q    Type
REMARK                         _______ _______ _______ _____ _____    ______ ____
ROOT
ATOM      3  O   UNL     1       0.365   2.559  25.783  0.00  0.00    -0.266 OA
ATOM      4  O   UNL     1      -3.814  -0.203  27.081  0.00  0.00    -0.270 OA
ATOM      6  N   UNL     1      -4.385   1.129  25.244  0.00  0.00    -0.297 N 
ATOM      7  N   UNL     1      -1.631   2.550  24.569  0.00  0.00    -0.310 N 
ATOM      9  C   UNL     1      -3.811   3.539  25.481  0.00  0.00    +0.027 C 
ATOM     10  C   UNL     1      -3.780   2.488  23.255  0.00  0.00    +0.054 C 
ATOM     11  C   UNL     1      -4.161   3.759  24.013  0.00  0.00    +0.018 C 
ATOM     12  C   UNL     1      -4.590   2.335  26.044  0.00  0.00    +0.113 C 
ATOM     13  C   UNL     1      -2.294   3.354  25.606  0.00  0.00    +0.130 C 
ATOM     14  C   UNL     1      -4.598   1.299  23.797  0.00  0.00    +0.117 C 
ATOM     15  C   UNL     1      -2.298   2.193  23.393  0.00  0.00    +0.027 A 
ATOM     16  C   UNL     1      -1.640   1.559  22.407  0.00  0.00    +0.024 A 
ATOM     17  C   UNL     1      -0.270   2.250  24.774  0.00  0.00    +0.273 A 
ATOM     18  C   UNL     1      -3.994  -0.055  25.873  0.00  0.00    +0.247 C 
ATOM     19  C   UNL     1       0.421   1.519  23.664  0.00  0.00    +0.099 A 
ATOM     20  C   UNL     1      -0.253   1.216  22.550  0.00  0.00    +0.030 A 
ENDROOT
BRANCH  18  21
ATOM      2  F   UNL     1      -3.075  -4.545  22.670  0.00  0.00    -0.205 F 
ATOM     21  C   UNL     1      -3.753  -1.233  25.033  0.00  0.00    +0.037 A 
ATOM     22  C   UNL     1      -4.749  -1.683  24.169  0.00  0.00    +0.016 A 
ATOM     23  C   UNL     1      -2.531  -1.896  25.104  0.00  0.00    +0.016 A 
ATOM     25  C   UNL     1      -4.519  -2.803  23.370  0.00  0.00    +0.039 A 
ATOM     26  C   UNL     1      -2.301  -3.015  24.305  0.00  0.00    +0.039 A 
ATOM     27  C   UNL     1      -3.295  -3.469  23.438  0.00  0.00    +0.123 A 
ENDBRANCH  18  21
BRANCH  19   8
ATOM      5  O   UNL     1       1.945  -0.237  22.009  0.00  0.00    -0.269 OA
ATOM      8  N   UNL     1       1.735   1.194  23.832  0.00  0.00    -0.277 N 
ATOM     24  C   UNL     1       2.421   0.330  22.989  0.00  0.00    +0.255 C 
ATOM     32  H   UNL     1       2.165   1.451  24.716  0.00  0.00    +0.155 HD
BRANCH  24  28
ATOM      1  S   UNL     1       4.307  -1.425  23.834  0.00  0.00    -0.092 S 
ATOM     28  C   UNL     1       3.854   0.114  23.319  0.00  0.00    +0.074 A 
ATOM     29  C   UNL     1       4.842   1.019  23.251  0.00  0.00    +0.021 A 
ATOM     30  C   UNL     1       6.076   0.428  23.647  0.00  0.00    +0.008 A 
ATOM     31  C   UNL     1       5.928  -0.898  23.990  0.00  0.00    +0.046 A 
ENDBRANCH  24  28
ENDBRANCH  19   8
TORSDOF 3
ENDMDL
