MODEL 1
REMARK VINA RESULT:       5.9      0.000      0.000
REMARK  Name = 40779367
REMARK  9 active torsions:
REMARK  status: ('A' for Active; 'I' for Inactive)
REMARK    1  A    between atoms: N_4  and  C_19
REMARK    2  A    between atoms: N_5  and  C_16
REMARK    3  A    between atoms: N_7  and  C_30
REMARK    4  A    between atoms: N_7  and  C_31
REMARK    5  A    between atoms: N_7  and  C_32
REMARK    6  A    between atoms: C_9  and  C_15
REMARK    7  A    between atoms: C_10  and  C_16
REMARK    8  A    between atoms: C_18  and  C_21
REMARK    9  A    between atoms: C_20  and  C_22
REMARK                            x       y       z     vdW  Elec       q    Type
REMARK                         _______ _______ _______ _____ _____    ______ ____
ROOT
ATOM      3  N   UNL     1      -4.794   2.315  23.876  0.00  0.00    -0.297 NA
ATOM      8  C   UNL     1      -4.302   3.558  26.111  0.00  0.00    +0.002 C 
ATOM      9  C   UNL     1      -3.071   3.631  25.166  0.00  0.00    +0.055 C 
ATOM     10  C   UNL     1      -5.147   1.446  25.030  0.00  0.00    +0.074 C 
ATOM     11  C   UNL     1      -4.672   2.081  26.355  0.00  0.00    +0.024 C 
ATOM     12  C   UNL     1      -5.483   4.203  25.354  0.00  0.00    +0.019 C 
ATOM     13  C   UNL     1      -3.364   2.704  23.952  0.00  0.00    +0.094 C 
ATOM     14  C   UNL     1      -5.614   3.546  23.967  0.00  0.00    +0.085 C 
ENDROOT
BRANCH   9  15
ATOM      4  N   UNL     1      -0.547   3.404  25.020  0.00  0.00    -0.270 N 
ATOM      6  N   UNL     1       0.566   3.161  25.732  0.00  0.00    -0.171 NA
ATOM     15  C   UNL     1      -1.692   3.383  25.761  0.00  0.00    +0.044 A 
ATOM     17  C   UNL     1      -1.300   3.107  27.048  0.00  0.00    +0.053 A 
ATOM     18  C   UNL     1       0.099   2.980  26.971  0.00  0.00    +0.100 A 
ATOM     19  C   UNL     1      -0.436   3.655  23.602  0.00  0.00    +0.172 C 
BRANCH  18  21
ATOM      1  S   UNL     1       2.685   2.967  28.071  0.00  0.00    -0.095 S 
ATOM     21  C   UNL     1       0.997   2.682  28.102  0.00  0.00    +0.039 A 
ATOM     23  C   UNL     1       0.585   2.146  29.302  0.00  0.00    +0.018 A 
ATOM     26  C   UNL     1       1.670   1.966  30.208  0.00  0.00    +0.008 A 
ATOM     27  C   UNL     1       2.869   2.372  29.666  0.00  0.00    +0.046 A 
ENDBRANCH  18  21
ENDBRANCH   9  15
BRANCH  10  16
ATOM     16  C   UNL     1      -4.627   0.016  24.864  0.00  0.00    +0.123 C 
BRANCH  16   5
ATOM      2  O   UNL     1      -2.741  -2.101  25.318  0.00  0.00    -0.270 OA
ATOM      5  N   UNL     1      -3.241   0.016  24.509  0.00  0.00    -0.310 N 
ATOM     20  C   UNL     1      -2.392  -1.059  24.768  0.00  0.00    +0.244 C 
ATOM     33  H   UNL     1      -2.868   0.880  24.131  0.00  0.00    +0.149 HD
BRANCH  20  22
ATOM     22  C   UNL     1      -0.974  -0.892  24.363  0.00  0.00    +0.037 A 
ATOM     24  C   UNL     1      -0.608   0.153  23.516  0.00  0.00    +0.015 A 
ATOM     25  C   UNL     1      -0.005  -1.782  24.829  0.00  0.00    +0.015 A 
ATOM     28  C   UNL     1       0.724   0.310  23.134  0.00  0.00    +0.024 A 
ATOM     29  C   UNL     1       1.327  -1.627  24.447  0.00  0.00    +0.024 A 
ATOM     30  C   UNL     1       1.692  -0.580  23.600  0.00  0.00    +0.029 A 
BRANCH  30   7
ATOM      7  N   UNL     1       3.039  -0.423  23.215  0.00  0.00    -0.336 N 
ATOM     31  C   UNL     1       4.053  -1.340  23.698  0.00  0.00    +0.129 C 
ATOM     32  C   UNL     1       3.428   0.654  22.325  0.00  0.00    +0.129 C 
ENDBRANCH  30   7
ENDBRANCH  20  22
ENDBRANCH  16   5
ENDBRANCH  10  16
TORSDOF 6
ENDMDL
MODEL 2
REMARK VINA RESULT:       7.6      2.332      5.198
REMARK  Name = 40779367
REMARK  9 active torsions:
REMARK  status: ('A' for Active; 'I' for Inactive)
REMARK    1  A    between atoms: N_4  and  C_19
REMARK    2  A    between atoms: N_5  and  C_16
REMARK    3  A    between atoms: N_7  and  C_30
REMARK    4  A    between atoms: N_7  and  C_31
REMARK    5  A    between atoms: N_7  and  C_32
REMARK    6  A    between atoms: C_9  and  C_15
REMARK    7  A    between atoms: C_10  and  C_16
REMARK    8  A    between atoms: C_18  and  C_21
REMARK    9  A    between atoms: C_20  and  C_22
REMARK                            x       y       z     vdW  Elec       q    Type
REMARK                         _______ _______ _______ _____ _____    ______ ____
ROOT
ATOM      3  N   UNL     1      -5.024   2.762  25.916  0.00  0.00    -0.297 NA
ATOM      8  C   UNL     1      -5.048   1.049  23.954  0.00  0.00    +0.002 C 
ATOM      9  C   UNL     1      -4.022   0.619  25.039  0.00  0.00    +0.055 C 
ATOM     10  C   UNL     1      -4.900   3.475  24.617  0.00  0.00    +0.074 C 
ATOM     11  C   UNL     1      -4.704   2.470  23.460  0.00  0.00    +0.024 C 
ATOM     12  C   UNL     1      -6.423   1.130  24.650  0.00  0.00    +0.019 C 
ATOM     13  C   UNL     1      -3.919   1.783  26.066  0.00  0.00    +0.094 C 
ATOM     14  C   UNL     1      -6.305   2.016  25.904  0.00  0.00    +0.085 C 
ENDROOT
BRANCH   9  15
ATOM      4  N   UNL     1      -2.254  -1.169  24.693  0.00  0.00    -0.270 N 
ATOM      6  N   UNL     1      -1.012  -1.395  24.234  0.00  0.00    -0.171 NA
ATOM     15  C   UNL     1      -2.655   0.131  24.583  0.00  0.00    +0.044 A 
ATOM     17  C   UNL     1      -1.601   0.800  24.010  0.00  0.00    +0.053 A 
ATOM     18  C   UNL     1      -0.618  -0.188  23.817  0.00  0.00    +0.100 A 
ATOM     19  C   UNL     1      -3.016  -2.269  25.237  0.00  0.00    +0.172 C 
BRANCH  18  21
ATOM      1  S   UNL     1       1.258  -0.750  21.802  0.00  0.00    -0.095 S 
ATOM     21  C   UNL     1       0.714   0.031  23.225  0.00  0.00    +0.039 A 
ATOM     23  C   UNL     1       1.666   0.882  23.744  0.00  0.00    +0.018 A 
ATOM     26  C   UNL     1       2.857   0.893  22.962  0.00  0.00    +0.008 A 
ATOM     27  C   UNL     1       2.770   0.049  21.876  0.00  0.00    +0.046 A 
ENDBRANCH  18  21
ENDBRANCH   9  15
BRANCH  10  16
ATOM     16  C   UNL     1      -3.800   4.540  24.639  0.00  0.00    +0.123 C 
BRANCH  16   5
ATOM      2  O   UNL     1      -1.201   3.516  23.977  0.00  0.00    -0.270 OA
ATOM      5  N   UNL     1      -2.764   4.183  25.558  0.00  0.00    -0.310 N 
ATOM     20  C   UNL     1      -1.525   3.691  25.149  0.00  0.00    +0.244 C 
ATOM     33  H   UNL     1      -2.997   4.220  26.544  0.00  0.00    +0.149 HD
BRANCH  20  22
ATOM     22  C   UNL     1      -0.566   3.341  26.227  0.00  0.00    +0.037 A 
ATOM     24  C   UNL     1       0.804   3.345  25.971  0.00  0.00    +0.015 A 
ATOM     25  C   UNL     1      -1.036   3.006  27.498  0.00  0.00    +0.015 A 
ATOM     28  C   UNL     1       1.705   3.016  26.984  0.00  0.00    +0.024 A 
ATOM     29  C   UNL     1      -0.136   2.677  28.511  0.00  0.00    +0.024 A 
ATOM     30  C   UNL     1       1.235   2.681  28.253  0.00  0.00    +0.029 A 
BRANCH  30   7
ATOM      7  N   UNL     1       2.144   2.349  29.278  0.00  0.00    -0.336 N 
ATOM     31  C   UNL     1       1.663   1.909  30.573  0.00  0.00    +0.129 C 
ATOM     32  C   UNL     1       3.574   2.436  29.048  0.00  0.00    +0.129 C 
ENDBRANCH  30   7
ENDBRANCH  20  22
ENDBRANCH  16   5
ENDBRANCH  10  16
TORSDOF 6
ENDMDL
MODEL 3
REMARK VINA RESULT:       8.2      3.086      4.859
REMARK  Name = 40779367
REMARK  9 active torsions:
REMARK  status: ('A' for Active; 'I' for Inactive)
REMARK    1  A    between atoms: N_4  and  C_19
REMARK    2  A    between atoms: N_5  and  C_16
REMARK    3  A    between atoms: N_7  and  C_30
REMARK    4  A    between atoms: N_7  and  C_31
REMARK    5  A    between atoms: N_7  and  C_32
REMARK    6  A    between atoms: C_9  and  C_15
REMARK    7  A    between atoms: C_10  and  C_16
REMARK    8  A    between atoms: C_18  and  C_21
REMARK    9  A    between atoms: C_20  and  C_22
REMARK                            x       y       z     vdW  Elec       q    Type
REMARK                         _______ _______ _______ _____ _____    ______ ____
ROOT
ATOM      3  N   UNL     1      -3.319  -2.533  23.922  0.00  0.00    -0.297 NA
ATOM      8  C   UNL     1      -2.661  -1.337  26.141  0.00  0.00    +0.002 C 
ATOM      9  C   UNL     1      -3.775  -0.543  25.405  0.00  0.00    +0.055 C 
ATOM     10  C   UNL     1      -1.841  -2.386  24.002  0.00  0.00    +0.074 C 
ATOM     11  C   UNL     1      -1.446  -1.500  25.204  0.00  0.00    +0.024 C 
ATOM     12  C   UNL     1      -3.222  -2.751  26.406  0.00  0.00    +0.019 C 
ATOM     13  C   UNL     1      -3.968  -1.202  24.009  0.00  0.00    +0.094 C 
ATOM     14  C   UNL     1      -3.758  -3.338  25.087  0.00  0.00    +0.085 C 
ENDROOT
BRANCH   9  15
ATOM      4  N   UNL     1      -4.709   1.817  25.374  0.00  0.00    -0.270 N 
ATOM      6  N   UNL     1      -4.379   3.115  25.276  0.00  0.00    -0.171 NA
ATOM     15  C   UNL     1      -3.641   0.970  25.316  0.00  0.00    +0.044 A 
ATOM     17  C   UNL     1      -2.536   1.771  25.169  0.00  0.00    +0.053 A 
ATOM     18  C   UNL     1      -3.049   3.082  25.151  0.00  0.00    +0.100 A 
ATOM     19  C   UNL     1      -6.098   1.452  25.526  0.00  0.00    +0.172 C 
BRANCH  18  21
ATOM      1  S   UNL     1      -0.589   4.324  24.603  0.00  0.00    -0.095 S 
ATOM     21  C   UNL     1      -2.252   4.314  25.013  0.00  0.00    +0.039 A 
ATOM     23  C   UNL     1      -2.747   5.586  25.196  0.00  0.00    +0.018 A 
ATOM     26  C   UNL     1      -1.748   6.583  24.997  0.00  0.00    +0.008 A 
ATOM     27  C   UNL     1      -0.528   6.034  24.670  0.00  0.00    +0.046 A 
ENDBRANCH  18  21
ENDBRANCH   9  15
BRANCH  10  16
ATOM     16  C   UNL     1      -1.235  -1.874  22.693  0.00  0.00    +0.123 C 
BRANCH  16   5
ATOM      2  O   UNL     1      -0.002   0.707  22.932  0.00  0.00    -0.270 OA
ATOM      5  N   UNL     1       0.162  -1.606  22.848  0.00  0.00    -0.310 N 
ATOM     20  C   UNL     1       0.677  -0.315  22.957  0.00  0.00    +0.244 C 
ATOM     33  H   UNL     1       0.787  -2.402  22.788  0.00  0.00    +0.149 HD
BRANCH  20  22
ATOM     22  C   UNL     1       2.152  -0.204  23.085  0.00  0.00    +0.037 A 
ATOM     24  C   UNL     1       2.891  -1.267  23.604  0.00  0.00    +0.015 A 
ATOM     25  C   UNL     1       2.801   0.966  22.688  0.00  0.00    +0.015 A 
ATOM     28  C   UNL     1       4.276  -1.162  23.725  0.00  0.00    +0.024 A 
ATOM     29  C   UNL     1       4.187   1.072  22.809  0.00  0.00    +0.024 A 
ATOM     30  C   UNL     1       4.924   0.007  23.328  0.00  0.00    +0.029 A 
BRANCH  30   7
ATOM      7  N   UNL     1       6.324   0.114  23.450  0.00  0.00    -0.336 N 
ATOM     31  C   UNL     1       7.193  -0.852  22.806  0.00  0.00    +0.129 C 
ATOM     32  C   UNL     1       6.915   1.195  24.215  0.00  0.00    +0.129 C 
ENDBRANCH  30   7
ENDBRANCH  20  22
ENDBRANCH  16   5
ENDBRANCH  10  16
TORSDOF 6
ENDMDL
MODEL 4
REMARK VINA RESULT:       9.3      2.163      5.334
REMARK  Name = 40779367
REMARK  9 active torsions:
REMARK  status: ('A' for Active; 'I' for Inactive)
REMARK    1  A    between atoms: N_4  and  C_19
REMARK    2  A    between atoms: N_5  and  C_16
REMARK    3  A    between atoms: N_7  and  C_30
REMARK    4  A    between atoms: N_7  and  C_31
REMARK    5  A    between atoms: N_7  and  C_32
REMARK    6  A    between atoms: C_9  and  C_15
REMARK    7  A    between atoms: C_10  and  C_16
REMARK    8  A    between atoms: C_18  and  C_21
REMARK    9  A    between atoms: C_20  and  C_22
REMARK                            x       y       z     vdW  Elec       q    Type
REMARK                         _______ _______ _______ _____ _____    ______ ____
ROOT
ATOM      3  N   UNL     1      -4.082  -0.472  25.490  0.00  0.00    -0.297 NA
ATOM      8  C   UNL     1      -3.177  -1.148  23.143  0.00  0.00    +0.002 C 
ATOM      9  C   UNL     1      -2.043  -1.218  24.203  0.00  0.00    +0.055 C 
ATOM     10  C   UNL     1      -4.476   0.546  24.480  0.00  0.00    +0.074 C 
ATOM     11  C   UNL     1      -3.778   0.273  23.130  0.00  0.00    +0.024 C 
ATOM     12  C   UNL     1      -4.290  -2.108  23.617  0.00  0.00    +0.019 C 
ATOM     13  C   UNL     1      -2.605  -0.611  25.521  0.00  0.00    +0.094 C 
ATOM     14  C   UNL     1      -4.660  -1.772  25.073  0.00  0.00    +0.085 C 
ENDROOT
BRANCH   9  15
ATOM      4  N   UNL     1      -0.523   0.569  23.234  0.00  0.00    -0.270 N 
ATOM      6  N   UNL     1       0.759   0.893  22.995  0.00  0.00    -0.171 NA
ATOM     15  C   UNL     1      -0.682  -0.645  23.839  0.00  0.00    +0.044 A 
ATOM     17  C   UNL     1       0.585  -1.148  24.007  0.00  0.00    +0.053 A 
ATOM     18  C   UNL     1       1.432  -0.160  23.470  0.00  0.00    +0.100 A 
ATOM     19  C   UNL     1      -1.567   1.488  22.848  0.00  0.00    +0.172 C 
BRANCH  18  21
ATOM      1  S   UNL     1       3.885   1.010  22.757  0.00  0.00    -0.095 S 
ATOM     21  C   UNL     1       2.903  -0.230  23.415  0.00  0.00    +0.039 A 
ATOM     23  C   UNL     1       3.650  -1.289  23.880  0.00  0.00    +0.018 A 
ATOM     26  C   UNL     1       5.048  -1.081  23.695  0.00  0.00    +0.008 A 
ATOM     27  C   UNL     1       5.314   0.130  23.094  0.00  0.00    +0.046 A 
ENDBRANCH  18  21
ENDBRANCH   9  15
BRANCH  10  16
ATOM     16  C   UNL     1      -4.233   1.976  24.969  0.00  0.00    +0.123 C 
BRANCH  16   5
ATOM      2  O   UNL     1      -2.140   3.938  24.854  0.00  0.00    -0.270 OA
ATOM      5  N   UNL     1      -3.075   2.038  25.805  0.00  0.00    -0.310 N 
ATOM     20  C   UNL     1      -2.103   3.030  25.680  0.00  0.00    +0.244 C 
ATOM     33  H   UNL     1      -2.937   1.269  26.452  0.00  0.00    +0.149 HD
BRANCH  20  22
ATOM     22  C   UNL     1      -0.946   2.940  26.607  0.00  0.00    +0.037 A 
ATOM     24  C   UNL     1       0.345   2.797  26.100  0.00  0.00    +0.015 A 
ATOM     25  C   UNL     1      -1.150   2.998  27.986  0.00  0.00    +0.015 A 
ATOM     28  C   UNL     1       1.432   2.712  26.971  0.00  0.00    +0.024 A 
ATOM     29  C   UNL     1      -0.065   2.912  28.857  0.00  0.00    +0.024 A 
ATOM     30  C   UNL     1       1.227   2.769  28.349  0.00  0.00    +0.029 A 
BRANCH  30   7
ATOM      7  N   UNL     1       2.324   2.684  29.230  0.00  0.00    -0.336 N 
ATOM     31  C   UNL     1       3.527   3.454  28.981  0.00  0.00    +0.129 C 
ATOM     32  C   UNL     1       2.263   1.829  30.400  0.00  0.00    +0.129 C 
ENDBRANCH  30   7
ENDBRANCH  20  22
ENDBRANCH  16   5
ENDBRANCH  10  16
TORSDOF 6
ENDMDL
