MODEL 1
REMARK VINA RESULT:      11.3      0.000      0.000
REMARK  Name = 7142399
REMARK  6 active torsions:
REMARK  status: ('A' for Active; 'I' for Inactive)
REMARK    1  A    between atoms: O_4  and  C_20
REMARK    2  A    between atoms: O_4  and  C_26
REMARK    3  A    between atoms: O_5  and  C_29
REMARK    4  A    between atoms: O_5  and  C_30
REMARK    5  A    between atoms: C_17  and  C_20
REMARK    6  A    between atoms: C_21  and  C_23
REMARK                            x       y       z     vdW  Elec       q    Type
REMARK                         _______ _______ _______ _____ _____    ______ ____
ROOT
ATOM      1  O   UNL     1      -4.249  -0.340  25.596  0.00  0.00    -0.273 OA
ATOM      2  O   UNL     1       0.046   2.741  25.500  0.00  0.00    -0.270 OA
ATOM      3  O   UNL     1      -7.058   1.906  23.973  0.00  0.00    -0.273 OA
ATOM      6  N   UNL     1      -2.085   2.053  24.919  0.00  0.00    -0.283 N 
ATOM      7  N   UNL     1      -4.957   2.457  24.801  0.00  0.00    -0.296 N 
ATOM      8  N   UNL     1      -2.051  -0.874  25.346  0.00  0.00    -0.283 N 
ATOM      9  C   UNL     1      -2.933   1.118  24.192  0.00  0.00    +0.180 C 
ATOM     10  C   UNL     1      -4.250   1.751  23.729  0.00  0.00    +0.139 C 
ATOM     11  C   UNL     1      -2.693   3.312  25.351  0.00  0.00    +0.128 C 
ATOM     12  C   UNL     1      -4.131   3.123  25.811  0.00  0.00    +0.127 C 
ATOM     13  C   UNL     1      -3.143  -0.063  25.125  0.00  0.00    +0.239 C 
ATOM     14  C   UNL     1      -0.711   1.875  25.058  0.00  0.00    +0.249 C 
ATOM     15  C   UNL     1      -0.113   0.566  24.686  0.00  0.00    +0.059 A 
ATOM     16  C   UNL     1      -0.718  -0.678  24.926  0.00  0.00    +0.046 A 
ATOM     17  C   UNL     1      -6.353   2.463  24.817  0.00  0.00    +0.241 C 
ATOM     18  C   UNL     1       1.217   0.607  24.229  0.00  0.00    +0.023 A 
ATOM     19  C   UNL     1       0.045  -1.848  24.771  0.00  0.00    +0.024 A 
ATOM     21  C   UNL     1       1.945  -0.565  24.034  0.00  0.00    -0.017 A 
ATOM     22  C   UNL     1       1.363  -1.793  24.319  0.00  0.00    +0.010 A 
ATOM     31  H   UNL     1      -2.253  -1.771  25.783  0.00  0.00    +0.155 HD
ENDROOT
BRANCH  21  23
ATOM     23  C   UNL     1       3.310  -0.502  23.559  0.00  0.00    -0.018 A 
ATOM     24  C   UNL     1       3.705   0.533  22.711  0.00  0.00    +0.012 A 
ATOM     25  C   UNL     1       4.230  -1.474  23.948  0.00  0.00    +0.012 A 
ATOM     27  C   UNL     1       5.021   0.595  22.253  0.00  0.00    +0.046 A 
ATOM     28  C   UNL     1       5.547  -1.412  23.490  0.00  0.00    +0.046 A 
ATOM     29  C   UNL     1       5.942  -0.377  22.643  0.00  0.00    +0.120 A 
BRANCH  29   5
ATOM      5  O   UNL     1       7.226  -0.316  22.196  0.00  0.00    -0.495 OA
ATOM     30  C   UNL     1       8.255  -0.260  23.183  0.00  0.00    +0.277 C 
ENDBRANCH  29   5
ENDBRANCH  21  23
BRANCH  17  20
ATOM     20  C   UNL     1      -7.002   3.214  25.953  0.00  0.00    +0.255 C 
BRANCH  20   4
ATOM      4  O   UNL     1      -6.512   2.644  27.142  0.00  0.00    -0.374 OA
ATOM     26  C   UNL     1      -6.920   1.285  27.293  0.00  0.00    +0.194 C 
ENDBRANCH  20   4
ENDBRANCH  17  20
TORSDOF 4
ENDMDL
MODEL 2
REMARK VINA RESULT:      12.0      1.548      1.788
REMARK  Name = 7142399
REMARK  6 active torsions:
REMARK  status: ('A' for Active; 'I' for Inactive)
REMARK    1  A    between atoms: O_4  and  C_20
REMARK    2  A    between atoms: O_4  and  C_26
REMARK    3  A    between atoms: O_5  and  C_29
REMARK    4  A    between atoms: O_5  and  C_30
REMARK    5  A    between atoms: C_17  and  C_20
REMARK    6  A    between atoms: C_21  and  C_23
REMARK                            x       y       z     vdW  Elec       q    Type
REMARK                         _______ _______ _______ _____ _____    ______ ____
ROOT
ATOM      1  O   UNL     1      -3.994   1.712  23.720  0.00  0.00    -0.273 OA
ATOM      2  O   UNL     1       0.510   2.109  26.458  0.00  0.00    -0.270 OA
ATOM      3  O   UNL     1      -5.514   5.351  23.868  0.00  0.00    -0.273 OA
ATOM      6  N   UNL     1      -1.332   2.868  25.281  0.00  0.00    -0.283 N 
ATOM      7  N   UNL     1      -3.818   4.356  25.109  0.00  0.00    -0.296 N 
ATOM      8  N   UNL     1      -2.005   0.638  23.458  0.00  0.00    -0.283 N 
ATOM      9  C   UNL     1      -2.000   3.043  24.000  0.00  0.00    +0.180 C 
ATOM     10  C   UNL     1      -2.903   4.282  23.967  0.00  0.00    +0.139 C 
ATOM     11  C   UNL     1      -1.812   3.675  26.404  0.00  0.00    +0.128 C 
ATOM     12  C   UNL     1      -3.326   3.832  26.386  0.00  0.00    +0.127 C 
ATOM     13  C   UNL     1      -2.763   1.752  23.749  0.00  0.00    +0.239 C 
ATOM     14  C   UNL     1      -0.171   2.114  25.431  0.00  0.00    +0.249 C 
ATOM     15  C   UNL     1       0.269   1.240  24.312  0.00  0.00    +0.059 A 
ATOM     16  C   UNL     1      -0.602   0.502  23.494  0.00  0.00    +0.046 A 
ATOM     17  C   UNL     1      -5.089   4.907  24.937  0.00  0.00    +0.241 C 
ATOM     18  C   UNL     1       1.656   1.025  24.210  0.00  0.00    +0.023 A 
ATOM     19  C   UNL     1      -0.067  -0.483  22.645  0.00  0.00    +0.024 A 
ATOM     21  C   UNL     1       2.173   0.078  23.327  0.00  0.00    -0.017 A 
ATOM     22  C   UNL     1       1.309  -0.687  22.554  0.00  0.00    +0.010 A 
ATOM     31  H   UNL     1      -2.520  -0.154  23.078  0.00  0.00    +0.155 HD
ENDROOT
BRANCH  21  23
ATOM     23  C   UNL     1       3.602  -0.124  23.234  0.00  0.00    -0.018 A 
ATOM     24  C   UNL     1       4.395   0.806  22.561  0.00  0.00    +0.012 A 
ATOM     25  C   UNL     1       4.186  -1.247  23.817  0.00  0.00    +0.012 A 
ATOM     27  C   UNL     1       5.773   0.611  22.471  0.00  0.00    +0.046 A 
ATOM     28  C   UNL     1       5.566  -1.442  23.727  0.00  0.00    +0.046 A 
ATOM     29  C   UNL     1       6.359  -0.513  23.055  0.00  0.00    +0.120 A 
BRANCH  29   5
ATOM      5  O   UNL     1       7.704  -0.702  22.968  0.00  0.00    -0.495 OA
ATOM     30  C   UNL     1       8.540   0.363  23.417  0.00  0.00    +0.277 C 
ENDBRANCH  29   5
ENDBRANCH  21  23
BRANCH  17  20
ATOM     20  C   UNL     1      -5.968   4.948  26.163  0.00  0.00    +0.255 C 
BRANCH  20   4
ATOM      4  O   UNL     1      -6.846   3.854  26.064  0.00  0.00    -0.374 OA
ATOM     26  C   UNL     1      -6.160   2.606  26.143  0.00  0.00    +0.194 C 
ENDBRANCH  20   4
ENDBRANCH  17  20
TORSDOF 4
ENDMDL
