MODEL 1
REMARK VINA RESULT:      -4.3      0.000      0.000
REMARK  Name = 11943282
REMARK  4 active torsions:
REMARK  status: ('A' for Active; 'I' for Inactive)
REMARK    1  A    between atoms: N_4  and  C_14
REMARK    2  A    between atoms: C_7  and  C_13
REMARK    3  A    between atoms: C_8  and  C_14
REMARK    4  A    between atoms: C_13  and  C_15
REMARK                            x       y       z     vdW  Elec       q    Type
REMARK                         _______ _______ _______ _____ _____    ______ ____
ROOT
ATOM     14  C   UNL     1      -0.087  -0.516  24.964  0.00  0.00    +0.124 C 
ENDROOT
BRANCH  14   4
ATOM      1  O   UNL     1       0.726   1.933  23.840  0.00  0.00    -0.253 OA
ATOM      2  O   UNL     1      -2.075   5.568  25.643  0.00  0.00    -0.377 OA
ATOM      4  N   UNL     1      -0.567   0.791  25.353  0.00  0.00    -0.298 N 
ATOM      5  N   UNL     1      -0.668   3.151  25.237  0.00  0.00    -0.281 N 
ATOM     16  C   UNL     1      -0.113   1.956  24.745  0.00  0.00    +0.302 C 
ATOM     17  C   UNL     1      -1.668   3.265  26.308  0.00  0.00    +0.137 C 
ATOM     18  C   UNL     1      -0.127   4.431  24.777  0.00  0.00    +0.137 C 
ATOM     19  C   UNL     1      -2.706   4.329  25.970  0.00  0.00    +0.179 C 
ATOM     20  C   UNL     1      -1.242   5.424  24.491  0.00  0.00    +0.179 C 
ATOM     21  H   UNL     1      -1.194   0.821  26.145  0.00  0.00    +0.150 HD
ENDBRANCH  14   4
BRANCH  14   8
ATOM      3  N   UNL     1      -1.864  -1.893  23.852  0.00  0.00    -0.298 NA
ATOM      6  C   UNL     1      -3.627  -1.470  25.717  0.00  0.00    -0.004 C 
ATOM      7  C   UNL     1      -3.922  -0.603  24.473  0.00  0.00    +0.006 C 
ATOM      8  C   UNL     1      -1.181  -1.572  25.134  0.00  0.00    +0.074 C 
ATOM      9  C   UNL     1      -2.202  -1.170  26.221  0.00  0.00    +0.024 C 
ATOM     10  C   UNL     1      -2.770  -0.786  23.460  0.00  0.00    +0.088 C 
ATOM     11  C   UNL     1      -3.647  -2.939  25.254  0.00  0.00    +0.019 C 
ATOM     12  C   UNL     1      -2.686  -3.109  24.063  0.00  0.00    +0.085 C 
BRANCH   7  13
ATOM     13  C   UNL     1      -4.151   0.870  24.805  0.00  0.00    +0.002 C 
ATOM     15  C   UNL     1      -3.688   1.770  23.676  0.00  0.00    +0.004 C 
ENDBRANCH   7  13
ENDBRANCH  14   8
TORSDOF 3
ENDMDL
MODEL 2
REMARK VINA RESULT:      -3.9     16.750     19.010
REMARK  Name = 11943282
REMARK  4 active torsions:
REMARK  status: ('A' for Active; 'I' for Inactive)
REMARK    1  A    between atoms: N_4  and  C_14
REMARK    2  A    between atoms: C_7  and  C_13
REMARK    3  A    between atoms: C_8  and  C_14
REMARK    4  A    between atoms: C_13  and  C_15
REMARK                            x       y       z     vdW  Elec       q    Type
REMARK                         _______ _______ _______ _____ _____    ______ ____
ROOT
ATOM     14  C   UNL     1      13.152   7.932  21.360  0.00  0.00    +0.124 C 
ENDROOT
BRANCH  14   4
ATOM      1  O   UNL     1      10.794   8.204  19.849  0.00  0.00    -0.253 OA
ATOM      2  O   UNL     1      11.961   8.826  15.098  0.00  0.00    -0.377 OA
ATOM      4  N   UNL     1      13.077   7.983  19.917  0.00  0.00    -0.298 N 
ATOM      5  N   UNL     1      11.956   8.147  17.842  0.00  0.00    -0.281 N 
ATOM     16  C   UNL     1      11.868   8.120  19.245  0.00  0.00    +0.302 C 
ATOM     17  C   UNL     1      13.190   8.053  17.049  0.00  0.00    +0.137 C 
ATOM     18  C   UNL     1      10.725   8.117  17.049  0.00  0.00    +0.137 C 
ATOM     19  C   UNL     1      13.150   9.015  15.868  0.00  0.00    +0.179 C 
ATOM     20  C   UNL     1      10.800   9.094  15.887  0.00  0.00    +0.179 C 
ATOM     21  H   UNL     1      13.943   7.835  19.417  0.00  0.00    +0.150 HD
ENDBRANCH  14   4
BRANCH  14   8
ATOM      3  N   UNL     1      15.462   8.899  21.231  0.00  0.00    -0.298 NA
ATOM      6  C   UNL     1      16.626   6.583  21.006  0.00  0.00    -0.004 C 
ATOM      7  C   UNL     1      16.557   7.301  19.639  0.00  0.00    +0.006 C 
ATOM      8  C   UNL     1      14.606   7.840  21.828  0.00  0.00    +0.074 C 
ATOM      9  C   UNL     1      15.202   6.436  21.576  0.00  0.00    +0.024 C 
ATOM     10  C   UNL     1      15.734   8.598  19.804  0.00  0.00    +0.088 C 
ATOM     11  C   UNL     1      17.405   7.508  21.958  0.00  0.00    +0.019 C 
ATOM     12  C   UNL     1      16.756   8.904  21.955  0.00  0.00    +0.085 C 
BRANCH   7  13
ATOM     13  C   UNL     1      16.002   6.420  18.523  0.00  0.00    +0.002 C 
ATOM     15  C   UNL     1      17.084   5.545  17.918  0.00  0.00    +0.004 C 
ENDBRANCH   7  13
ENDBRANCH  14   8
TORSDOF 3
ENDMDL
MODEL 3
REMARK VINA RESULT:      -3.9      2.876      4.462
REMARK  Name = 11943282
REMARK  4 active torsions:
REMARK  status: ('A' for Active; 'I' for Inactive)
REMARK    1  A    between atoms: N_4  and  C_14
REMARK    2  A    between atoms: C_7  and  C_13
REMARK    3  A    between atoms: C_8  and  C_14
REMARK    4  A    between atoms: C_13  and  C_15
REMARK                            x       y       z     vdW  Elec       q    Type
REMARK                         _______ _______ _______ _____ _____    ______ ____
ROOT
ATOM     14  C   UNL     1      -0.598   0.246  24.015  0.00  0.00    +0.124 C 
ENDROOT
BRANCH  14   4
ATOM      1  O   UNL     1       1.560   1.986  23.528  0.00  0.00    -0.253 OA
ATOM      2  O   UNL     1       5.745  -0.616  23.341  0.00  0.00    -0.377 OA
ATOM      4  N   UNL     1       0.765  -0.156  23.748  0.00  0.00    -0.298 N 
ATOM      5  N   UNL     1       3.048   0.226  23.264  0.00  0.00    -0.281 N 
ATOM     16  C   UNL     1       1.777   0.770  23.517  0.00  0.00    +0.302 C 
ATOM     17  C   UNL     1       3.389  -1.204  23.233  0.00  0.00    +0.137 C 
ATOM     18  C   UNL     1       4.134   1.114  22.844  0.00  0.00    +0.137 C 
ATOM     19  C   UNL     1       4.735  -1.456  23.902  0.00  0.00    +0.179 C 
ATOM     20  C   UNL     1       5.432   0.763  23.552  0.00  0.00    +0.179 C 
ATOM     21  H   UNL     1       0.931  -1.148  23.659  0.00  0.00    +0.150 HD
ENDBRANCH  14   4
BRANCH  14   8
ATOM      3  N   UNL     1      -2.421  -1.443  23.678  0.00  0.00    -0.298 NA
ATOM      6  C   UNL     1      -3.488  -1.038  26.016  0.00  0.00    -0.004 C 
ATOM      7  C   UNL     1      -4.314  -0.349  24.906  0.00  0.00    +0.006 C 
ATOM      8  C   UNL     1      -1.399  -0.909  24.618  0.00  0.00    +0.074 C 
ATOM      9  C   UNL     1      -2.038  -0.519  25.970  0.00  0.00    +0.024 C 
ATOM     10  C   UNL     1      -3.560  -0.499  23.566  0.00  0.00    +0.088 C 
ATOM     11  C   UNL     1      -3.446  -2.539  25.675  0.00  0.00    +0.019 C 
ATOM     12  C   UNL     1      -2.932  -2.719  24.235  0.00  0.00    +0.085 C 
BRANCH   7  13
ATOM     13  C   UNL     1      -4.632   1.113  25.212  0.00  0.00    +0.002 C 
ATOM     15  C   UNL     1      -4.016   2.041  24.182  0.00  0.00    +0.004 C 
ENDBRANCH   7  13
ENDBRANCH  14   8
TORSDOF 3
ENDMDL
MODEL 4
REMARK VINA RESULT:      -3.7      2.433      6.063
REMARK  Name = 11943282
REMARK  4 active torsions:
REMARK  status: ('A' for Active; 'I' for Inactive)
REMARK    1  A    between atoms: N_4  and  C_14
REMARK    2  A    between atoms: C_7  and  C_13
REMARK    3  A    between atoms: C_8  and  C_14
REMARK    4  A    between atoms: C_13  and  C_15
REMARK                            x       y       z     vdW  Elec       q    Type
REMARK                         _______ _______ _______ _____ _____    ______ ____
ROOT
ATOM     14  C   UNL     1      -4.893   2.255  25.405  0.00  0.00    +0.124 C 
ENDROOT
BRANCH  14   4
ATOM      1  O   UNL     1      -5.138  -0.298  24.246  0.00  0.00    -0.253 OA
ATOM      2  O   UNL     1      -0.987  -2.846  25.016  0.00  0.00    -0.377 OA
ATOM      4  N   UNL     1      -3.947   1.171  25.546  0.00  0.00    -0.298 N 
ATOM      5  N   UNL     1      -3.138  -1.020  25.174  0.00  0.00    -0.281 N 
ATOM     16  C   UNL     1      -4.142  -0.064  24.938  0.00  0.00    +0.302 C 
ATOM     17  C   UNL     1      -1.927  -0.823  25.982  0.00  0.00    +0.137 C 
ATOM     18  C   UNL     1      -3.342  -2.396  24.717  0.00  0.00    +0.137 C 
ATOM     19  C   UNL     1      -0.720  -1.476  25.319  0.00  0.00    +0.179 C 
ATOM     20  C   UNL     1      -2.074  -2.958  24.095  0.00  0.00    +0.179 C 
ATOM     21  H   UNL     1      -3.172   1.331  26.174  0.00  0.00    +0.150 HD
ENDBRANCH  14   4
BRANCH  14   8
ATOM      3  N   UNL     1      -3.646   3.831  23.904  0.00  0.00    -0.298 NA
ATOM      6  C   UNL     1      -1.798   4.343  25.661  0.00  0.00    -0.004 C 
ATOM      7  C   UNL     1      -1.279   3.362  24.586  0.00  0.00    +0.006 C 
ATOM      8  C   UNL     1      -4.170   3.598  25.276  0.00  0.00    +0.074 C 
ATOM      9  C   UNL     1      -3.052   3.749  26.331  0.00  0.00    +0.024 C 
ATOM     10  C   UNL     1      -2.454   2.982  23.657  0.00  0.00    +0.088 C 
ATOM     11  C   UNL     1      -2.237   5.623  24.924  0.00  0.00    +0.019 C 
ATOM     12  C   UNL     1      -3.229   5.250  23.808  0.00  0.00    +0.085 C 
BRANCH   7  13
ATOM     13  C   UNL     1      -0.605   2.125  25.175  0.00  0.00    +0.002 C 
ATOM     15  C   UNL     1       0.193   2.468  26.419  0.00  0.00    +0.004 C 
ENDBRANCH   7  13
ENDBRANCH  14   8
TORSDOF 3
ENDMDL
MODEL 5
REMARK VINA RESULT:      -3.5     17.733     19.793
REMARK  Name = 11943282
REMARK  4 active torsions:
REMARK  status: ('A' for Active; 'I' for Inactive)
REMARK    1  A    between atoms: N_4  and  C_14
REMARK    2  A    between atoms: C_7  and  C_13
REMARK    3  A    between atoms: C_8  and  C_14
REMARK    4  A    between atoms: C_13  and  C_15
REMARK                            x       y       z     vdW  Elec       q    Type
REMARK                         _______ _______ _______ _____ _____    ______ ____
ROOT
ATOM     14  C   UNL     1      17.076  -6.427  28.309  0.00  0.00    +0.124 C 
ENDROOT
BRANCH  14   4
ATOM      1  O   UNL     1      16.798  -6.610  25.515  0.00  0.00    -0.253 OA
ATOM      2  O   UNL     1      16.754  -2.075  23.578  0.00  0.00    -0.377 OA
ATOM      4  N   UNL     1      17.169  -5.324  27.379  0.00  0.00    -0.298 N 
ATOM      5  N   UNL     1      17.144  -4.334  25.232  0.00  0.00    -0.281 N 
ATOM     16  C   UNL     1      17.019  -5.499  26.008  0.00  0.00    +0.302 C 
ATOM     17  C   UNL     1      17.405  -2.979  25.739  0.00  0.00    +0.137 C 
ATOM     18  C   UNL     1      17.170  -4.448  23.772  0.00  0.00    +0.137 C 
ATOM     19  C   UNL     1      16.570  -1.948  24.989  0.00  0.00    +0.179 C 
ATOM     20  C   UNL     1      16.326  -3.361  23.125  0.00  0.00    +0.179 C 
ATOM     21  H   UNL     1      17.428  -4.429  27.769  0.00  0.00    +0.150 HD
ENDBRANCH  14   4
BRANCH  14   8
ATOM      3  N   UNL     1      16.964  -7.027  30.742  0.00  0.00    -0.298 NA
ATOM      6  C   UNL     1      15.024  -5.371  31.256  0.00  0.00    -0.004 C 
ATOM      7  C   UNL     1      14.501  -6.822  31.167  0.00  0.00    +0.006 C 
ATOM      8  C   UNL     1      16.963  -5.920  29.749  0.00  0.00    +0.074 C 
ATOM      9  C   UNL     1      15.734  -5.004  29.938  0.00  0.00    +0.024 C 
ATOM     10  C   UNL     1      15.662  -7.738  30.720  0.00  0.00    +0.088 C 
ATOM     11  C   UNL     1      16.088  -5.346  32.369  0.00  0.00    +0.019 C 
ATOM     12  C   UNL     1      17.142  -6.432  32.089  0.00  0.00    +0.085 C 
BRANCH   7  13
ATOM     13  C   UNL     1      13.285  -6.970  30.256  0.00  0.00    +0.002 C 
ATOM     15  C   UNL     1      12.041  -6.382  30.894  0.00  0.00    +0.004 C 
ENDBRANCH   7  13
ENDBRANCH  14   8
TORSDOF 3
ENDMDL
MODEL 6
REMARK VINA RESULT:      -3.2      1.723      3.189
REMARK  Name = 11943282
REMARK  4 active torsions:
REMARK  status: ('A' for Active; 'I' for Inactive)
REMARK    1  A    between atoms: N_4  and  C_14
REMARK    2  A    between atoms: C_7  and  C_13
REMARK    3  A    between atoms: C_8  and  C_14
REMARK    4  A    between atoms: C_13  and  C_15
REMARK                            x       y       z     vdW  Elec       q    Type
REMARK                         _______ _______ _______ _____ _____    ______ ____
ROOT
ATOM     14  C   UNL     1      -4.736   0.445  24.899  0.00  0.00    +0.124 C 
ENDROOT
BRANCH  14   4
ATOM      1  O   UNL     1      -4.847   3.185  25.534  0.00  0.00    -0.253 OA
ATOM      2  O   UNL     1      -0.503   5.278  24.500  0.00  0.00    -0.377 OA
ATOM      4  N   UNL     1      -3.712   1.422  24.601  0.00  0.00    -0.298 N 
ATOM      5  N   UNL     1      -2.768   3.590  24.587  0.00  0.00    -0.281 N 
ATOM     16  C   UNL     1      -3.844   2.761  24.950  0.00  0.00    +0.302 C 
ATOM     17  C   UNL     1      -1.544   3.166  23.893  0.00  0.00    +0.137 C 
ATOM     18  C   UNL     1      -2.893   5.039  24.761  0.00  0.00    +0.137 C 
ATOM     19  C   UNL     1      -0.320   3.861  24.479  0.00  0.00    +0.179 C 
ATOM     20  C   UNL     1      -1.614   5.633  25.327  0.00  0.00    +0.179 C 
ATOM     21  H   UNL     1      -2.928   1.096  24.054  0.00  0.00    +0.150 HD
ENDBRANCH  14   4
BRANCH  14   8
ATOM      3  N   UNL     1      -3.571  -1.532  25.910  0.00  0.00    -0.298 NA
ATOM      6  C   UNL     1      -2.041  -1.927  23.843  0.00  0.00    -0.004 C 
ATOM      7  C   UNL     1      -1.258  -1.242  24.985  0.00  0.00    +0.006 C 
ATOM      8  C   UNL     1      -4.213  -0.977  24.688  0.00  0.00    +0.074 C 
ATOM      9  C   UNL     1      -3.262  -1.063  23.473  0.00  0.00    +0.024 C 
ATOM     10  C   UNL     1      -2.244  -0.903  26.125  0.00  0.00    +0.088 C 
ATOM     11  C   UNL     1      -2.576  -3.258  24.402  0.00  0.00    +0.019 C 
ATOM     12  C   UNL     1      -3.363  -2.984  25.697  0.00  0.00    +0.085 C 
BRANCH   7  13
ATOM     13  C   UNL     1      -0.480  -0.010  24.528  0.00  0.00    +0.002 C 
ATOM     15  C   UNL     1       0.444  -0.336  23.370  0.00  0.00    +0.004 C 
ENDBRANCH   7  13
ENDBRANCH  14   8
TORSDOF 3
ENDMDL
MODEL 7
REMARK VINA RESULT:      -3.2      2.142      5.765
REMARK  Name = 11943282
REMARK  4 active torsions:
REMARK  status: ('A' for Active; 'I' for Inactive)
REMARK    1  A    between atoms: N_4  and  C_14
REMARK    2  A    between atoms: C_7  and  C_13
REMARK    3  A    between atoms: C_8  and  C_14
REMARK    4  A    between atoms: C_13  and  C_15
REMARK                            x       y       z     vdW  Elec       q    Type
REMARK                         _______ _______ _______ _____ _____    ______ ____
ROOT
ATOM     14  C   UNL     1      -0.157   1.815  24.247  0.00  0.00    +0.124 C 
ENDROOT
BRANCH  14   4
ATOM      1  O   UNL     1      -0.061  -0.871  25.083  0.00  0.00    -0.253 OA
ATOM      2  O   UNL     1      -4.388  -3.034  24.128  0.00  0.00    -0.377 OA
ATOM      4  N   UNL     1      -1.177   0.819  24.003  0.00  0.00    -0.298 N 
ATOM      5  N   UNL     1      -2.123  -1.344  24.131  0.00  0.00    -0.281 N 
ATOM     16  C   UNL     1      -1.053  -0.491  24.452  0.00  0.00    +0.302 C 
ATOM     17  C   UNL     1      -3.335  -0.972  23.387  0.00  0.00    +0.137 C 
ATOM     18  C   UNL     1      -2.003  -2.776  24.412  0.00  0.00    +0.137 C 
ATOM     19  C   UNL     1      -4.569  -1.623  24.000  0.00  0.00    +0.179 C 
ATOM     20  C   UNL     1      -3.293  -3.327  24.998  0.00  0.00    +0.179 C 
ATOM     21  H   UNL     1      -1.952   1.104  23.421  0.00  0.00    +0.150 HD
ENDBRANCH  14   4
BRANCH  14   8
ATOM      3  N   UNL     1      -0.899   3.876  25.469  0.00  0.00    -0.298 NA
ATOM      6  C   UNL     1      -3.077   4.150  24.074  0.00  0.00    -0.004 C 
ATOM      7  C   UNL     1      -3.386   3.559  25.468  0.00  0.00    +0.006 C 
ATOM      8  C   UNL     1      -0.737   3.227  24.141  0.00  0.00    +0.074 C 
ATOM      9  C   UNL     1      -2.064   3.244  23.349  0.00  0.00    +0.024 C 
ATOM     10  C   UNL     1      -2.050   3.284  26.194  0.00  0.00    +0.088 C 
ATOM     11  C   UNL     1      -2.389   5.509  24.307  0.00  0.00    +0.019 C 
ATOM     12  C   UNL     1      -1.185   5.313  25.245  0.00  0.00    +0.085 C 
BRANCH   7  13
ATOM     13  C   UNL     1      -4.263   2.310  25.411  0.00  0.00    +0.002 C 
ATOM     15  C   UNL     1      -5.735   2.663  25.517  0.00  0.00    +0.004 C 
ENDBRANCH   7  13
ENDBRANCH  14   8
TORSDOF 3
ENDMDL
MODEL 8
REMARK VINA RESULT:      -2.8      3.055      5.330
REMARK  Name = 11943282
REMARK  4 active torsions:
REMARK  status: ('A' for Active; 'I' for Inactive)
REMARK    1  A    between atoms: N_4  and  C_14
REMARK    2  A    between atoms: C_7  and  C_13
REMARK    3  A    between atoms: C_8  and  C_14
REMARK    4  A    between atoms: C_13  and  C_15
REMARK                            x       y       z     vdW  Elec       q    Type
REMARK                         _______ _______ _______ _____ _____    ______ ____
ROOT
ATOM     14  C   UNL     1      -0.514  -0.348  23.560  0.00  0.00    +0.124 C 
ENDROOT
BRANCH  14   4
ATOM      1  O   UNL     1       1.471   1.612  23.188  0.00  0.00    -0.253 OA
ATOM      2  O   UNL     1       5.921  -0.480  23.547  0.00  0.00    -0.377 OA
ATOM      4  N   UNL     1       0.906  -0.597  23.447  0.00  0.00    -0.298 N 
ATOM      5  N   UNL     1       3.168   0.031  23.165  0.00  0.00    -0.281 N 
ATOM     16  C   UNL     1       1.824   0.431  23.264  0.00  0.00    +0.302 C 
ATOM     17  C   UNL     1       3.670  -1.348  23.245  0.00  0.00    +0.137 C 
ATOM     18  C   UNL     1       4.182   1.023  22.802  0.00  0.00    +0.137 C 
ATOM     19  C   UNL     1       4.960  -1.409  24.054  0.00  0.00    +0.179 C 
ATOM     20  C   UNL     1       5.433   0.859  23.650  0.00  0.00    +0.179 C 
ATOM     21  H   UNL     1       1.191  -1.566  23.430  0.00  0.00    +0.150 HD
ENDBRANCH  14   4
BRANCH  14   8
ATOM      3  N   UNL     1      -1.063   1.174  25.476  0.00  0.00    -0.298 NA
ATOM      6  C   UNL     1      -2.848   2.519  24.145  0.00  0.00    -0.004 C 
ATOM      7  C   UNL     1      -3.521   1.522  25.116  0.00  0.00    +0.006 C 
ATOM      8  C   UNL     1      -0.783   1.087  24.018  0.00  0.00    +0.074 C 
ATOM      9  C   UNL     1      -1.910   1.750  23.195  0.00  0.00    +0.024 C 
ATOM     10  C   UNL     1      -2.422   0.655  25.770  0.00  0.00    +0.088 C 
ATOM     11  C   UNL     1      -1.970   3.452  24.998  0.00  0.00    +0.019 C 
ATOM     12  C   UNL     1      -1.022   2.604  25.865  0.00  0.00    +0.085 C 
BRANCH   7  13
ATOM     13  C   UNL     1      -4.594   0.664  24.451  0.00  0.00    +0.002 C 
ATOM     15  C   UNL     1      -4.182  -0.795  24.399  0.00  0.00    +0.004 C 
ENDBRANCH   7  13
ENDBRANCH  14   8
TORSDOF 3
ENDMDL
MODEL 9
REMARK VINA RESULT:      -2.7      1.305      1.418
REMARK  Name = 11943282
REMARK  4 active torsions:
REMARK  status: ('A' for Active; 'I' for Inactive)
REMARK    1  A    between atoms: N_4  and  C_14
REMARK    2  A    between atoms: C_7  and  C_13
REMARK    3  A    between atoms: C_8  and  C_14
REMARK    4  A    between atoms: C_13  and  C_15
REMARK                            x       y       z     vdW  Elec       q    Type
REMARK                         _______ _______ _______ _____ _____    ______ ____
ROOT
ATOM     14  C   UNL     1      -0.408  -0.207  24.077  0.00  0.00    +0.124 C 
ENDROOT
BRANCH  14   4
ATOM      1  O   UNL     1      -2.027   1.685  22.765  0.00  0.00    -0.253 OA
ATOM      2  O   UNL     1      -3.338   5.207  25.957  0.00  0.00    -0.377 OA
ATOM      4  N   UNL     1      -0.866   1.045  24.638  0.00  0.00    -0.298 N 
ATOM      5  N   UNL     1      -2.024   3.106  24.598  0.00  0.00    -0.281 N 
ATOM     16  C   UNL     1      -1.666   1.927  23.921  0.00  0.00    +0.302 C 
ATOM     17  C   UNL     1      -1.638   3.469  25.969  0.00  0.00    +0.137 C 
ATOM     18  C   UNL     1      -2.720   4.166  23.866  0.00  0.00    +0.137 C 
ATOM     19  C   UNL     1      -2.804   4.115  26.708  0.00  0.00    +0.179 C 
ATOM     20  C   UNL     1      -3.846   4.756  24.699  0.00  0.00    +0.179 C 
ATOM     21  H   UNL     1      -0.509   1.284  25.552  0.00  0.00    +0.150 HD
ENDBRANCH  14   4
BRANCH  14   8
ATOM      3  N   UNL     1      -2.308  -1.796  23.685  0.00  0.00    -0.298 NA
ATOM      6  C   UNL     1      -3.258  -1.553  26.095  0.00  0.00    -0.004 C 
ATOM      7  C   UNL     1      -4.103  -0.743  25.085  0.00  0.00    +0.006 C 
ATOM      8  C   UNL     1      -1.227  -1.380  24.619  0.00  0.00    +0.074 C 
ATOM      9  C   UNL     1      -1.792  -1.083  26.026  0.00  0.00    +0.024 C 
ATOM     10  C   UNL     1      -3.413  -0.806  23.704  0.00  0.00    +0.088 C 
ATOM     11  C   UNL     1      -3.289  -3.020  25.629  0.00  0.00    +0.019 C 
ATOM     12  C   UNL     1      -2.845  -3.095  24.157  0.00  0.00    +0.085 C 
BRANCH   7  13
ATOM     13  C   UNL     1      -4.350   0.697  25.525  0.00  0.00    +0.002 C 
ATOM     15  C   UNL     1      -5.405   1.366  24.664  0.00  0.00    +0.004 C 
ENDBRANCH   7  13
ENDBRANCH  14   8
TORSDOF 3
ENDMDL
MODEL 10
REMARK VINA RESULT:      -1.7      2.291      4.831
REMARK  Name = 11943282
REMARK  4 active torsions:
REMARK  status: ('A' for Active; 'I' for Inactive)
REMARK    1  A    between atoms: N_4  and  C_14
REMARK    2  A    between atoms: C_7  and  C_13
REMARK    3  A    between atoms: C_8  and  C_14
REMARK    4  A    between atoms: C_13  and  C_15
REMARK                            x       y       z     vdW  Elec       q    Type
REMARK                         _______ _______ _______ _____ _____    ______ ____
ROOT
ATOM     14  C   UNL     1      -4.018   0.097  25.376  0.00  0.00    +0.124 C 
ENDROOT
BRANCH  14   4
ATOM      1  O   UNL     1      -2.153  -1.473  23.970  0.00  0.00    -0.253 OA
ATOM      2  O   UNL     1       2.044   1.061  23.438  0.00  0.00    -0.377 OA
ATOM      4  N   UNL     1      -2.630   0.435  25.153  0.00  0.00    -0.298 N 
ATOM      5  N   UNL     1      -0.449   0.062  24.319  0.00  0.00    -0.281 N 
ATOM     16  C   UNL     1      -1.771  -0.399  24.446  0.00  0.00    +0.302 C 
ATOM     17  C   UNL     1       0.085   1.323  24.853  0.00  0.00    +0.137 C 
ATOM     18  C   UNL     1       0.563  -0.825  23.740  0.00  0.00    +0.137 C 
ATOM     19  C   UNL     1       1.031   1.978  23.854  0.00  0.00    +0.179 C 
ATOM     20  C   UNL     1       1.466  -0.068  22.779  0.00  0.00    +0.179 C 
ATOM     21  H   UNL     1      -2.293   1.272  25.607  0.00  0.00    +0.150 HD
ENDBRANCH  14   4
BRANCH  14   8
ATOM      3  N   UNL     1      -5.168   2.004  24.222  0.00  0.00    -0.298 NA
ATOM      6  C   UNL     1      -4.331   3.787  25.922  0.00  0.00    -0.004 C 
ATOM      7  C   UNL     1      -3.520   3.855  24.608  0.00  0.00    +0.006 C 
ATOM      8  C   UNL     1      -4.869   1.360  25.529  0.00  0.00    +0.074 C 
ATOM      9  C   UNL     1      -4.229   2.367  26.511  0.00  0.00    +0.024 C 
ATOM     10  C   UNL     1      -3.960   2.687  23.697  0.00  0.00    +0.088 C 
ATOM     11  C   UNL     1      -5.807   4.021  25.550  0.00  0.00    +0.019 C 
ATOM     12  C   UNL     1      -6.215   3.029  24.447  0.00  0.00    +0.085 C 
BRANCH   7  13
ATOM     13  C   UNL     1      -2.010   3.856  24.832  0.00  0.00    +0.002 C 
ATOM     15  C   UNL     1      -1.489   5.258  25.086  0.00  0.00    +0.004 C 
ENDBRANCH   7  13
ENDBRANCH  14   8
TORSDOF 3
ENDMDL
