MODEL 1
REMARK VINA RESULT:      -1.4      0.000      0.000
REMARK  Name = 45783501
REMARK  12 active torsions:
REMARK  status: ('A' for Active; 'I' for Inactive)
REMARK    1  A    between atoms: O_2  and  C_17
REMARK    2  A    between atoms: O_3  and  C_23
REMARK    3  A    between atoms: O_3  and  C_28
REMARK    4  A    between atoms: O_4  and  C_30
REMARK    5  A    between atoms: O_4  and  C_31
REMARK    6  A    between atoms: N_5  and  C_14
REMARK    7  A    between atoms: N_9  and  C_27
REMARK    8  A    between atoms: N_9  and  C_29
REMARK    9  A    between atoms: C_10  and  C_15
REMARK   10  A    between atoms: C_14  and  C_16
REMARK   11  A    between atoms: C_19  and  C_22
REMARK   12  A    between atoms: C_29  and  C_30
REMARK                            x       y       z     vdW  Elec       q    Type
REMARK                         _______ _______ _______ _____ _____    ______ ____
ROOT
ATOM      1  O   UNL     1      -2.112   2.810  25.490  0.00  0.00    -0.336 OA
ATOM      6  N   UNL     1      -1.893   1.714  23.549  0.00  0.00    -0.190 NA
ATOM      7  N   UNL     1      -0.744   2.547  25.344  0.00  0.00    -0.056 NA
ATOM     15  C   UNL     1      -2.715   2.286  24.391  0.00  0.00    +0.245 A 
ATOM     19  C   UNL     1      -0.695   1.899  24.177  0.00  0.00    +0.204 A 
ENDROOT
BRANCH  19  22
ATOM      8  N   UNL     1       2.865   1.818  23.103  0.00  0.00    -0.240 NA
ATOM     22  C   UNL     1       0.534   1.423  23.610  0.00  0.00    +0.041 A 
ATOM     24  C   UNL     1       0.615   0.160  23.034  0.00  0.00    +0.016 A 
ATOM     25  C   UNL     1       1.676   2.206  23.619  0.00  0.00    +0.124 A 
ATOM     26  C   UNL     1       1.821  -0.275  22.492  0.00  0.00    +0.044 A 
ATOM     27  C   UNL     1       2.906   0.585  22.551  0.00  0.00    +0.119 A 
BRANCH  27   9
ATOM      9  N   UNL     1       4.126   0.127  21.997  0.00  0.00    -0.327 N 
ATOM     33  H   UNL     1       4.065  -0.356  21.107  0.00  0.00    +0.148 HD
BRANCH   9  29
ATOM     29  C   UNL     1       5.385   0.320  22.639  0.00  0.00    +0.131 C 
BRANCH  29  30
ATOM     30  C   UNL     1       5.210   0.295  24.148  0.00  0.00    +0.178 C 
BRANCH  30   4
ATOM      4  O   UNL     1       5.531  -1.000  24.640  0.00  0.00    -0.381 OA
ATOM     31  C   UNL     1       4.745  -2.005  24.015  0.00  0.00    +0.194 C 
ENDBRANCH  30   4
ENDBRANCH  29  30
ENDBRANCH   9  29
ENDBRANCH  27   9
ENDBRANCH  19  22
BRANCH  15  10
ATOM      5  N   UNL     1      -4.934   1.549  25.243  0.00  0.00    -0.287 NA
ATOM     10  C   UNL     1      -4.219   2.442  24.309  0.00  0.00    +0.146 C 
ATOM     11  C   UNL     1      -4.692   3.858  24.683  0.00  0.00    +0.030 C 
ATOM     12  C   UNL     1      -5.713   3.657  25.794  0.00  0.00    +0.017 C 
ATOM     13  C   UNL     1      -6.181   2.229  25.593  0.00  0.00    +0.085 C 
BRANCH   5  14
ATOM     14  C   UNL     1      -5.169   0.218  24.699  0.00  0.00    +0.124 C 
BRANCH  14  16
ATOM     16  C   UNL     1      -3.973  -0.679  24.874  0.00  0.00    +0.008 A 
ATOM     17  C   UNL     1      -3.833  -1.837  24.110  0.00  0.00    +0.125 A 
ATOM     18  C   UNL     1      -2.998  -0.340  25.813  0.00  0.00    +0.012 A 
ATOM     20  C   UNL     1      -2.718  -2.657  24.285  0.00  0.00    +0.091 A 
ATOM     21  C   UNL     1      -1.883  -1.159  25.987  0.00  0.00    +0.046 A 
ATOM     23  C   UNL     1      -1.743  -2.319  25.223  0.00  0.00    +0.124 A 
BRANCH  17   2
ATOM      2  O   UNL     1      -4.776  -2.183  23.190  0.00  0.00    -0.506 OA
ATOM     32  H   UNL     1      -5.060  -3.100  23.350  0.00  0.00    +0.292 HD
ENDBRANCH  17   2
BRANCH  23   3
ATOM      3  O   UNL     1      -0.655  -3.118  25.394  0.00  0.00    -0.495 OA
ATOM     28  C   UNL     1       0.621  -2.479  25.429  0.00  0.00    +0.277 C 
ENDBRANCH  23   3
ENDBRANCH  14  16
ENDBRANCH   5  14
ENDBRANCH  15  10
TORSDOF 10
ENDMDL
MODEL 2
REMARK VINA RESULT:      -0.4      1.701      3.940
REMARK  Name = 45783501
REMARK  12 active torsions:
REMARK  status: ('A' for Active; 'I' for Inactive)
REMARK    1  A    between atoms: O_2  and  C_17
REMARK    2  A    between atoms: O_3  and  C_23
REMARK    3  A    between atoms: O_3  and  C_28
REMARK    4  A    between atoms: O_4  and  C_30
REMARK    5  A    between atoms: O_4  and  C_31
REMARK    6  A    between atoms: N_5  and  C_14
REMARK    7  A    between atoms: N_9  and  C_27
REMARK    8  A    between atoms: N_9  and  C_29
REMARK    9  A    between atoms: C_10  and  C_15
REMARK   10  A    between atoms: C_14  and  C_16
REMARK   11  A    between atoms: C_19  and  C_22
REMARK   12  A    between atoms: C_29  and  C_30
REMARK                            x       y       z     vdW  Elec       q    Type
REMARK                         _______ _______ _______ _____ _____    ______ ____
ROOT
ATOM      1  O   UNL     1      -2.246   0.301  25.952  0.00  0.00    -0.336 OA
ATOM      6  N   UNL     1      -1.548  -0.759  24.106  0.00  0.00    -0.190 NA
ATOM      7  N   UNL     1      -0.978   0.819  25.662  0.00  0.00    -0.056 NA
ATOM     15  C   UNL     1      -2.505  -0.622  24.988  0.00  0.00    +0.245 A 
ATOM     19  C   UNL     1      -0.632   0.145  24.561  0.00  0.00    +0.204 A 
ENDROOT
BRANCH  19  22
ATOM      8  N   UNL     1       2.539   1.766  23.489  0.00  0.00    -0.240 NA
ATOM     22  C   UNL     1       0.620   0.351  23.892  0.00  0.00    +0.041 A 
ATOM     24  C   UNL     1       1.136  -0.607  23.027  0.00  0.00    +0.016 A 
ATOM     25  C   UNL     1       1.353   1.510  24.087  0.00  0.00    +0.124 A 
ATOM     26  C   UNL     1       2.353  -0.380  22.392  0.00  0.00    +0.044 A 
ATOM     27  C   UNL     1       3.009   0.812  22.655  0.00  0.00    +0.119 A 
BRANCH  27   9
ATOM      9  N   UNL     1       4.247   1.028  22.002  0.00  0.00    -0.327 N 
ATOM     33  H   UNL     1       4.228   1.626  21.184  0.00  0.00    +0.148 HD
BRANCH   9  29
ATOM     29  C   UNL     1       5.468   0.442  22.451  0.00  0.00    +0.131 C 
BRANCH  29  30
ATOM     30  C   UNL     1       5.560   0.526  23.965  0.00  0.00    +0.178 C 
BRANCH  30   4
ATOM      4  O   UNL     1       5.729  -0.780  24.502  0.00  0.00    -0.381 OA
ATOM     31  C   UNL     1       4.818  -1.703  23.923  0.00  0.00    +0.194 C 
ENDBRANCH  30   4
ENDBRANCH  29  30
ENDBRANCH   9  29
ENDBRANCH  27   9
ENDBRANCH  19  22
BRANCH  15  10
ATOM      5  N   UNL     1      -4.833  -0.804  24.128  0.00  0.00    -0.287 NA
ATOM     10  C   UNL     1      -3.837  -1.336  25.079  0.00  0.00    +0.146 C 
ATOM     11  C   UNL     1      -3.732  -2.834  24.739  0.00  0.00    +0.030 C 
ATOM     12  C   UNL     1      -4.748  -3.061  23.627  0.00  0.00    +0.017 C 
ATOM     13  C   UNL     1      -5.725  -1.915  23.797  0.00  0.00    +0.085 C 
BRANCH   5  14
ATOM     14  C   UNL     1      -5.560   0.349  24.642  0.00  0.00    +0.124 C 
BRANCH  14  16
ATOM     16  C   UNL     1      -4.719   1.598  24.622  0.00  0.00    +0.008 A 
ATOM     17  C   UNL     1      -4.899   2.594  25.581  0.00  0.00    +0.125 A 
ATOM     18  C   UNL     1      -3.749   1.750  23.630  0.00  0.00    +0.012 A 
ATOM     20  C   UNL     1      -4.111   3.744  25.548  0.00  0.00    +0.091 A 
ATOM     21  C   UNL     1      -2.961   2.900  23.597  0.00  0.00    +0.046 A 
ATOM     23  C   UNL     1      -3.141   3.898  24.556  0.00  0.00    +0.124 A 
BRANCH  17   2
ATOM      2  O   UNL     1      -5.841   2.460  26.556  0.00  0.00    -0.506 OA
ATOM     32  H   UNL     1      -6.689   2.814  26.234  0.00  0.00    +0.292 HD
ENDBRANCH  17   2
BRANCH  23   3
ATOM      3  O   UNL     1      -2.372   5.019  24.524  0.00  0.00    -0.495 OA
ATOM     28  C   UNL     1      -1.055   4.920  25.067  0.00  0.00    +0.277 C 
ENDBRANCH  23   3
ENDBRANCH  14  16
ENDBRANCH   5  14
ENDBRANCH  15  10
TORSDOF 10
ENDMDL
MODEL 3
REMARK VINA RESULT:       0.1      0.905      1.281
REMARK  Name = 45783501
REMARK  12 active torsions:
REMARK  status: ('A' for Active; 'I' for Inactive)
REMARK    1  A    between atoms: O_2  and  C_17
REMARK    2  A    between atoms: O_3  and  C_23
REMARK    3  A    between atoms: O_3  and  C_28
REMARK    4  A    between atoms: O_4  and  C_30
REMARK    5  A    between atoms: O_4  and  C_31
REMARK    6  A    between atoms: N_5  and  C_14
REMARK    7  A    between atoms: N_9  and  C_27
REMARK    8  A    between atoms: N_9  and  C_29
REMARK    9  A    between atoms: C_10  and  C_15
REMARK   10  A    between atoms: C_14  and  C_16
REMARK   11  A    between atoms: C_19  and  C_22
REMARK   12  A    between atoms: C_29  and  C_30
REMARK                            x       y       z     vdW  Elec       q    Type
REMARK                         _______ _______ _______ _____ _____    ______ ____
ROOT
ATOM      1  O   UNL     1      -2.488   3.384  25.161  0.00  0.00    -0.336 OA
ATOM      6  N   UNL     1      -2.317   1.743  23.646  0.00  0.00    -0.190 NA
ATOM      7  N   UNL     1      -1.118   3.123  25.022  0.00  0.00    -0.056 NA
ATOM     15  C   UNL     1      -3.121   2.528  24.316  0.00  0.00    +0.245 A 
ATOM     19  C   UNL     1      -1.099   2.144  24.113  0.00  0.00    +0.204 A 
ENDROOT
BRANCH  19  22
ATOM      8  N   UNL     1       2.521   1.679  23.396  0.00  0.00    -0.240 NA
ATOM     22  C   UNL     1       0.120   1.546  23.650  0.00  0.00    +0.041 A 
ATOM     24  C   UNL     1       0.116   0.302  23.027  0.00  0.00    +0.016 A 
ATOM     25  C   UNL     1       1.337   2.187  23.809  0.00  0.00    +0.124 A 
ATOM     26  C   UNL     1       1.313  -0.253  22.588  0.00  0.00    +0.044 A 
ATOM     27  C   UNL     1       2.478   0.469  22.795  0.00  0.00    +0.119 A 
BRANCH  27   9
ATOM      9  N   UNL     1       3.688  -0.110  22.344  0.00  0.00    -0.327 N 
ATOM     33  H   UNL     1       3.610  -0.985  21.837  0.00  0.00    +0.148 HD
BRANCH   9  29
ATOM     29  C   UNL     1       4.964   0.484  22.582  0.00  0.00    +0.131 C 
BRANCH  29  30
ATOM     30  C   UNL     1       5.408   0.209  24.009  0.00  0.00    +0.178 C 
BRANCH  30   4
ATOM      4  O   UNL     1       5.790  -1.156  24.130  0.00  0.00    -0.381 OA
ATOM     31  C   UNL     1       4.669  -2.022  24.026  0.00  0.00    +0.194 C 
ENDBRANCH  30   4
ENDBRANCH  29  30
ENDBRANCH   9  29
ENDBRANCH  27   9
ENDBRANCH  19  22
BRANCH  15  10
ATOM      5  N   UNL     1      -5.280   1.568  25.098  0.00  0.00    -0.287 NA
ATOM     10  C   UNL     1      -4.632   2.613  24.279  0.00  0.00    +0.146 C 
ATOM     11  C   UNL     1      -5.168   3.941  24.845  0.00  0.00    +0.030 C 
ATOM     12  C   UNL     1      -6.152   3.541  25.935  0.00  0.00    +0.017 C 
ATOM     13  C   UNL     1      -6.551   2.129  25.555  0.00  0.00    +0.085 C 
BRANCH   5  14
ATOM     14  C   UNL     1      -5.459   0.309  24.387  0.00  0.00    +0.124 C 
BRANCH  14  16
ATOM     16  C   UNL     1      -4.285  -0.613  24.574  0.00  0.00    +0.008 A 
ATOM     17  C   UNL     1      -3.326  -0.357  25.554  0.00  0.00    +0.125 A 
ATOM     18  C   UNL     1      -4.163  -1.736  23.755  0.00  0.00    +0.012 A 
ATOM     20  C   UNL     1      -2.245  -1.223  25.715  0.00  0.00    +0.091 A 
ATOM     21  C   UNL     1      -3.081  -2.602  23.915  0.00  0.00    +0.046 A 
ATOM     23  C   UNL     1      -2.121  -2.346  24.896  0.00  0.00    +0.124 A 
BRANCH  17   2
ATOM      2  O   UNL     1      -3.431   0.735  26.362  0.00  0.00    -0.506 OA
ATOM     32  H   UNL     1      -2.726   1.368  26.140  0.00  0.00    +0.292 HD
ENDBRANCH  17   2
BRANCH  23   3
ATOM      3  O   UNL     1      -1.067  -3.191  25.053  0.00  0.00    -0.495 OA
ATOM     28  C   UNL     1       0.180  -2.610  25.434  0.00  0.00    +0.277 C 
ENDBRANCH  23   3
ENDBRANCH  14  16
ENDBRANCH   5  14
ENDBRANCH  15  10
TORSDOF 10
ENDMDL
MODEL 4
REMARK VINA RESULT:       1.9      1.950      4.065
REMARK  Name = 45783501
REMARK  12 active torsions:
REMARK  status: ('A' for Active; 'I' for Inactive)
REMARK    1  A    between atoms: O_2  and  C_17
REMARK    2  A    between atoms: O_3  and  C_23
REMARK    3  A    between atoms: O_3  and  C_28
REMARK    4  A    between atoms: O_4  and  C_30
REMARK    5  A    between atoms: O_4  and  C_31
REMARK    6  A    between atoms: N_5  and  C_14
REMARK    7  A    between atoms: N_9  and  C_27
REMARK    8  A    between atoms: N_9  and  C_29
REMARK    9  A    between atoms: C_10  and  C_15
REMARK   10  A    between atoms: C_14  and  C_16
REMARK   11  A    between atoms: C_19  and  C_22
REMARK   12  A    between atoms: C_29  and  C_30
REMARK                            x       y       z     vdW  Elec       q    Type
REMARK                         _______ _______ _______ _____ _____    ______ ____
ROOT
ATOM      1  O   UNL     1      -3.321  -0.914  25.689  0.00  0.00    -0.336 OA
ATOM      6  N   UNL     1      -2.764   0.956  24.589  0.00  0.00    -0.190 NA
ATOM      7  N   UNL     1      -1.968  -1.048  25.352  0.00  0.00    -0.056 NA
ATOM     15  C   UNL     1      -3.711   0.294  25.202  0.00  0.00    +0.245 A 
ATOM     19  C   UNL     1      -1.714   0.093  24.706  0.00  0.00    +0.204 A 
ENDROOT
BRANCH  19  22
ATOM      8  N   UNL     1       1.452  -0.256  22.785  0.00  0.00    -0.240 NA
ATOM     22  C   UNL     1      -0.421   0.402  24.166  0.00  0.00    +0.041 A 
ATOM     24  C   UNL     1       0.213   1.602  24.467  0.00  0.00    +0.016 A 
ATOM     25  C   UNL     1       0.235  -0.485  23.328  0.00  0.00    +0.124 A 
ATOM     26  C   UNL     1       1.467   1.874  23.928  0.00  0.00    +0.044 A 
ATOM     27  C   UNL     1       2.038   0.920  23.101  0.00  0.00    +0.119 A 
BRANCH  27   9
ATOM      9  N   UNL     1       3.313   1.213  22.559  0.00  0.00    -0.327 N 
ATOM     33  H   UNL     1       3.424   2.125  22.130  0.00  0.00    +0.148 HD
BRANCH   9  29
ATOM     29  C   UNL     1       4.399   0.288  22.599  0.00  0.00    +0.131 C 
BRANCH  29  30
ATOM     30  C   UNL     1       5.224   0.508  23.855  0.00  0.00    +0.178 C 
BRANCH  30   4
ATOM      4  O   UNL     1       5.588  -0.750  24.409  0.00  0.00    -0.381 OA
ATOM     31  C   UNL     1       4.671  -1.769  24.036  0.00  0.00    +0.194 C 
ENDBRANCH  30   4
ENDBRANCH  29  30
ENDBRANCH   9  29
ENDBRANCH  27   9
ENDBRANCH  19  22
BRANCH  15  10
ATOM      5  N   UNL     1      -5.484   2.012  24.891  0.00  0.00    -0.287 NA
ATOM     10  C   UNL     1      -5.156   0.681  25.439  0.00  0.00    +0.146 C 
ATOM     11  C   UNL     1      -6.149  -0.278  24.759  0.00  0.00    +0.030 C 
ATOM     12  C   UNL     1      -7.031   0.611  23.893  0.00  0.00    +0.017 C 
ATOM     13  C   UNL     1      -6.903   1.976  24.539  0.00  0.00    +0.085 C 
BRANCH   5  14
ATOM     14  C   UNL     1      -5.173   3.103  25.805  0.00  0.00    +0.124 C 
BRANCH  14  16
ATOM     16  C   UNL     1      -3.848   3.742  25.486  0.00  0.00    +0.008 A 
ATOM     17  C   UNL     1      -3.443   3.922  24.164  0.00  0.00    +0.125 A 
ATOM     18  C   UNL     1      -3.022   4.158  26.531  0.00  0.00    +0.012 A 
ATOM     20  C   UNL     1      -2.212   4.516  23.886  0.00  0.00    +0.091 A 
ATOM     21  C   UNL     1      -1.791   4.752  26.254  0.00  0.00    +0.046 A 
ATOM     23  C   UNL     1      -1.386   4.931  24.930  0.00  0.00    +0.124 A 
BRANCH  17   2
ATOM      2  O   UNL     1      -4.238   3.522  23.132  0.00  0.00    -0.506 OA
ATOM     32  H   UNL     1      -5.171   3.612  23.392  0.00  0.00    +0.292 HD
ENDBRANCH  17   2
BRANCH  23   3
ATOM      3  O   UNL     1      -0.185   5.512  24.660  0.00  0.00    -0.495 OA
ATOM     28  C   UNL     1       0.409   5.215  23.396  0.00  0.00    +0.277 C 
ENDBRANCH  23   3
ENDBRANCH  14  16
ENDBRANCH   5  14
ENDBRANCH  15  10
TORSDOF 10
ENDMDL
