MODEL 1
REMARK VINA RESULT:       1.7      0.000      0.000
REMARK  Name = 45784117
REMARK  13 active torsions:
REMARK  status: ('A' for Active; 'I' for Inactive)
REMARK    1  A    between atoms: N_3  and  C_17
REMARK    2  A    between atoms: N_3  and  C_23
REMARK    3  A    between atoms: N_7  and  C_32
REMARK    4  A    between atoms: N_8  and  C_29
REMARK    5  A    between atoms: C_10  and  C_14
REMARK    6  A    between atoms: C_11  and  C_17
REMARK    7  A    between atoms: C_13  and  C_18
REMARK    8  A    between atoms: C_14  and  C_19
REMARK    9  A    between atoms: C_14  and  C_20
REMARK   10  A    between atoms: C_15  and  C_21
REMARK   11  A    between atoms: C_18  and  C_22
REMARK   12  A    between atoms: C_24  and  C_27
REMARK   13  A    between atoms: C_33  and  C_34
REMARK                            x       y       z     vdW  Elec       q    Type
REMARK                         _______ _______ _______ _____ _____    ______ ____
ROOT
ATOM     10  C   UNL     1      -2.004   4.145  24.810  0.00  0.00    +0.000 C 
ATOM     11  C   UNL     1      -2.060   3.348  26.136  0.00  0.00    +0.032 C 
ATOM     12  C   UNL     1      -3.267   5.006  24.649  0.00  0.00    +0.012 C 
ATOM     13  C   UNL     1      -4.553   4.160  24.657  0.00  0.00    +0.024 C 
ATOM     15  C   UNL     1      -4.560   3.155  25.790  0.00  0.00    -0.073 C 
ATOM     16  C   UNL     1      -3.438   2.814  26.448  0.00  0.00    -0.022 C 
ATOM     21  C   UNL     1      -5.894   2.583  26.181  0.00  0.00    +0.039 C 
ENDROOT
BRANCH  10  14
ATOM     14  C   UNL     1      -0.757   5.032  24.730  0.00  0.00    -0.013 C 
ATOM     19  C   UNL     1      -1.126   6.490  24.982  0.00  0.00    +0.007 C 
ATOM     20  C   UNL     1      -0.076   4.873  23.375  0.00  0.00    +0.007 C 
ENDBRANCH  10  14
BRANCH  11  17
ATOM     17  C   UNL     1      -1.054   2.190  26.128  0.00  0.00    +0.109 C 
BRANCH  17   3
ATOM      3  N   UNL     1      -0.907   1.691  24.789  0.00  0.00    -0.342 N 
ATOM     35  H   UNL     1      -1.720   1.621  24.187  0.00  0.00    +0.146 HD
BRANCH   3  23
ATOM      6  N   UNL     1       2.539   1.739  23.508  0.00  0.00    -0.238 NA
ATOM     23  C   UNL     1       0.295   1.240  24.256  0.00  0.00    +0.046 A 
ATOM     25  C   UNL     1       0.479  -0.101  23.940  0.00  0.00    +0.028 A 
ATOM     26  C   UNL     1       1.347   2.112  24.024  0.00  0.00    +0.135 A 
ATOM     28  C   UNL     1       1.693  -0.523  23.407  0.00  0.00    +0.045 A 
ATOM     29  C   UNL     1       2.682   0.427  23.212  0.00  0.00    +0.125 A 
BRANCH  29   8
ATOM      2  O   UNL     1       5.458   0.479  24.378  0.00  0.00    -0.276 OA
ATOM      8  N   UNL     1       3.900  -0.008  22.677  0.00  0.00    -0.271 N 
ATOM     33  C   UNL     1       5.166   0.042  23.268  0.00  0.00    +0.215 C 
ATOM     34  C   UNL     1       6.225  -0.534  22.362  0.00  0.00    +0.109 C 
ATOM     36  H   UNL     1       3.849  -0.408  21.743  0.00  0.00    +0.156 HD
ENDBRANCH  29   8
ENDBRANCH   3  23
ENDBRANCH  17   3
ENDBRANCH  11  17
BRANCH  13  18
ATOM     18  C   UNL     1      -4.766   3.466  23.307  0.00  0.00    +0.105 C 
BRANCH  18  22
ATOM      1  O   UNL     1      -4.483   1.111  23.881  0.00  0.00    -0.419 OA
ATOM      4  N   UNL     1      -2.860   1.939  22.581  0.00  0.00    -0.112 NA
ATOM      5  N   UNL     1      -2.576   0.608  22.826  0.00  0.00    -0.106 NA
ATOM     22  C   UNL     1      -3.983   2.188  23.215  0.00  0.00    +0.218 A 
ATOM     24  C   UNL     1      -3.548   0.166  23.588  0.00  0.00    +0.266 A 
BRANCH  24  27
ATOM      7  N   UNL     1      -3.037  -1.617  25.213  0.00  0.00    -0.329 N 
ATOM      9  N   UNL     1      -4.060  -3.375  24.320  0.00  0.00    -0.243 NA
ATOM     27  C   UNL     1      -3.620  -1.166  24.062  0.00  0.00    +0.125 A 
ATOM     30  C   UNL     1      -4.245  -2.268  23.528  0.00  0.00    +0.143 A 
ATOM     31  C   UNL     1      -3.329  -2.948  25.325  0.00  0.00    +0.199 A 
ATOM     32  C   UNL     1      -2.255  -0.852  26.155  0.00  0.00    +0.150 C 
ENDBRANCH  24  27
ENDBRANCH  18  22
ENDBRANCH  13  18
TORSDOF 8
ENDMDL
MODEL 2
REMARK VINA RESULT:       1.9      2.128      5.835
REMARK  Name = 45784117
REMARK  13 active torsions:
REMARK  status: ('A' for Active; 'I' for Inactive)
REMARK    1  A    between atoms: N_3  and  C_17
REMARK    2  A    between atoms: N_3  and  C_23
REMARK    3  A    between atoms: N_7  and  C_32
REMARK    4  A    between atoms: N_8  and  C_29
REMARK    5  A    between atoms: C_10  and  C_14
REMARK    6  A    between atoms: C_11  and  C_17
REMARK    7  A    between atoms: C_13  and  C_18
REMARK    8  A    between atoms: C_14  and  C_19
REMARK    9  A    between atoms: C_14  and  C_20
REMARK   10  A    between atoms: C_15  and  C_21
REMARK   11  A    between atoms: C_18  and  C_22
REMARK   12  A    between atoms: C_24  and  C_27
REMARK   13  A    between atoms: C_33  and  C_34
REMARK                            x       y       z     vdW  Elec       q    Type
REMARK                         _______ _______ _______ _____ _____    ______ ____
ROOT
ATOM     10  C   UNL     1      -2.496   3.267  25.042  0.00  0.00    +0.000 C 
ATOM     11  C   UNL     1      -3.795   3.468  24.223  0.00  0.00    +0.032 C 
ATOM     12  C   UNL     1      -1.268   3.322  24.121  0.00  0.00    +0.012 C 
ATOM     13  C   UNL     1      -1.319   2.250  23.016  0.00  0.00    +0.024 C 
ATOM     15  C   UNL     1      -2.672   2.206  22.337  0.00  0.00    -0.073 C 
ATOM     16  C   UNL     1      -3.765   2.767  22.885  0.00  0.00    -0.022 C 
ATOM     21  C   UNL     1      -2.733   1.540  20.990  0.00  0.00    +0.039 C 
ENDROOT
BRANCH  10  14
ATOM     14  C   UNL     1      -2.357   4.311  26.155  0.00  0.00    -0.013 C 
ATOM     19  C   UNL     1      -3.618   4.344  27.012  0.00  0.00    +0.007 C 
ATOM     20  C   UNL     1      -2.069   5.686  25.562  0.00  0.00    +0.007 C 
ENDBRANCH  10  14
BRANCH  11  17
ATOM     17  C   UNL     1      -5.025   3.007  25.014  0.00  0.00    +0.109 C 
BRANCH  17   3
ATOM      3  N   UNL     1      -5.372   1.668  24.623  0.00  0.00    -0.342 N 
ATOM     35  H   UNL     1      -6.307   1.471  24.283  0.00  0.00    +0.146 HD
BRANCH   3  23
ATOM      6  N   UNL     1      -2.700  -0.515  25.892  0.00  0.00    -0.238 NA
ATOM     23  C   UNL     1      -4.511   0.582  24.725  0.00  0.00    +0.046 A 
ATOM     25  C   UNL     1      -4.571  -0.467  23.815  0.00  0.00    +0.028 A 
ATOM     26  C   UNL     1      -3.567   0.510  25.737  0.00  0.00    +0.135 A 
ATOM     28  C   UNL     1      -3.695  -1.540  23.942  0.00  0.00    +0.045 A 
ATOM     29  C   UNL     1      -2.787  -1.517  24.988  0.00  0.00    +0.125 A 
BRANCH  29   8
ATOM      2  O   UNL     1       0.177  -1.589  25.517  0.00  0.00    -0.276 OA
ATOM      8  N   UNL     1      -1.912  -2.602  25.108  0.00  0.00    -0.271 N 
ATOM     33  C   UNL     1      -0.536  -2.576  25.356  0.00  0.00    +0.215 C 
ATOM     34  C   UNL     1       0.045  -3.966  25.418  0.00  0.00    +0.109 C 
ATOM     36  H   UNL     1      -2.338  -3.521  25.001  0.00  0.00    +0.156 HD
ENDBRANCH  29   8
ENDBRANCH   3  23
ENDBRANCH  17   3
ENDBRANCH  11  17
BRANCH  13  18
ATOM     18  C   UNL     1      -0.936   0.872  23.566  0.00  0.00    +0.105 C 
BRANCH  18  22
ATOM      1  O   UNL     1       1.495   0.686  23.678  0.00  0.00    -0.419 OA
ATOM      4  N   UNL     1       0.583  -0.290  21.883  0.00  0.00    -0.112 NA
ATOM      5  N   UNL     1       1.952  -0.470  21.819  0.00  0.00    -0.106 NA
ATOM     22  C   UNL     1       0.362   0.389  22.985  0.00  0.00    +0.218 A 
ATOM     24  C   UNL     1       2.443   0.116  22.886  0.00  0.00    +0.266 A 
BRANCH  24  27
ATOM      7  N   UNL     1       4.542  -0.893  23.698  0.00  0.00    -0.329 N 
ATOM      9  N   UNL     1       5.987   0.777  23.463  0.00  0.00    -0.243 NA
ATOM     27  C   UNL     1       3.826   0.153  23.185  0.00  0.00    +0.125 A 
ATOM     30  C   UNL     1       4.740   1.171  23.049  0.00  0.00    +0.143 A 
ATOM     31  C   UNL     1       5.834  -0.470  23.848  0.00  0.00    +0.199 A 
ATOM     32  C   UNL     1       4.051  -2.210  24.028  0.00  0.00    +0.150 C 
ENDBRANCH  24  27
ENDBRANCH  18  22
ENDBRANCH  13  18
TORSDOF 8
ENDMDL
MODEL 3
REMARK VINA RESULT:       1.9      2.339      4.994
REMARK  Name = 45784117
REMARK  13 active torsions:
REMARK  status: ('A' for Active; 'I' for Inactive)
REMARK    1  A    between atoms: N_3  and  C_17
REMARK    2  A    between atoms: N_3  and  C_23
REMARK    3  A    between atoms: N_7  and  C_32
REMARK    4  A    between atoms: N_8  and  C_29
REMARK    5  A    between atoms: C_10  and  C_14
REMARK    6  A    between atoms: C_11  and  C_17
REMARK    7  A    between atoms: C_13  and  C_18
REMARK    8  A    between atoms: C_14  and  C_19
REMARK    9  A    between atoms: C_14  and  C_20
REMARK   10  A    between atoms: C_15  and  C_21
REMARK   11  A    between atoms: C_18  and  C_22
REMARK   12  A    between atoms: C_24  and  C_27
REMARK   13  A    between atoms: C_33  and  C_34
REMARK                            x       y       z     vdW  Elec       q    Type
REMARK                         _______ _______ _______ _____ _____    ______ ____
ROOT
ATOM     10  C   UNL     1      -3.225   2.202  23.354  0.00  0.00    +0.000 C 
ATOM     11  C   UNL     1      -4.277   3.258  23.775  0.00  0.00    +0.032 C 
ATOM     12  C   UNL     1      -3.837   0.793  23.388  0.00  0.00    +0.012 C 
ATOM     13  C   UNL     1      -4.370   0.423  24.784  0.00  0.00    +0.024 C 
ATOM     15  C   UNL     1      -5.203   1.537  25.382  0.00  0.00    -0.073 C 
ATOM     16  C   UNL     1      -5.159   2.795  24.910  0.00  0.00    -0.022 C 
ATOM     21  C   UNL     1      -6.126   1.162  26.509  0.00  0.00    +0.039 C 
ENDROOT
BRANCH  10  14
ATOM     14  C   UNL     1      -2.656   2.488  21.961  0.00  0.00    -0.013 C 
ATOM     19  C   UNL     1      -3.689   3.214  21.104  0.00  0.00    +0.007 C 
ATOM     20  C   UNL     1      -2.212   1.192  21.291  0.00  0.00    +0.007 C 
ENDBRANCH  10  14
BRANCH  11  17
ATOM     17  C   UNL     1      -3.608   4.584  24.156  0.00  0.00    +0.109 C 
BRANCH  17   3
ATOM      3  N   UNL     1      -2.181   4.414  24.176  0.00  0.00    -0.342 N 
ATOM     35  H   UNL     1      -1.633   4.675  23.364  0.00  0.00    +0.146 HD
BRANCH   3  23
ATOM      6  N   UNL     1       0.587   2.945  26.099  0.00  0.00    -0.238 NA
ATOM     23  C   UNL     1      -1.481   3.856  25.239  0.00  0.00    +0.046 A 
ATOM     25  C   UNL     1      -2.094   3.646  26.469  0.00  0.00    +0.028 A 
ATOM     26  C   UNL     1      -0.151   3.492  25.107  0.00  0.00    +0.135 A 
ATOM     28  C   UNL     1      -1.368   3.085  27.514  0.00  0.00    +0.045 A 
ATOM     29  C   UNL     1      -0.043   2.755  27.280  0.00  0.00    +0.125 A 
BRANCH  29   8
ATOM      2  O   UNL     1       2.605   3.546  28.477  0.00  0.00    -0.276 OA
ATOM      8  N   UNL     1       0.679   2.193  28.339  0.00  0.00    -0.271 N 
ATOM     33  C   UNL     1       1.912   2.605  28.855  0.00  0.00    +0.215 C 
ATOM     34  C   UNL     1       2.353   1.734  30.004  0.00  0.00    +0.109 C 
ATOM     36  H   UNL     1       0.247   1.385  28.783  0.00  0.00    +0.156 HD
ENDBRANCH  29   8
ENDBRANCH   3  23
ENDBRANCH  17   3
ENDBRANCH  11  17
BRANCH  13  18
ATOM     18  C   UNL     1      -3.226   0.027  25.725  0.00  0.00    +0.105 C 
BRANCH  18  22
ATOM      1  O   UNL     1      -1.070   0.382  24.637  0.00  0.00    -0.419 OA
ATOM      4  N   UNL     1      -1.805  -1.730  24.548  0.00  0.00    -0.112 NA
ATOM      5  N   UNL     1      -0.586  -1.674  23.899  0.00  0.00    -0.106 NA
ATOM     22  C   UNL     1      -2.048  -0.508  24.963  0.00  0.00    +0.218 A 
ATOM     24  C   UNL     1      -0.195  -0.424  23.976  0.00  0.00    +0.266 A 
BRANCH  24  27
ATOM      7  N   UNL     1       1.472  -0.248  22.166  0.00  0.00    -0.329 N 
ATOM      9  N   UNL     1       3.018   1.061  23.076  0.00  0.00    -0.243 NA
ATOM     27  C   UNL     1       1.022   0.045  23.423  0.00  0.00    +0.125 A 
ATOM     30  C   UNL     1       1.993   0.854  23.965  0.00  0.00    +0.143 A 
ATOM     31  C   UNL     1       2.673   0.385  22.004  0.00  0.00    +0.199 A 
ATOM     32  C   UNL     1       0.819  -1.068  21.172  0.00  0.00    +0.150 C 
ENDBRANCH  24  27
ENDBRANCH  18  22
ENDBRANCH  13  18
TORSDOF 8
ENDMDL
MODEL 4
REMARK VINA RESULT:       2.0      1.476      2.434
REMARK  Name = 45784117
REMARK  13 active torsions:
REMARK  status: ('A' for Active; 'I' for Inactive)
REMARK    1  A    between atoms: N_3  and  C_17
REMARK    2  A    between atoms: N_3  and  C_23
REMARK    3  A    between atoms: N_7  and  C_32
REMARK    4  A    between atoms: N_8  and  C_29
REMARK    5  A    between atoms: C_10  and  C_14
REMARK    6  A    between atoms: C_11  and  C_17
REMARK    7  A    between atoms: C_13  and  C_18
REMARK    8  A    between atoms: C_14  and  C_19
REMARK    9  A    between atoms: C_14  and  C_20
REMARK   10  A    between atoms: C_15  and  C_21
REMARK   11  A    between atoms: C_18  and  C_22
REMARK   12  A    between atoms: C_24  and  C_27
REMARK   13  A    between atoms: C_33  and  C_34
REMARK                            x       y       z     vdW  Elec       q    Type
REMARK                         _______ _______ _______ _____ _____    ______ ____
ROOT
ATOM     10  C   UNL     1      -3.033   2.648  23.818  0.00  0.00    +0.000 C 
ATOM     11  C   UNL     1      -1.788   3.132  24.602  0.00  0.00    +0.032 C 
ATOM     12  C   UNL     1      -4.161   3.687  23.910  0.00  0.00    +0.012 C 
ATOM     13  C   UNL     1      -4.579   3.967  25.365  0.00  0.00    +0.024 C 
ATOM     15  C   UNL     1      -3.379   4.190  26.262  0.00  0.00    -0.073 C 
ATOM     16  C   UNL     1      -2.138   3.823  25.899  0.00  0.00    -0.022 C 
ATOM     21  C   UNL     1      -3.631   4.888  27.570  0.00  0.00    +0.039 C 
ENDROOT
BRANCH  10  14
ATOM     14  C   UNL     1      -2.707   2.365  22.348  0.00  0.00    -0.013 C 
ATOM     19  C   UNL     1      -3.618   3.178  21.435  0.00  0.00    +0.007 C 
ATOM     20  C   UNL     1      -2.834   0.874  22.052  0.00  0.00    +0.007 C 
ENDBRANCH  10  14
BRANCH  11  17
ATOM     17  C   UNL     1      -0.827   1.971  24.884  0.00  0.00    +0.109 C 
BRANCH  17   3
ATOM      3  N   UNL     1      -0.395   1.393  23.641  0.00  0.00    -0.342 N 
ATOM     35  H   UNL     1      -1.078   1.183  22.921  0.00  0.00    +0.146 HD
BRANCH   3  23
ATOM      6  N   UNL     1       3.247   1.697  23.242  0.00  0.00    -0.238 NA
ATOM     23  C   UNL     1       0.922   1.046  23.363  0.00  0.00    +0.046 A 
ATOM     25  C   UNL     1       1.251  -0.237  22.941  0.00  0.00    +0.028 A 
ATOM     26  C   UNL     1       1.948   1.968  23.497  0.00  0.00    +0.135 A 
ATOM     28  C   UNL     1       2.577  -0.554  22.669  0.00  0.00    +0.045 A 
ATOM     29  C   UNL     1       3.529   0.439  22.833  0.00  0.00    +0.125 A 
BRANCH  29   8
ATOM      2  O   UNL     1       5.690  -0.632  24.637  0.00  0.00    -0.276 OA
ATOM      8  N   UNL     1       4.861   0.109  22.559  0.00  0.00    -0.271 N 
ATOM     33  C   UNL     1       5.825  -0.387  23.442  0.00  0.00    +0.215 C 
ATOM     34  C   UNL     1       7.145  -0.618  22.751  0.00  0.00    +0.109 C 
ATOM     36  H   UNL     1       5.157   0.251  21.595  0.00  0.00    +0.156 HD
ENDBRANCH  29   8
ENDBRANCH   3  23
ENDBRANCH  17   3
ENDBRANCH  11  17
BRANCH  13  18
ATOM     18  C   UNL     1      -5.470   2.845  25.910  0.00  0.00    +0.105 C 
BRANCH  18  22
ATOM      1  O   UNL     1      -3.885   1.000  25.709  0.00  0.00    -0.419 OA
ATOM      4  N   UNL     1      -5.750   0.742  24.499  0.00  0.00    -0.112 NA
ATOM      5  N   UNL     1      -4.950  -0.366  24.293  0.00  0.00    -0.106 NA
ATOM     22  C   UNL     1      -5.090   1.512  25.333  0.00  0.00    +0.218 A 
ATOM     24  C   UNL     1      -3.873  -0.172  25.017  0.00  0.00    +0.266 A 
BRANCH  24  27
ATOM      7  N   UNL     1      -2.806  -2.336  24.507  0.00  0.00    -0.329 N 
ATOM      9  N   UNL     1      -0.823  -2.126  25.485  0.00  0.00    -0.243 NA
ATOM     27  C   UNL     1      -2.799  -1.094  25.075  0.00  0.00    +0.125 A 
ATOM     30  C   UNL     1      -1.566  -0.987  25.673  0.00  0.00    +0.143 A 
ATOM     31  C   UNL     1      -1.598  -2.918  24.779  0.00  0.00    +0.199 A 
ATOM     32  C   UNL     1      -3.874  -2.947  23.750  0.00  0.00    +0.150 C 
ENDBRANCH  24  27
ENDBRANCH  18  22
ENDBRANCH  13  18
TORSDOF 8
ENDMDL
MODEL 5
REMARK VINA RESULT:       2.2      1.667      4.625
REMARK  Name = 45784117
REMARK  13 active torsions:
REMARK  status: ('A' for Active; 'I' for Inactive)
REMARK    1  A    between atoms: N_3  and  C_17
REMARK    2  A    between atoms: N_3  and  C_23
REMARK    3  A    between atoms: N_7  and  C_32
REMARK    4  A    between atoms: N_8  and  C_29
REMARK    5  A    between atoms: C_10  and  C_14
REMARK    6  A    between atoms: C_11  and  C_17
REMARK    7  A    between atoms: C_13  and  C_18
REMARK    8  A    between atoms: C_14  and  C_19
REMARK    9  A    between atoms: C_14  and  C_20
REMARK   10  A    between atoms: C_15  and  C_21
REMARK   11  A    between atoms: C_18  and  C_22
REMARK   12  A    between atoms: C_24  and  C_27
REMARK   13  A    between atoms: C_33  and  C_34
REMARK                            x       y       z     vdW  Elec       q    Type
REMARK                         _______ _______ _______ _____ _____    ______ ____
ROOT
ATOM     10  C   UNL     1      -4.157  -0.465  24.747  0.00  0.00    +0.000 C 
ATOM     11  C   UNL     1      -3.088   0.044  23.749  0.00  0.00    +0.032 C 
ATOM     12  C   UNL     1      -5.557  -0.005  24.313  0.00  0.00    +0.012 C 
ATOM     13  C   UNL     1      -5.664   1.529  24.223  0.00  0.00    +0.024 C 
ATOM     15  C   UNL     1      -4.493   2.132  23.476  0.00  0.00    -0.073 C 
ATOM     16  C   UNL     1      -3.355   1.449  23.262  0.00  0.00    -0.022 C 
ATOM     21  C   UNL     1      -4.676   3.525  22.940  0.00  0.00    +0.039 C 
ENDROOT
BRANCH  10  14
ATOM     14  C   UNL     1      -4.131  -1.991  24.881  0.00  0.00    -0.013 C 
ATOM     19  C   UNL     1      -2.950  -2.429  25.741  0.00  0.00    +0.007 C 
ATOM     20  C   UNL     1      -4.070  -2.645  23.504  0.00  0.00    +0.007 C 
ENDBRANCH  10  14
BRANCH  11  17
ATOM     17  C   UNL     1      -1.683  -0.028  24.359  0.00  0.00    +0.109 C 
BRANCH  17   3
ATOM      3  N   UNL     1      -0.835   0.945  23.727  0.00  0.00    -0.342 N 
ATOM     35  H   UNL     1      -1.227   1.830  23.423  0.00  0.00    +0.146 HD
BRANCH   3  23
ATOM      6  N   UNL     1       2.751   1.635  23.307  0.00  0.00    -0.238 NA
ATOM     23  C   UNL     1       0.511   0.738  23.449  0.00  0.00    +0.046 A 
ATOM     25  C   UNL     1       0.976  -0.509  23.049  0.00  0.00    +0.028 A 
ATOM     26  C   UNL     1       1.431   1.768  23.562  0.00  0.00    +0.135 A 
ATOM     28  C   UNL     1       2.328  -0.685  22.777  0.00  0.00    +0.045 A 
ATOM     29  C   UNL     1       3.167   0.408  22.920  0.00  0.00    +0.125 A 
BRANCH  29   8
ATOM      2  O   UNL     1       5.393  -0.610  24.674  0.00  0.00    -0.276 OA
ATOM      8  N   UNL     1       4.527   0.220  22.645  0.00  0.00    -0.271 N 
ATOM     33  C   UNL     1       5.520  -0.258  23.505  0.00  0.00    +0.215 C 
ATOM     34  C   UNL     1       6.864  -0.317  22.823  0.00  0.00    +0.109 C 
ATOM     36  H   UNL     1       4.820   0.464  21.701  0.00  0.00    +0.156 HD
ENDBRANCH  29   8
ENDBRANCH   3  23
ENDBRANCH  17   3
ENDBRANCH  11  17
BRANCH  13  18
ATOM     18  C   UNL     1      -5.810   2.155  25.614  0.00  0.00    +0.105 C 
BRANCH  18  22
ATOM      1  O   UNL     1      -3.393   2.369  25.868  0.00  0.00    -0.419 OA
ATOM      4  N   UNL     1      -4.537   4.218  26.396  0.00  0.00    -0.112 NA
ATOM      5  N   UNL     1      -3.193   4.479  26.584  0.00  0.00    -0.106 NA
ATOM     22  C   UNL     1      -4.606   2.976  25.977  0.00  0.00    +0.218 A 
ATOM     24  C   UNL     1      -2.563   3.373  26.265  0.00  0.00    +0.266 A 
BRANCH  24  27
ATOM      7  N   UNL     1      -0.267   3.950  25.575  0.00  0.00    -0.329 N 
ATOM      9  N   UNL     1       0.959   2.598  26.841  0.00  0.00    -0.243 NA
ATOM     27  C   UNL     1      -1.155   3.234  26.327  0.00  0.00    +0.125 A 
ATOM     30  C   UNL     1      -0.375   2.407  27.100  0.00  0.00    +0.143 A 
ATOM     31  C   UNL     1       0.989   3.534  25.918  0.00  0.00    +0.199 A 
ATOM     32  C   UNL     1      -0.570   4.966  24.593  0.00  0.00    +0.150 C 
ENDBRANCH  24  27
ENDBRANCH  18  22
ENDBRANCH  13  18
TORSDOF 8
ENDMDL
MODEL 6
REMARK VINA RESULT:       2.6      1.442      3.300
REMARK  Name = 45784117
REMARK  13 active torsions:
REMARK  status: ('A' for Active; 'I' for Inactive)
REMARK    1  A    between atoms: N_3  and  C_17
REMARK    2  A    between atoms: N_3  and  C_23
REMARK    3  A    between atoms: N_7  and  C_32
REMARK    4  A    between atoms: N_8  and  C_29
REMARK    5  A    between atoms: C_10  and  C_14
REMARK    6  A    between atoms: C_11  and  C_17
REMARK    7  A    between atoms: C_13  and  C_18
REMARK    8  A    between atoms: C_14  and  C_19
REMARK    9  A    between atoms: C_14  and  C_20
REMARK   10  A    between atoms: C_15  and  C_21
REMARK   11  A    between atoms: C_18  and  C_22
REMARK   12  A    between atoms: C_24  and  C_27
REMARK   13  A    between atoms: C_33  and  C_34
REMARK                            x       y       z     vdW  Elec       q    Type
REMARK                         _______ _______ _______ _____ _____    ______ ____
ROOT
ATOM     10  C   UNL     1      -4.203   2.544  24.937  0.00  0.00    +0.000 C 
ATOM     11  C   UNL     1      -3.557   2.883  23.571  0.00  0.00    +0.032 C 
ATOM     12  C   UNL     1      -4.263   3.795  25.827  0.00  0.00    +0.012 C 
ATOM     13  C   UNL     1      -2.868   4.395  26.082  0.00  0.00    +0.024 C 
ATOM     15  C   UNL     1      -2.063   4.512  24.805  0.00  0.00    -0.073 C 
ATOM     16  C   UNL     1      -2.394   3.839  23.688  0.00  0.00    -0.022 C 
ATOM     21  C   UNL     1      -0.893   5.456  24.824  0.00  0.00    +0.039 C 
ENDROOT
BRANCH  10  14
ATOM     14  C   UNL     1      -5.609   1.957  24.773  0.00  0.00    -0.013 C 
ATOM     19  C   UNL     1      -6.513   2.415  25.912  0.00  0.00    +0.007 C 
ATOM     20  C   UNL     1      -5.546   0.434  24.710  0.00  0.00    +0.007 C 
ENDBRANCH  10  14
BRANCH  11  17
ATOM     17  C   UNL     1      -3.103   1.612  22.843  0.00  0.00    +0.109 C 
BRANCH  17   3
ATOM      3  N   UNL     1      -1.882   1.876  22.134  0.00  0.00    -0.342 N 
ATOM     35  H   UNL     1      -1.893   2.483  21.322  0.00  0.00    +0.146 HD
BRANCH   3  23
ATOM      6  N   UNL     1       1.492   1.509  23.548  0.00  0.00    -0.238 NA
ATOM     23  C   UNL     1      -0.657   1.305  22.460  0.00  0.00    +0.046 A 
ATOM     25  C   UNL     1      -0.338   0.014  22.053  0.00  0.00    +0.028 A 
ATOM     26  C   UNL     1       0.284   2.004  23.199  0.00  0.00    +0.135 A 
ATOM     28  C   UNL     1       0.896  -0.530  22.393  0.00  0.00    +0.045 A 
ATOM     29  C   UNL     1       1.768   0.251  23.135  0.00  0.00    +0.125 A 
BRANCH  29   8
ATOM      2  O   UNL     1       4.562   1.295  22.714  0.00  0.00    -0.276 OA
ATOM      8  N   UNL     1       3.007  -0.306  23.473  0.00  0.00    -0.271 N 
ATOM     33  C   UNL     1       4.280   0.227  23.252  0.00  0.00    +0.215 C 
ATOM     34  C   UNL     1       5.363  -0.684  23.772  0.00  0.00    +0.109 C 
ATOM     36  H   UNL     1       2.966  -1.211  23.938  0.00  0.00    +0.156 HD
ENDBRANCH  29   8
ENDBRANCH   3  23
ENDBRANCH  17   3
ENDBRANCH  11  17
BRANCH  13  18
ATOM     18  C   UNL     1      -2.105   3.590  27.140  0.00  0.00    +0.105 C 
BRANCH  18  22
ATOM      1  O   UNL     1      -2.437   1.370  26.183  0.00  0.00    -0.419 OA
ATOM      4  N   UNL     1      -0.291   1.973  26.373  0.00  0.00    -0.112 NA
ATOM      5  N   UNL     1      -0.332   0.706  25.822  0.00  0.00    -0.106 NA
ATOM     22  C   UNL     1      -1.542   2.321  26.566  0.00  0.00    +0.218 A 
ATOM     24  C   UNL     1      -1.603   0.395  25.730  0.00  0.00    +0.266 A 
BRANCH  24  27
ATOM      7  N   UNL     1      -1.293  -1.955  25.047  0.00  0.00    -0.329 N 
ATOM      9  N   UNL     1      -3.324  -2.510  24.339  0.00  0.00    -0.243 NA
ATOM     27  C   UNL     1      -2.065  -0.839  25.209  0.00  0.00    +0.125 A 
ATOM     30  C   UNL     1      -3.313  -1.206  24.766  0.00  0.00    +0.143 A 
ATOM     31  C   UNL     1      -2.092  -2.932  24.521  0.00  0.00    +0.199 A 
ATOM     32  C   UNL     1       0.108  -2.103  25.364  0.00  0.00    +0.150 C 
ENDBRANCH  24  27
ENDBRANCH  18  22
ENDBRANCH  13  18
TORSDOF 8
ENDMDL
MODEL 7
REMARK VINA RESULT:       3.0      2.518      5.744
REMARK  Name = 45784117
REMARK  13 active torsions:
REMARK  status: ('A' for Active; 'I' for Inactive)
REMARK    1  A    between atoms: N_3  and  C_17
REMARK    2  A    between atoms: N_3  and  C_23
REMARK    3  A    between atoms: N_7  and  C_32
REMARK    4  A    between atoms: N_8  and  C_29
REMARK    5  A    between atoms: C_10  and  C_14
REMARK    6  A    between atoms: C_11  and  C_17
REMARK    7  A    between atoms: C_13  and  C_18
REMARK    8  A    between atoms: C_14  and  C_19
REMARK    9  A    between atoms: C_14  and  C_20
REMARK   10  A    between atoms: C_15  and  C_21
REMARK   11  A    between atoms: C_18  and  C_22
REMARK   12  A    between atoms: C_24  and  C_27
REMARK   13  A    between atoms: C_33  and  C_34
REMARK                            x       y       z     vdW  Elec       q    Type
REMARK                         _______ _______ _______ _____ _____    ______ ____
ROOT
ATOM     10  C   UNL     1      -2.935   1.884  23.322  0.00  0.00    +0.000 C 
ATOM     11  C   UNL     1      -4.283   1.925  24.084  0.00  0.00    +0.032 C 
ATOM     12  C   UNL     1      -2.586   0.441  22.927  0.00  0.00    +0.012 C 
ATOM     13  C   UNL     1      -2.484  -0.489  24.149  0.00  0.00    +0.024 C 
ATOM     15  C   UNL     1      -3.657  -0.311  25.092  0.00  0.00    -0.073 C 
ATOM     16  C   UNL     1      -4.457   0.768  25.039  0.00  0.00    -0.022 C 
ATOM     21  C   UNL     1      -3.916  -1.425  26.068  0.00  0.00    +0.039 C 
ENDROOT
BRANCH  10  14
ATOM     14  C   UNL     1      -2.959   2.773  22.075  0.00  0.00    -0.013 C 
ATOM     19  C   UNL     1      -4.364   3.314  21.834  0.00  0.00    +0.007 C 
ATOM     20  C   UNL     1      -2.462   1.998  20.859  0.00  0.00    +0.007 C 
ENDBRANCH  10  14
BRANCH  11  17
ATOM     17  C   UNL     1      -4.449   3.245  24.845  0.00  0.00    +0.109 C 
BRANCH  17   3
ATOM      3  N   UNL     1      -3.226   3.995  24.777  0.00  0.00    -0.342 N 
ATOM     35  H   UNL     1      -3.173   4.819  24.186  0.00  0.00    +0.146 HD
BRANCH   3  23
ATOM      6  N   UNL     1      -0.977   2.967  27.498  0.00  0.00    -0.238 NA
ATOM     23  C   UNL     1      -2.059   3.639  25.443  0.00  0.00    +0.046 A 
ATOM     25  C   UNL     1      -0.840   3.591  24.776  0.00  0.00    +0.028 A 
ATOM     26  C   UNL     1      -2.074   3.320  26.791  0.00  0.00    +0.135 A 
ATOM     28  C   UNL     1       0.311   3.232  25.469  0.00  0.00    +0.045 A 
ATOM     29  C   UNL     1       0.191   2.932  26.816  0.00  0.00    +0.125 A 
BRANCH  29   8
ATOM      2  O   UNL     1       0.752   2.801  29.772  0.00  0.00    -0.276 OA
ATOM      8  N   UNL     1       1.354   2.570  27.505  0.00  0.00    -0.271 N 
ATOM     33  C   UNL     1       1.559   2.527  28.888  0.00  0.00    +0.215 C 
ATOM     34  C   UNL     1       2.957   2.079  29.229  0.00  0.00    +0.109 C 
ATOM     36  H   UNL     1       2.144   2.306  26.919  0.00  0.00    +0.156 HD
ENDBRANCH  29   8
ENDBRANCH   3  23
ENDBRANCH  17   3
ENDBRANCH  11  17
BRANCH  13  18
ATOM     18  C   UNL     1      -1.154  -0.292  24.885  0.00  0.00    +0.105 C 
BRANCH  18  22
ATOM      1  O   UNL     1       1.248  -0.428  24.479  0.00  0.00    -0.419 OA
ATOM      4  N   UNL     1       0.017  -0.204  22.624  0.00  0.00    -0.112 NA
ATOM      5  N   UNL     1       1.346  -0.267  22.250  0.00  0.00    -0.106 NA
ATOM     22  C   UNL     1       0.007  -0.302  23.933  0.00  0.00    +0.218 A 
ATOM     24  C   UNL     1       2.028  -0.398  23.363  0.00  0.00    +0.266 A 
BRANCH  24  27
ATOM      7  N   UNL     1       4.303   0.479  22.990  0.00  0.00    -0.329 N 
ATOM      9  N   UNL     1       5.575  -1.199  23.696  0.00  0.00    -0.243 NA
ATOM     27  C   UNL     1       3.440  -0.497  23.403  0.00  0.00    +0.125 A 
ATOM     30  C   UNL     1       4.248  -1.522  23.834  0.00  0.00    +0.143 A 
ATOM     31  C   UNL     1       5.573   0.012  23.185  0.00  0.00    +0.199 A 
ATOM     32  C   UNL     1       3.963   1.773  22.446  0.00  0.00    +0.150 C 
ENDBRANCH  24  27
ENDBRANCH  18  22
ENDBRANCH  13  18
TORSDOF 8
ENDMDL
MODEL 8
REMARK VINA RESULT:       3.3      2.156      7.208
REMARK  Name = 45784117
REMARK  13 active torsions:
REMARK  status: ('A' for Active; 'I' for Inactive)
REMARK    1  A    between atoms: N_3  and  C_17
REMARK    2  A    between atoms: N_3  and  C_23
REMARK    3  A    between atoms: N_7  and  C_32
REMARK    4  A    between atoms: N_8  and  C_29
REMARK    5  A    between atoms: C_10  and  C_14
REMARK    6  A    between atoms: C_11  and  C_17
REMARK    7  A    between atoms: C_13  and  C_18
REMARK    8  A    between atoms: C_14  and  C_19
REMARK    9  A    between atoms: C_14  and  C_20
REMARK   10  A    between atoms: C_15  and  C_21
REMARK   11  A    between atoms: C_18  and  C_22
REMARK   12  A    between atoms: C_24  and  C_27
REMARK   13  A    between atoms: C_33  and  C_34
REMARK                            x       y       z     vdW  Elec       q    Type
REMARK                         _______ _______ _______ _____ _____    ______ ____
ROOT
ATOM     10  C   UNL     1      -2.890  -2.105  24.343  0.00  0.00    +0.000 C 
ATOM     11  C   UNL     1      -3.460  -1.471  25.636  0.00  0.00    +0.032 C 
ATOM     12  C   UNL     1      -1.360  -2.222  24.433  0.00  0.00    +0.012 C 
ATOM     13  C   UNL     1      -0.683  -0.856  24.647  0.00  0.00    +0.024 C 
ATOM     15  C   UNL     1      -1.365  -0.054  25.735  0.00  0.00    -0.073 C 
ATOM     16  C   UNL     1      -2.601  -0.352  26.174  0.00  0.00    -0.022 C 
ATOM     21  C   UNL     1      -0.576   1.073  26.342  0.00  0.00    +0.039 C 
ENDROOT
BRANCH  10  14
ATOM     14  C   UNL     1      -3.500  -3.483  24.067  0.00  0.00    -0.013 C 
ATOM     19  C   UNL     1      -2.529  -4.344  23.265  0.00  0.00    +0.007 C 
ATOM     20  C   UNL     1      -4.829  -3.339  23.332  0.00  0.00    +0.007 C 
ENDBRANCH  10  14
BRANCH  11  17
ATOM     17  C   UNL     1      -4.889  -0.960  25.418  0.00  0.00    +0.109 C 
BRANCH  17   3
ATOM      3  N   UNL     1      -4.899  -0.010  24.340  0.00  0.00    -0.342 N 
ATOM     35  H   UNL     1      -5.327  -0.258  23.455  0.00  0.00    +0.146 HD
BRANCH   3  23
ATOM      6  N   UNL     1      -4.112   3.382  25.521  0.00  0.00    -0.238 NA
ATOM     23  C   UNL     1      -4.305   1.245  24.406  0.00  0.00    +0.046 A 
ATOM     25  C   UNL     1      -3.347   1.634  23.478  0.00  0.00    +0.028 A 
ATOM     26  C   UNL     1      -4.650   2.148  25.400  0.00  0.00    +0.135 A 
ATOM     28  C   UNL     1      -2.771   2.897  23.569  0.00  0.00    +0.045 A 
ATOM     29  C   UNL     1      -3.184   3.726  24.599  0.00  0.00    +0.125 A 
BRANCH  29   8
ATOM      2  O   UNL     1      -0.313   4.527  25.030  0.00  0.00    -0.276 OA
ATOM      8  N   UNL     1      -2.598   4.994  24.684  0.00  0.00    -0.271 N 
ATOM     33  C   UNL     1      -1.250   5.307  24.886  0.00  0.00    +0.215 C 
ATOM     34  C   UNL     1      -1.024   6.798  24.911  0.00  0.00    +0.109 C 
ATOM     36  H   UNL     1      -3.238   5.779  24.585  0.00  0.00    +0.156 HD
ENDBRANCH  29   8
ENDBRANCH   3  23
ENDBRANCH  17   3
ENDBRANCH  11  17
BRANCH  13  18
ATOM     18  C   UNL     1      -0.618  -0.061  23.338  0.00  0.00    +0.105 C 
BRANCH  18  22
ATOM      1  O   UNL     1       1.804   0.043  23.615  0.00  0.00    -0.419 OA
ATOM      4  N   UNL     1       1.135  -0.208  21.495  0.00  0.00    -0.112 NA
ATOM      5  N   UNL     1       2.516  -0.164  21.505  0.00  0.00    -0.106 NA
ATOM     22  C   UNL     1       0.762  -0.084  22.748  0.00  0.00    +0.218 A 
ATOM     24  C   UNL     1       2.863  -0.017  22.762  0.00  0.00    +0.266 A 
BRANCH  24  27
ATOM      7  N   UNL     1       4.925  -0.958  23.733  0.00  0.00    -0.329 N 
ATOM      9  N   UNL     1       6.301   0.784  23.693  0.00  0.00    -0.243 NA
ATOM     27  C   UNL     1       4.209   0.072  23.192  0.00  0.00    +0.125 A 
ATOM     30  C   UNL     1       5.079   1.136  23.177  0.00  0.00    +0.143 A 
ATOM     31  C   UNL     1       6.175  -0.483  24.018  0.00  0.00    +0.199 A 
ATOM     32  C   UNL     1       4.472  -2.309  23.970  0.00  0.00    +0.150 C 
ENDBRANCH  24  27
ENDBRANCH  18  22
ENDBRANCH  13  18
TORSDOF 8
ENDMDL
MODEL 9
REMARK VINA RESULT:       3.8      2.098      4.741
REMARK  Name = 45784117
REMARK  13 active torsions:
REMARK  status: ('A' for Active; 'I' for Inactive)
REMARK    1  A    between atoms: N_3  and  C_17
REMARK    2  A    between atoms: N_3  and  C_23
REMARK    3  A    between atoms: N_7  and  C_32
REMARK    4  A    between atoms: N_8  and  C_29
REMARK    5  A    between atoms: C_10  and  C_14
REMARK    6  A    between atoms: C_11  and  C_17
REMARK    7  A    between atoms: C_13  and  C_18
REMARK    8  A    between atoms: C_14  and  C_19
REMARK    9  A    between atoms: C_14  and  C_20
REMARK   10  A    between atoms: C_15  and  C_21
REMARK   11  A    between atoms: C_18  and  C_22
REMARK   12  A    between atoms: C_24  and  C_27
REMARK   13  A    between atoms: C_33  and  C_34
REMARK                            x       y       z     vdW  Elec       q    Type
REMARK                         _______ _______ _______ _____ _____    ______ ____
ROOT
ATOM     10  C   UNL     1      -1.161   0.056  24.609  0.00  0.00    +0.000 C 
ATOM     11  C   UNL     1      -0.413  -1.266  24.304  0.00  0.00    +0.032 C 
ATOM     12  C   UNL     1      -2.213  -0.164  25.707  0.00  0.00    +0.012 C 
ATOM     13  C   UNL     1      -3.250  -1.234  25.315  0.00  0.00    +0.024 C 
ATOM     15  C   UNL     1      -2.592  -2.475  24.750  0.00  0.00    -0.073 C 
ATOM     16  C   UNL     1      -1.319  -2.474  24.316  0.00  0.00    -0.022 C 
ATOM     21  C   UNL     1      -3.416  -3.733  24.737  0.00  0.00    +0.039 C 
ENDROOT
BRANCH  10  14
ATOM     14  C   UNL     1      -0.199   1.172  25.028  0.00  0.00    -0.013 C 
ATOM     19  C   UNL     1      -0.484   1.609  26.461  0.00  0.00    +0.007 C 
ATOM     20  C   UNL     1      -0.306   2.354  24.070  0.00  0.00    +0.007 C 
ENDBRANCH  10  14
BRANCH  11  17
ATOM     17  C   UNL     1       0.321  -1.189  22.960  0.00  0.00    +0.109 C 
BRANCH  17   3
ATOM      3  N   UNL     1       1.112   0.009  22.913  0.00  0.00    -0.342 N 
ATOM     35  H   UNL     1       0.670   0.895  22.693  0.00  0.00    +0.146 HD
BRANCH   3  23
ATOM      6  N   UNL     1       4.560   1.281  23.018  0.00  0.00    -0.238 NA
ATOM     23  C   UNL     1       2.488   0.038  23.107  0.00  0.00    +0.046 A 
ATOM     25  C   UNL     1       3.171  -1.083  23.563  0.00  0.00    +0.028 A 
ATOM     26  C   UNL     1       3.222   1.186  22.852  0.00  0.00    +0.135 A 
ATOM     28  C   UNL     1       4.549  -1.024  23.747  0.00  0.00    +0.045 A 
ATOM     29  C   UNL     1       5.191   0.170  23.462  0.00  0.00    +0.125 A 
BRANCH  29   8
ATOM      2  O   UNL     1       7.417  -1.227  21.991  0.00  0.00    -0.276 OA
ATOM      8  N   UNL     1       6.577   0.220  23.652  0.00  0.00    -0.271 N 
ATOM     33  C   UNL     1       7.569  -0.455  22.934  0.00  0.00    +0.215 C 
ATOM     34  C   UNL     1       8.948  -0.127  23.449  0.00  0.00    +0.109 C 
ATOM     36  H   UNL     1       6.893   0.825  24.407  0.00  0.00    +0.156 HD
ENDBRANCH  29   8
ENDBRANCH   3  23
ENDBRANCH  17   3
ENDBRANCH  11  17
BRANCH  13  18
ATOM     18  C   UNL     1      -4.284  -0.667  24.336  0.00  0.00    +0.105 C 
BRANCH  18  22
ATOM      1  O   UNL     1      -3.493   1.641  24.398  0.00  0.00    -0.419 OA
ATOM      4  N   UNL     1      -5.640   1.392  24.978  0.00  0.00    -0.112 NA
ATOM      5  N   UNL     1      -5.329   2.737  25.057  0.00  0.00    -0.106 NA
ATOM     22  C   UNL     1      -4.540   0.791  24.589  0.00  0.00    +0.218 A 
ATOM     24  C   UNL     1      -4.067   2.835  24.710  0.00  0.00    +0.266 A 
BRANCH  24  27
ATOM      7  N   UNL     1      -2.714   4.631  25.723  0.00  0.00    -0.329 N 
ATOM      9  N   UNL     1      -2.429   6.025  24.018  0.00  0.00    -0.243 NA
ATOM     27  C   UNL     1      -3.367   4.065  24.664  0.00  0.00    +0.125 A 
ATOM     30  C   UNL     1      -3.177   4.944  23.624  0.00  0.00    +0.143 A 
ATOM     31  C   UNL     1      -2.167   5.805  25.287  0.00  0.00    +0.199 A 
ATOM     32  C   UNL     1      -2.604   4.106  27.064  0.00  0.00    +0.150 C 
ENDBRANCH  24  27
ENDBRANCH  18  22
ENDBRANCH  13  18
TORSDOF 8
ENDMDL
MODEL 10
REMARK VINA RESULT:       4.5      1.831      3.119
REMARK  Name = 45784117
REMARK  13 active torsions:
REMARK  status: ('A' for Active; 'I' for Inactive)
REMARK    1  A    between atoms: N_3  and  C_17
REMARK    2  A    between atoms: N_3  and  C_23
REMARK    3  A    between atoms: N_7  and  C_32
REMARK    4  A    between atoms: N_8  and  C_29
REMARK    5  A    between atoms: C_10  and  C_14
REMARK    6  A    between atoms: C_11  and  C_17
REMARK    7  A    between atoms: C_13  and  C_18
REMARK    8  A    between atoms: C_14  and  C_19
REMARK    9  A    between atoms: C_14  and  C_20
REMARK   10  A    between atoms: C_15  and  C_21
REMARK   11  A    between atoms: C_18  and  C_22
REMARK   12  A    between atoms: C_24  and  C_27
REMARK   13  A    between atoms: C_33  and  C_34
REMARK                            x       y       z     vdW  Elec       q    Type
REMARK                         _______ _______ _______ _____ _____    ______ ____
ROOT
ATOM     10  C   UNL     1      -1.699   2.297  23.593  0.00  0.00    +0.000 C 
ATOM     11  C   UNL     1      -0.306   1.645  23.781  0.00  0.00    +0.032 C 
ATOM     12  C   UNL     1      -1.704   3.724  24.162  0.00  0.00    +0.012 C 
ATOM     13  C   UNL     1      -1.348   3.755  25.660  0.00  0.00    +0.024 C 
ATOM     15  C   UNL     1      -0.130   2.909  25.967  0.00  0.00    -0.073 C 
ATOM     16  C   UNL     1       0.329   1.981  25.110  0.00  0.00    -0.022 C 
ATOM     21  C   UNL     1       0.577   3.186  27.265  0.00  0.00    +0.039 C 
ENDROOT
BRANCH  10  14
ATOM     14  C   UNL     1      -2.121   2.323  22.121  0.00  0.00    -0.013 C 
ATOM     19  C   UNL     1      -3.336   3.226  21.932  0.00  0.00    +0.007 C 
ATOM     20  C   UNL     1      -2.414   0.911  21.625  0.00  0.00    +0.007 C 
ENDBRANCH  10  14
BRANCH  11  17
ATOM     17  C   UNL     1      -0.381   0.122  23.620  0.00  0.00    +0.109 C 
BRANCH  17   3
ATOM      3  N   UNL     1       0.638  -0.315  22.707  0.00  0.00    -0.342 N 
ATOM     35  H   UNL     1       0.376  -0.803  21.857  0.00  0.00    +0.146 HD
BRANCH   3  23
ATOM      6  N   UNL     1       4.085  -1.084  23.729  0.00  0.00    -0.238 NA
ATOM     23  C   UNL     1       2.001  -0.155  22.930  0.00  0.00    +0.046 A 
ATOM     25  C   UNL     1       2.645   1.033  22.604  0.00  0.00    +0.028 A 
ATOM     26  C   UNL     1       2.759  -1.174  23.485  0.00  0.00    +0.135 A 
ATOM     28  C   UNL     1       4.010   1.164  22.841  0.00  0.00    +0.045 A 
ATOM     29  C   UNL     1       4.678   0.086  23.399  0.00  0.00    +0.125 A 
BRANCH  29   8
ATOM      2  O   UNL     1       7.034  -1.181  22.018  0.00  0.00    -0.276 OA
ATOM      8  N   UNL     1       6.051   0.227  23.632  0.00  0.00    -0.271 N 
ATOM     33  C   UNL     1       7.107  -0.391  22.954  0.00  0.00    +0.215 C 
ATOM     34  C   UNL     1       8.445   0.030  23.508  0.00  0.00    +0.109 C 
ATOM     36  H   UNL     1       6.304   0.859  24.389  0.00  0.00    +0.156 HD
ENDBRANCH  29   8
ENDBRANCH   3  23
ENDBRANCH  17   3
ENDBRANCH  11  17
BRANCH  13  18
ATOM     18  C   UNL     1      -2.543   3.330  26.520  0.00  0.00    +0.105 C 
BRANCH  18  22
ATOM      1  O   UNL     1      -2.966   1.068  25.708  0.00  0.00    -0.419 OA
ATOM      4  N   UNL     1      -4.584   2.534  25.220  0.00  0.00    -0.112 NA
ATOM      5  N   UNL     1      -4.951   1.305  24.705  0.00  0.00    -0.106 NA
ATOM     22  C   UNL     1      -3.420   2.348  25.797  0.00  0.00    +0.218 A 
ATOM     24  C   UNL     1      -3.978   0.480  25.012  0.00  0.00    +0.266 A 
BRANCH  24  27
ATOM      7  N   UNL     1      -3.445  -1.894  25.414  0.00  0.00    -0.329 N 
ATOM      9  N   UNL     1      -4.261  -2.874  23.596  0.00  0.00    -0.243 NA
ATOM     27  C   UNL     1      -3.978  -0.890  24.656  0.00  0.00    +0.125 A 
ATOM     30  C   UNL     1      -4.475  -1.519  23.539  0.00  0.00    +0.143 A 
ATOM     31  C   UNL     1      -3.639  -3.066  24.737  0.00  0.00    +0.199 A 
ATOM     32  C   UNL     1      -2.793  -1.769  26.697  0.00  0.00    +0.150 C 
ENDBRANCH  24  27
ENDBRANCH  18  22
ENDBRANCH  13  18
TORSDOF 8
ENDMDL
