MODEL 1
REMARK VINA RESULT:       0.1      0.000      0.000
REMARK  Name = 38028470
REMARK  13 active torsions:
REMARK  status: ('A' for Active; 'I' for Inactive)
REMARK    1  A    between atoms: O_3  and  C_32
REMARK    2  A    between atoms: O_3  and  C_34
REMARK    3  A    between atoms: N_4  and  C_15
REMARK    4  A    between atoms: N_5  and  C_22
REMARK    5  A    between atoms: N_6  and  C_24
REMARK    6  A    between atoms: C_8  and  C_12
REMARK    7  A    between atoms: C_9  and  C_15
REMARK    8  A    between atoms: C_11  and  C_16
REMARK    9  A    between atoms: C_12  and  C_17
REMARK   10  A    between atoms: C_12  and  C_18
REMARK   11  A    between atoms: C_13  and  C_19
REMARK   12  A    between atoms: C_16  and  C_20
REMARK   13  A    between atoms: C_22  and  C_23
REMARK                            x       y       z     vdW  Elec       q    Type
REMARK                         _______ _______ _______ _____ _____    ______ ____
ROOT
ATOM      8  C   UNL     1      -3.357   2.365  25.147  0.00  0.00    +0.000 C 
ATOM      9  C   UNL     1      -3.846   3.331  24.040  0.00  0.00    +0.032 C 
ATOM     10  C   UNL     1      -2.922   3.151  26.393  0.00  0.00    +0.012 C 
ATOM     11  C   UNL     1      -1.791   4.151  26.084  0.00  0.00    +0.023 C 
ATOM     13  C   UNL     1      -2.083   4.963  24.839  0.00  0.00    -0.073 C 
ATOM     14  C   UNL     1      -3.014   4.588  23.943  0.00  0.00    -0.022 C 
ATOM     19  C   UNL     1      -1.310   6.242  24.668  0.00  0.00    +0.039 C 
ENDROOT
BRANCH   8  12
ATOM     12  C   UNL     1      -4.435   1.345  25.529  0.00  0.00    -0.013 C 
ATOM     17  C   UNL     1      -5.747   2.052  25.852  0.00  0.00    +0.007 C 
ATOM     18  C   UNL     1      -4.629   0.330  24.407  0.00  0.00    +0.007 C 
ENDBRANCH   8  12
BRANCH   9  15
ATOM     15  C   UNL     1      -3.882   2.636  22.675  0.00  0.00    +0.113 C 
BRANCH  15   4
ATOM      2  O   UNL     1      -1.049   3.037  22.827  0.00  0.00    -0.253 OA
ATOM      4  N   UNL     1      -2.871   1.629  22.591  0.00  0.00    -0.299 N 
ATOM      6  N   UNL     1      -0.748   0.724  22.559  0.00  0.00    -0.269 N 
ATOM     21  C   UNL     1      -1.493   1.901  22.674  0.00  0.00    +0.304 C 
ATOM     35  H   UNL     1      -3.160   0.657  22.534  0.00  0.00    +0.150 HD
ATOM     37  H   UNL     1      -1.272  -0.138  22.433  0.00  0.00    +0.156 HD
BRANCH   6  24
ATOM     24  C   UNL     1       0.660   0.581  22.593  0.00  0.00    +0.035 A 
ATOM     27  C   UNL     1       1.292  -0.304  21.721  0.00  0.00    +0.027 A 
ATOM     28  C   UNL     1       1.414   1.326  23.499  0.00  0.00    +0.027 A 
ATOM     30  C   UNL     1       2.679  -0.445  21.753  0.00  0.00    +0.047 A 
ATOM     31  C   UNL     1       2.803   1.186  23.531  0.00  0.00    +0.047 A 
ATOM     32  C   UNL     1       3.435   0.301  22.658  0.00  0.00    +0.120 A 
BRANCH  32   3
ATOM      3  O   UNL     1       4.788   0.164  22.690  0.00  0.00    -0.495 OA
ATOM     34  C   UNL     1       5.371  -0.239  23.929  0.00  0.00    +0.277 C 
ENDBRANCH  32   3
ENDBRANCH   6  24
ENDBRANCH  15   4
ENDBRANCH   9  15
BRANCH  11  16
ATOM     16  C   UNL     1      -0.440   3.439  25.971  0.00  0.00    +0.103 C 
BRANCH  16  20
ATOM      1  O   UNL     1      -0.075   2.212  28.025  0.00  0.00    -0.276 OA
ATOM      5  N   UNL     1      -0.702   1.066  26.102  0.00  0.00    -0.311 N 
ATOM     20  C   UNL     1      -0.377   2.199  26.834  0.00  0.00    +0.214 C 
ATOM     36  H   UNL     1      -0.941   1.156  25.120  0.00  0.00    +0.149 HD
BRANCH   5  22
ATOM     22  C   UNL     1      -0.722  -0.262  26.670  0.00  0.00    +0.141 C 
BRANCH  22  23
ATOM      7  N   UNL     1      -1.679  -2.639  23.890  0.00  0.00    -0.263 NA
ATOM     23  C   UNL     1      -1.528  -1.217  25.840  0.00  0.00    -0.012 A 
ATOM     25  C   UNL     1      -2.823  -1.568  26.204  0.00  0.00    +0.008 A 
ATOM     26  C   UNL     1      -1.007  -1.775  24.683  0.00  0.00    +0.115 A 
ATOM     29  C   UNL     1      -3.547  -2.455  25.414  0.00  0.00    +0.020 A 
ATOM     33  C   UNL     1      -2.935  -2.957  24.276  0.00  0.00    +0.111 A 
ENDBRANCH  22  23
ENDBRANCH   5  22
ENDBRANCH  16  20
ENDBRANCH  11  16
TORSDOF 9
ENDMDL
MODEL 2
REMARK VINA RESULT:       0.4      1.315      1.827
REMARK  Name = 38028470
REMARK  13 active torsions:
REMARK  status: ('A' for Active; 'I' for Inactive)
REMARK    1  A    between atoms: O_3  and  C_32
REMARK    2  A    between atoms: O_3  and  C_34
REMARK    3  A    between atoms: N_4  and  C_15
REMARK    4  A    between atoms: N_5  and  C_22
REMARK    5  A    between atoms: N_6  and  C_24
REMARK    6  A    between atoms: C_8  and  C_12
REMARK    7  A    between atoms: C_9  and  C_15
REMARK    8  A    between atoms: C_11  and  C_16
REMARK    9  A    between atoms: C_12  and  C_17
REMARK   10  A    between atoms: C_12  and  C_18
REMARK   11  A    between atoms: C_13  and  C_19
REMARK   12  A    between atoms: C_16  and  C_20
REMARK   13  A    between atoms: C_22  and  C_23
REMARK                            x       y       z     vdW  Elec       q    Type
REMARK                         _______ _______ _______ _____ _____    ______ ____
ROOT
ATOM      8  C   UNL     1      -3.557   2.336  24.705  0.00  0.00    +0.000 C 
ATOM      9  C   UNL     1      -2.791   2.441  23.362  0.00  0.00    +0.032 C 
ATOM     10  C   UNL     1      -3.553   3.689  25.433  0.00  0.00    +0.012 C 
ATOM     11  C   UNL     1      -2.126   4.190  25.723  0.00  0.00    +0.023 C 
ATOM     13  C   UNL     1      -1.230   4.073  24.507  0.00  0.00    -0.073 C 
ATOM     14  C   UNL     1      -1.550   3.297  23.456  0.00  0.00    -0.022 C 
ATOM     19  C   UNL     1       0.023   4.904  24.507  0.00  0.00    +0.039 C 
ENDROOT
BRANCH   8  12
ATOM     12  C   UNL     1      -5.000   1.862  24.501  0.00  0.00    -0.013 C 
ATOM     17  C   UNL     1      -5.034   0.361  24.232  0.00  0.00    +0.007 C 
ATOM     18  C   UNL     1      -5.852   2.213  25.717  0.00  0.00    +0.007 C 
ENDBRANCH   8  12
BRANCH   9  15
ATOM     15  C   UNL     1      -2.417   1.054  22.830  0.00  0.00    +0.113 C 
BRANCH  15   4
ATOM      2  O   UNL     1      -0.101   0.112  24.228  0.00  0.00    -0.253 OA
ATOM      4  N   UNL     1      -1.072   1.042  22.345  0.00  0.00    -0.299 N 
ATOM      6  N   UNL     1       1.207   0.676  22.361  0.00  0.00    -0.269 N 
ATOM     21  C   UNL     1       0.019   0.562  23.090  0.00  0.00    +0.304 C 
ATOM     35  H   UNL     1      -0.901   1.333  21.387  0.00  0.00    +0.150 HD
ATOM     37  H   UNL     1       1.133   1.075  21.429  0.00  0.00    +0.156 HD
BRANCH   6  24
ATOM     24  C   UNL     1       2.511   0.304  22.764  0.00  0.00    +0.035 A 
ATOM     27  C   UNL     1       3.563   1.212  22.644  0.00  0.00    +0.027 A 
ATOM     28  C   UNL     1       2.745  -0.969  23.281  0.00  0.00    +0.027 A 
ATOM     30  C   UNL     1       4.848   0.847  23.041  0.00  0.00    +0.047 A 
ATOM     31  C   UNL     1       4.032  -1.335  23.679  0.00  0.00    +0.047 A 
ATOM     32  C   UNL     1       5.084  -0.427  23.559  0.00  0.00    +0.120 A 
BRANCH  32   3
ATOM      3  O   UNL     1       6.338  -0.783  23.947  0.00  0.00    -0.495 OA
ATOM     34  C   UNL     1       7.417  -0.378  23.106  0.00  0.00    +0.277 C 
ENDBRANCH  32   3
ENDBRANCH   6  24
ENDBRANCH  15   4
ENDBRANCH   9  15
BRANCH  11  16
ATOM     16  C   UNL     1      -1.518   3.459  26.925  0.00  0.00    +0.103 C 
BRANCH  16  20
ATOM      1  O   UNL     1       0.540   2.460  26.136  0.00  0.00    -0.276 OA
ATOM      5  N   UNL     1      -1.294   1.103  26.584  0.00  0.00    -0.311 N 
ATOM     20  C   UNL     1      -0.624   2.315  26.502  0.00  0.00    +0.214 C 
ATOM     36  H   UNL     1      -2.258   1.083  26.901  0.00  0.00    +0.149 HD
BRANCH   5  22
ATOM     22  C   UNL     1      -0.683  -0.161  26.238  0.00  0.00    +0.141 C 
BRANCH  22  23
ATOM      7  N   UNL     1      -2.146  -3.027  24.253  0.00  0.00    -0.263 NA
ATOM     23  C   UNL     1      -1.681  -1.136  25.686  0.00  0.00    -0.012 A 
ATOM     25  C   UNL     1      -3.020  -1.077  26.054  0.00  0.00    +0.008 A 
ATOM     26  C   UNL     1      -1.299  -2.121  24.789  0.00  0.00    +0.115 A 
ATOM     29  C   UNL     1      -3.924  -1.992  25.524  0.00  0.00    +0.020 A 
ATOM     33  C   UNL     1      -3.440  -2.939  24.635  0.00  0.00    +0.111 A 
ENDBRANCH  22  23
ENDBRANCH   5  22
ENDBRANCH  16  20
ENDBRANCH  11  16
TORSDOF 9
ENDMDL
MODEL 3
REMARK VINA RESULT:       0.6      2.030      4.554
REMARK  Name = 38028470
REMARK  13 active torsions:
REMARK  status: ('A' for Active; 'I' for Inactive)
REMARK    1  A    between atoms: O_3  and  C_32
REMARK    2  A    between atoms: O_3  and  C_34
REMARK    3  A    between atoms: N_4  and  C_15
REMARK    4  A    between atoms: N_5  and  C_22
REMARK    5  A    between atoms: N_6  and  C_24
REMARK    6  A    between atoms: C_8  and  C_12
REMARK    7  A    between atoms: C_9  and  C_15
REMARK    8  A    between atoms: C_11  and  C_16
REMARK    9  A    between atoms: C_12  and  C_17
REMARK   10  A    between atoms: C_12  and  C_18
REMARK   11  A    between atoms: C_13  and  C_19
REMARK   12  A    between atoms: C_16  and  C_20
REMARK   13  A    between atoms: C_22  and  C_23
REMARK                            x       y       z     vdW  Elec       q    Type
REMARK                         _______ _______ _______ _____ _____    ______ ____
ROOT
ATOM      8  C   UNL     1      -4.395  -0.574  24.737  0.00  0.00    +0.000 C 
ATOM      9  C   UNL     1      -3.149  -0.024  23.999  0.00  0.00    +0.032 C 
ATOM     10  C   UNL     1      -5.681  -0.013  24.110  0.00  0.00    +0.012 C 
ATOM     11  C   UNL     1      -5.727   1.527  24.155  0.00  0.00    +0.023 C 
ATOM     13  C   UNL     1      -4.422   2.142  23.690  0.00  0.00    -0.073 C 
ATOM     14  C   UNL     1      -3.283   1.431  23.614  0.00  0.00    -0.022 C 
ATOM     19  C   UNL     1      -4.467   3.586  23.271  0.00  0.00    +0.039 C 
ENDROOT
BRANCH   8  12
ATOM     12  C   UNL     1      -4.437  -2.105  24.721  0.00  0.00    -0.013 C 
ATOM     17  C   UNL     1      -4.352  -2.625  23.290  0.00  0.00    +0.007 C 
ATOM     18  C   UNL     1      -3.308  -2.677  25.572  0.00  0.00    +0.007 C 
ENDBRANCH   8  12
BRANCH   9  15
ATOM     15  C   UNL     1      -1.881  -0.215  24.838  0.00  0.00    +0.113 C 
BRANCH  15   4
ATOM      2  O   UNL     1       0.766  -1.310  24.889  0.00  0.00    -0.253 OA
ATOM      4  N   UNL     1      -0.734   0.288  24.148  0.00  0.00    -0.299 N 
ATOM      6  N   UNL     1       1.461   0.406  23.444  0.00  0.00    -0.269 N 
ATOM     21  C   UNL     1       0.539  -0.304  24.220  0.00  0.00    +0.304 C 
ATOM     35  H   UNL     1      -0.856   1.076  23.519  0.00  0.00    +0.150 HD
ATOM     37  H   UNL     1       1.109   1.222  22.952  0.00  0.00    +0.156 HD
BRANCH   6  24
ATOM     24  C   UNL     1       2.836   0.127  23.260  0.00  0.00    +0.035 A 
ATOM     27  C   UNL     1       3.360  -1.097  23.674  0.00  0.00    +0.027 A 
ATOM     28  C   UNL     1       3.666   1.075  22.663  0.00  0.00    +0.027 A 
ATOM     30  C   UNL     1       4.715  -1.373  23.492  0.00  0.00    +0.047 A 
ATOM     31  C   UNL     1       5.022   0.799  22.480  0.00  0.00    +0.047 A 
ATOM     32  C   UNL     1       5.546  -0.425  22.895  0.00  0.00    +0.120 A 
BRANCH  32   3
ATOM      3  O   UNL     1       6.868  -0.695  22.717  0.00  0.00    -0.495 OA
ATOM     34  C   UNL     1       7.795   0.060  23.495  0.00  0.00    +0.277 C 
ENDBRANCH  32   3
ENDBRANCH   6  24
ENDBRANCH  15   4
ENDBRANCH   9  15
BRANCH  11  16
ATOM     16  C   UNL     1      -6.102   2.028  25.553  0.00  0.00    +0.103 C 
BRANCH  16  20
ATOM      1  O   UNL     1      -5.870   4.425  25.792  0.00  0.00    -0.276 OA
ATOM      5  N   UNL     1      -4.103   3.038  26.388  0.00  0.00    -0.311 N 
ATOM     20  C   UNL     1      -5.378   3.306  25.913  0.00  0.00    +0.214 C 
ATOM     36  H   UNL     1      -3.784   2.077  26.455  0.00  0.00    +0.149 HD
BRANCH   5  22
ATOM     22  C   UNL     1      -3.184   4.072  26.806  0.00  0.00    +0.141 C 
BRANCH  22  23
ATOM      7  N   UNL     1       0.015   3.055  25.066  0.00  0.00    -0.263 NA
ATOM     23  C   UNL     1      -1.969   4.135  25.927  0.00  0.00    -0.012 A 
ATOM     25  C   UNL     1      -1.683   5.272  25.180  0.00  0.00    +0.008 A 
ATOM     26  C   UNL     1      -1.095   3.063  25.836  0.00  0.00    +0.115 A 
ATOM     29  C   UNL     1      -0.549   5.302  24.376  0.00  0.00    +0.020 A 
ATOM     33  C   UNL     1       0.261   4.177  24.354  0.00  0.00    +0.111 A 
ENDBRANCH  22  23
ENDBRANCH   5  22
ENDBRANCH  16  20
ENDBRANCH  11  16
TORSDOF 9
ENDMDL
MODEL 4
REMARK VINA RESULT:       1.4      1.900      3.329
REMARK  Name = 38028470
REMARK  13 active torsions:
REMARK  status: ('A' for Active; 'I' for Inactive)
REMARK    1  A    between atoms: O_3  and  C_32
REMARK    2  A    between atoms: O_3  and  C_34
REMARK    3  A    between atoms: N_4  and  C_15
REMARK    4  A    between atoms: N_5  and  C_22
REMARK    5  A    between atoms: N_6  and  C_24
REMARK    6  A    between atoms: C_8  and  C_12
REMARK    7  A    between atoms: C_9  and  C_15
REMARK    8  A    between atoms: C_11  and  C_16
REMARK    9  A    between atoms: C_12  and  C_17
REMARK   10  A    between atoms: C_12  and  C_18
REMARK   11  A    between atoms: C_13  and  C_19
REMARK   12  A    between atoms: C_16  and  C_20
REMARK   13  A    between atoms: C_22  and  C_23
REMARK                            x       y       z     vdW  Elec       q    Type
REMARK                         _______ _______ _______ _____ _____    ______ ____
ROOT
ATOM      8  C   UNL     1      -3.726   2.724  23.179  0.00  0.00    +0.000 C 
ATOM      9  C   UNL     1      -2.284   2.345  23.601  0.00  0.00    +0.032 C 
ATOM     10  C   UNL     1      -4.105   4.102  23.743  0.00  0.00    +0.012 C 
ATOM     11  C   UNL     1      -4.020   4.145  25.281  0.00  0.00    +0.023 C 
ATOM     13  C   UNL     1      -2.728   3.537  25.790  0.00  0.00    -0.073 C 
ATOM     14  C   UNL     1      -1.959   2.746  25.021  0.00  0.00    -0.022 C 
ATOM     19  C   UNL     1      -2.318   3.896  27.191  0.00  0.00    +0.039 C 
ENDROOT
BRANCH   8  12
ATOM     12  C   UNL     1      -3.892   2.725  21.656  0.00  0.00    -0.013 C 
ATOM     17  C   UNL     1      -4.381   4.086  21.174  0.00  0.00    +0.007 C 
ATOM     18  C   UNL     1      -2.578   2.351  20.977  0.00  0.00    +0.007 C 
ENDBRANCH   8  12
BRANCH   9  15
ATOM     15  C   UNL     1      -2.034   0.843  23.424  0.00  0.00    +0.113 C 
BRANCH  15   4
ATOM      2  O   UNL     1       0.488   0.550  24.750  0.00  0.00    -0.253 OA
ATOM      4  N   UNL     1      -0.766   0.609  22.807  0.00  0.00    -0.299 N 
ATOM      6  N   UNL     1       1.510   0.254  22.657  0.00  0.00    -0.269 N 
ATOM     21  C   UNL     1       0.436   0.475  23.524  0.00  0.00    +0.304 C 
ATOM     35  H   UNL     1      -0.737   0.466  21.802  0.00  0.00    +0.150 HD
ATOM     37  H   UNL     1       1.295   0.222  21.664  0.00  0.00    +0.156 HD
BRANCH   6  24
ATOM     24  C   UNL     1       2.872   0.069  22.992  0.00  0.00    +0.035 A 
ATOM     27  C   UNL     1       3.308  -1.162  23.481  0.00  0.00    +0.027 A 
ATOM     28  C   UNL     1       3.778   1.117  22.833  0.00  0.00    +0.027 A 
ATOM     30  C   UNL     1       4.651  -1.345  23.811  0.00  0.00    +0.047 A 
ATOM     31  C   UNL     1       5.122   0.933  23.163  0.00  0.00    +0.047 A 
ATOM     32  C   UNL     1       5.558  -0.298  23.652  0.00  0.00    +0.120 A 
BRANCH  32   3
ATOM      3  O   UNL     1       6.868  -0.477  23.974  0.00  0.00    -0.495 OA
ATOM     34  C   UNL     1       7.800  -0.535  22.895  0.00  0.00    +0.277 C 
ENDBRANCH  32   3
ENDBRANCH   6  24
ENDBRANCH  15   4
ENDBRANCH   9  15
BRANCH  11  16
ATOM     16  C   UNL     1      -5.235   3.466  25.921  0.00  0.00    +0.103 C 
BRANCH  16  20
ATOM      1  O   UNL     1      -6.534   2.198  24.320  0.00  0.00    -0.276 OA
ATOM      5  N   UNL     1      -4.903   1.123  25.580  0.00  0.00    -0.311 N 
ATOM     20  C   UNL     1      -5.650   2.219  25.173  0.00  0.00    +0.214 C 
ATOM     36  H   UNL     1      -4.189   1.240  26.292  0.00  0.00    +0.149 HD
BRANCH   5  22
ATOM     22  C   UNL     1      -5.085  -0.202  25.034  0.00  0.00    +0.141 C 
BRANCH  22  23
ATOM      7  N   UNL     1      -1.618  -1.351  26.013  0.00  0.00    -0.263 NA
ATOM     23  C   UNL     1      -3.817  -1.005  25.070  0.00  0.00    -0.012 A 
ATOM     25  C   UNL     1      -3.640  -2.103  24.236  0.00  0.00    +0.008 A 
ATOM     26  C   UNL     1      -2.784  -0.673  25.932  0.00  0.00    +0.115 A 
ATOM     29  C   UNL     1      -2.454  -2.826  24.289  0.00  0.00    +0.020 A 
ATOM     33  C   UNL     1      -1.482  -2.413  25.187  0.00  0.00    +0.111 A 
ENDBRANCH  22  23
ENDBRANCH   5  22
ENDBRANCH  16  20
ENDBRANCH  11  16
TORSDOF 9
ENDMDL
MODEL 5
REMARK VINA RESULT:       2.6      1.393      3.530
REMARK  Name = 38028470
REMARK  13 active torsions:
REMARK  status: ('A' for Active; 'I' for Inactive)
REMARK    1  A    between atoms: O_3  and  C_32
REMARK    2  A    between atoms: O_3  and  C_34
REMARK    3  A    between atoms: N_4  and  C_15
REMARK    4  A    between atoms: N_5  and  C_22
REMARK    5  A    between atoms: N_6  and  C_24
REMARK    6  A    between atoms: C_8  and  C_12
REMARK    7  A    between atoms: C_9  and  C_15
REMARK    8  A    between atoms: C_11  and  C_16
REMARK    9  A    between atoms: C_12  and  C_17
REMARK   10  A    between atoms: C_12  and  C_18
REMARK   11  A    between atoms: C_13  and  C_19
REMARK   12  A    between atoms: C_16  and  C_20
REMARK   13  A    between atoms: C_22  and  C_23
REMARK                            x       y       z     vdW  Elec       q    Type
REMARK                         _______ _______ _______ _____ _____    ______ ____
ROOT
ATOM      8  C   UNL     1      -2.543   4.394  24.853  0.00  0.00    +0.000 C 
ATOM      9  C   UNL     1      -2.928   3.609  26.132  0.00  0.00    +0.032 C 
ATOM     10  C   UNL     1      -3.802   4.926  24.150  0.00  0.00    +0.012 C 
ATOM     11  C   UNL     1      -4.770   3.795  23.755  0.00  0.00    +0.023 C 
ATOM     13  C   UNL     1      -4.992   2.821  24.895  0.00  0.00    -0.073 C 
ATOM     14  C   UNL     1      -4.166   2.760  25.954  0.00  0.00    -0.022 C 
ATOM     19  C   UNL     1      -6.211   1.945  24.809  0.00  0.00    +0.039 C 
ENDROOT
BRANCH   8  12
ATOM     12  C   UNL     1      -1.593   5.555  25.163  0.00  0.00    -0.013 C 
ATOM     17  C   UNL     1      -0.213   5.286  24.572  0.00  0.00    +0.007 C 
ATOM     18  C   UNL     1      -2.162   6.866  24.630  0.00  0.00    +0.007 C 
ENDBRANCH   8  12
BRANCH   9  15
ATOM     15  C   UNL     1      -1.769   2.728  26.609  0.00  0.00    +0.113 C 
BRANCH  15   4
ATOM      2  O   UNL     1       1.033   2.342  26.157  0.00  0.00    -0.253 OA
ATOM      4  N   UNL     1      -1.167   2.040  25.510  0.00  0.00    -0.299 N 
ATOM      6  N   UNL     1       0.515   1.174  24.187  0.00  0.00    -0.269 N 
ATOM     21  C   UNL     1       0.222   1.888  25.353  0.00  0.00    +0.304 C 
ATOM     35  H   UNL     1      -1.774   1.578  24.839  0.00  0.00    +0.150 HD
ATOM     37  H   UNL     1      -0.278   0.871  23.627  0.00  0.00    +0.156 HD
BRANCH   6  24
ATOM     24  C   UNL     1       1.788   0.818  23.685  0.00  0.00    +0.035 A 
ATOM     27  C   UNL     1       2.174  -0.522  23.649  0.00  0.00    +0.027 A 
ATOM     28  C   UNL     1       2.658   1.807  23.224  0.00  0.00    +0.027 A 
ATOM     30  C   UNL     1       3.429  -0.874  23.153  0.00  0.00    +0.047 A 
ATOM     31  C   UNL     1       3.914   1.455  22.728  0.00  0.00    +0.047 A 
ATOM     32  C   UNL     1       4.299   0.114  22.692  0.00  0.00    +0.120 A 
BRANCH  32   3
ATOM      3  O   UNL     1       5.523  -0.229  22.208  0.00  0.00    -0.495 OA
ATOM     34  C   UNL     1       6.597  -0.294  23.145  0.00  0.00    +0.277 C 
ENDBRANCH  32   3
ENDBRANCH   6  24
ENDBRANCH  15   4
ENDBRANCH   9  15
BRANCH  11  16
ATOM     16  C   UNL     1      -4.286   3.068  22.497  0.00  0.00    +0.103 C 
BRANCH  16  20
ATOM      1  O   UNL     1      -1.894   2.842  22.783  0.00  0.00    -0.276 OA
ATOM      5  N   UNL     1      -3.245   0.953  22.897  0.00  0.00    -0.311 N 
ATOM     20  C   UNL     1      -3.000   2.310  22.738  0.00  0.00    +0.214 C 
ATOM     36  H   UNL     1      -4.197   0.607  22.847  0.00  0.00    +0.149 HD
BRANCH   5  22
ATOM     22  C   UNL     1      -2.198  -0.013  23.140  0.00  0.00    +0.141 C 
BRANCH  22  23
ATOM      7  N   UNL     1      -2.556  -3.264  25.039  0.00  0.00    -0.263 NA
ATOM     23  C   UNL     1      -2.574  -0.991  24.216  0.00  0.00    -0.012 A 
ATOM     25  C   UNL     1      -3.264  -0.578  25.350  0.00  0.00    +0.008 A 
ATOM     26  C   UNL     1      -2.246  -2.333  24.109  0.00  0.00    +0.115 A 
ATOM     29  C   UNL     1      -3.601  -1.506  26.329  0.00  0.00    +0.020 A 
ATOM     33  C   UNL     1      -3.227  -2.825  26.128  0.00  0.00    +0.111 A 
ENDBRANCH  22  23
ENDBRANCH   5  22
ENDBRANCH  16  20
ENDBRANCH  11  16
TORSDOF 9
ENDMDL
MODEL 6
REMARK VINA RESULT:       3.5      2.060      3.735
REMARK  Name = 38028470
REMARK  13 active torsions:
REMARK  status: ('A' for Active; 'I' for Inactive)
REMARK    1  A    between atoms: O_3  and  C_32
REMARK    2  A    between atoms: O_3  and  C_34
REMARK    3  A    between atoms: N_4  and  C_15
REMARK    4  A    between atoms: N_5  and  C_22
REMARK    5  A    between atoms: N_6  and  C_24
REMARK    6  A    between atoms: C_8  and  C_12
REMARK    7  A    between atoms: C_9  and  C_15
REMARK    8  A    between atoms: C_11  and  C_16
REMARK    9  A    between atoms: C_12  and  C_17
REMARK   10  A    between atoms: C_12  and  C_18
REMARK   11  A    between atoms: C_13  and  C_19
REMARK   12  A    between atoms: C_16  and  C_20
REMARK   13  A    between atoms: C_22  and  C_23
REMARK                            x       y       z     vdW  Elec       q    Type
REMARK                         _______ _______ _______ _____ _____    ______ ____
ROOT
ATOM      8  C   UNL     1      -4.433   1.850  25.392  0.00  0.00    +0.000 C 
ATOM      9  C   UNL     1      -3.952   1.668  23.931  0.00  0.00    +0.032 C 
ATOM     10  C   UNL     1      -5.108   3.219  25.569  0.00  0.00    +0.012 C 
ATOM     11  C   UNL     1      -4.163   4.384  25.218  0.00  0.00    +0.023 C 
ATOM     13  C   UNL     1      -3.443   4.148  23.905  0.00  0.00    -0.073 C 
ATOM     14  C   UNL     1      -3.370   2.931  23.339  0.00  0.00    -0.022 C 
ATOM     19  C   UNL     1      -2.846   5.355  23.235  0.00  0.00    +0.039 C 
ENDROOT
BRANCH   8  12
ATOM     12  C   UNL     1      -5.398   0.738  25.817  0.00  0.00    -0.013 C 
ATOM     17  C   UNL     1      -6.586   1.324  26.572  0.00  0.00    +0.007 C 
ATOM     18  C   UNL     1      -5.866  -0.053  24.600  0.00  0.00    +0.007 C 
ENDBRANCH   8  12
BRANCH   9  15
ATOM     15  C   UNL     1      -2.927   0.534  23.824  0.00  0.00    +0.113 C 
BRANCH  15   4
ATOM      2  O   UNL     1      -0.449  -0.901  23.910  0.00  0.00    -0.253 OA
ATOM      4  N   UNL     1      -1.630   1.049  23.513  0.00  0.00    -0.299 N 
ATOM      6  N   UNL     1       0.660   1.051  23.220  0.00  0.00    -0.269 N 
ATOM     21  C   UNL     1      -0.452   0.283  23.577  0.00  0.00    +0.304 C 
ATOM     35  H   UNL     1      -1.558   1.999  23.163  0.00  0.00    +0.150 HD
ATOM     37  H   UNL     1       0.483   2.021  22.972  0.00  0.00    +0.156 HD
BRANCH   6  24
ATOM     24  C   UNL     1       2.013   0.643  23.161  0.00  0.00    +0.035 A 
ATOM     27  C   UNL     1       3.007   1.570  22.850  0.00  0.00    +0.027 A 
ATOM     28  C   UNL     1       2.353  -0.686  23.414  0.00  0.00    +0.027 A 
ATOM     30  C   UNL     1       4.342   1.170  22.792  0.00  0.00    +0.047 A 
ATOM     31  C   UNL     1       3.689  -1.087  23.357  0.00  0.00    +0.047 A 
ATOM     32  C   UNL     1       4.683  -0.159  23.046  0.00  0.00    +0.120 A 
BRANCH  32   3
ATOM      3  O   UNL     1       5.985  -0.550  22.990  0.00  0.00    -0.495 OA
ATOM     34  C   UNL     1       6.906   0.136  23.835  0.00  0.00    +0.277 C 
ENDBRANCH  32   3
ENDBRANCH   6  24
ENDBRANCH  15   4
ENDBRANCH   9  15
BRANCH  11  16
ATOM     16  C   UNL     1      -3.167   4.648  26.351  0.00  0.00    +0.103 C 
BRANCH  16  20
ATOM      1  O   UNL     1      -1.076   4.995  25.182  0.00  0.00    -0.276 OA
ATOM      5  N   UNL     1      -1.323   3.140  26.562  0.00  0.00    -0.311 N 
ATOM     20  C   UNL     1      -1.748   4.310  25.950  0.00  0.00    +0.214 C 
ATOM     36  H   UNL     1      -1.951   2.644  27.186  0.00  0.00    +0.149 HD
BRANCH   5  22
ATOM     22  C   UNL     1      -0.007   2.577  26.360  0.00  0.00    +0.141 C 
BRANCH  22  23
ATOM      7  N   UNL     1       2.968   2.967  28.661  0.00  0.00    -0.263 NA
ATOM     23  C   UNL     1       0.818   2.613  27.613  0.00  0.00    -0.012 A 
ATOM     25  C   UNL     1       0.252   2.335  28.852  0.00  0.00    +0.008 A 
ATOM     26  C   UNL     1       2.169   2.920  27.572  0.00  0.00    +0.115 A 
ATOM     29  C   UNL     1       1.042   2.373  29.996  0.00  0.00    +0.020 A 
ATOM     33  C   UNL     1       2.383   2.691  29.848  0.00  0.00    +0.111 A 
ENDBRANCH  22  23
ENDBRANCH   5  22
ENDBRANCH  16  20
ENDBRANCH  11  16
TORSDOF 9
ENDMDL
MODEL 7
REMARK VINA RESULT:       3.6      2.235      5.585
REMARK  Name = 38028470
REMARK  13 active torsions:
REMARK  status: ('A' for Active; 'I' for Inactive)
REMARK    1  A    between atoms: O_3  and  C_32
REMARK    2  A    between atoms: O_3  and  C_34
REMARK    3  A    between atoms: N_4  and  C_15
REMARK    4  A    between atoms: N_5  and  C_22
REMARK    5  A    between atoms: N_6  and  C_24
REMARK    6  A    between atoms: C_8  and  C_12
REMARK    7  A    between atoms: C_9  and  C_15
REMARK    8  A    between atoms: C_11  and  C_16
REMARK    9  A    between atoms: C_12  and  C_17
REMARK   10  A    between atoms: C_12  and  C_18
REMARK   11  A    between atoms: C_13  and  C_19
REMARK   12  A    between atoms: C_16  and  C_20
REMARK   13  A    between atoms: C_22  and  C_23
REMARK                            x       y       z     vdW  Elec       q    Type
REMARK                         _______ _______ _______ _____ _____    ______ ____
ROOT
ATOM      8  C   UNL     1      -1.654   0.673  24.816  0.00  0.00    +0.000 C 
ATOM      9  C   UNL     1      -0.663  -0.489  24.555  0.00  0.00    +0.032 C 
ATOM     10  C   UNL     1      -2.721   0.249  25.836  0.00  0.00    +0.012 C 
ATOM     11  C   UNL     1      -3.523  -0.979  25.364  0.00  0.00    +0.023 C 
ATOM     13  C   UNL     1      -2.616  -2.074  24.838  0.00  0.00    -0.073 C 
ATOM     14  C   UNL     1      -1.337  -1.839  24.493  0.00  0.00    -0.022 C 
ATOM     19  C   UNL     1      -3.201  -3.457  24.757  0.00  0.00    +0.039 C 
ENDROOT
BRANCH   8  12
ATOM     12  C   UNL     1      -0.936   1.933  25.311  0.00  0.00    -0.013 C 
ATOM     17  C   UNL     1      -0.060   1.609  26.516  0.00  0.00    +0.007 C 
ATOM     18  C   UNL     1      -0.107   2.549  24.189  0.00  0.00    +0.007 C 
ENDBRANCH   8  12
BRANCH   9  15
ATOM     15  C   UNL     1       0.134  -0.256  23.267  0.00  0.00    +0.113 C 
BRANCH  15   4
ATOM      2  O   UNL     1       2.622   1.162  23.187  0.00  0.00    -0.253 OA
ATOM      4  N   UNL     1       1.444  -0.821  23.371  0.00  0.00    -0.299 N 
ATOM      6  N   UNL     1       3.750  -0.881  23.448  0.00  0.00    -0.269 N 
ATOM     21  C   UNL     1       2.625  -0.060  23.323  0.00  0.00    +0.304 C 
ATOM     35  H   UNL     1       1.528  -1.816  23.554  0.00  0.00    +0.150 HD
ATOM     37  H   UNL     1       3.577  -1.877  23.551  0.00  0.00    +0.156 HD
BRANCH   6  24
ATOM     24  C   UNL     1       5.111  -0.494  23.448  0.00  0.00    +0.035 A 
ATOM     27  C   UNL     1       6.050  -1.252  22.748  0.00  0.00    +0.027 A 
ATOM     28  C   UNL     1       5.513   0.644  24.145  0.00  0.00    +0.027 A 
ATOM     30  C   UNL     1       7.392  -0.871  22.746  0.00  0.00    +0.047 A 
ATOM     31  C   UNL     1       6.855   1.026  24.143  0.00  0.00    +0.047 A 
ATOM     32  C   UNL     1       7.795   0.268  23.444  0.00  0.00    +0.120 A 
BRANCH  32   3
ATOM      3  O   UNL     1       9.104   0.640  23.442  0.00  0.00    -0.495 OA
ATOM     34  C   UNL     1      10.022  -0.221  22.771  0.00  0.00    +0.277 C 
ENDBRANCH  32   3
ENDBRANCH   6  24
ENDBRANCH  15   4
ENDBRANCH   9  15
BRANCH  11  16
ATOM     16  C   UNL     1      -4.572  -0.586  24.319  0.00  0.00    +0.103 C 
BRANCH  16  20
ATOM      1  O   UNL     1      -4.148   1.519  23.203  0.00  0.00    -0.276 OA
ATOM      5  N   UNL     1      -5.391   1.494  25.167  0.00  0.00    -0.311 N 
ATOM     20  C   UNL     1      -4.661   0.913  24.140  0.00  0.00    +0.214 C 
ATOM     36  H   UNL     1      -5.780   0.909  25.898  0.00  0.00    +0.149 HD
BRANCH   5  22
ATOM     22  C   UNL     1      -5.637   2.916  25.253  0.00  0.00    +0.141 C 
BRANCH  22  23
ATOM      7  N   UNL     1      -2.662   4.990  24.183  0.00  0.00    -0.263 NA
ATOM     23  C   UNL     1      -4.362   3.704  25.324  0.00  0.00    -0.012 A 
ATOM     25  C   UNL     1      -3.698   3.885  26.532  0.00  0.00    +0.008 A 
ATOM     26  C   UNL     1      -3.806   4.271  24.188  0.00  0.00    +0.115 A 
ATOM     29  C   UNL     1      -2.517   4.618  26.568  0.00  0.00    +0.020 A 
ATOM     33  C   UNL     1      -2.045   5.145  25.376  0.00  0.00    +0.111 A 
ENDBRANCH  22  23
ENDBRANCH   5  22
ENDBRANCH  16  20
ENDBRANCH  11  16
TORSDOF 9
ENDMDL
