MODEL 1
REMARK VINA RESULT:      -5.5      0.000      0.000
REMARK  Name = 75536833
REMARK  9 active torsions:
REMARK  status: ('A' for Active; 'I' for Inactive)
REMARK    1  A    between atoms: S_1  and  N_7
REMARK    2  A    between atoms: S_1  and  C_16
REMARK    3  A    between atoms: O_3  and  C_10
REMARK    4  A    between atoms: N_6  and  C_9
REMARK    5  A    between atoms: N_6  and  C_14
REMARK    6  A    between atoms: N_7  and  C_13
REMARK    7  A    between atoms: C_11  and  C_13
REMARK    8  A    between atoms: C_14  and  C_15
REMARK    9  A    between atoms: C_23  and  C_26
REMARK                            x       y       z     vdW  Elec       q    Type
REMARK                         _______ _______ _______ _____ _____    ______ ____
ROOT
ATOM      2  O   UNL     1      -0.686   3.455  25.653  0.00  0.00    -0.371 OA
ATOM      9  C   UNL     1      -0.052   1.765  24.109  0.00  0.00    +0.111 C 
ATOM     10  C   UNL     1      -1.534   2.049  23.951  0.00  0.00    +0.164 C 
ATOM     11  C   UNL     1      -1.635   3.435  24.574  0.00  0.00    +0.164 C 
ATOM     12  C   UNL     1       0.221   2.353  25.485  0.00  0.00    +0.181 C 
ENDROOT
BRANCH  10   3
ATOM      3  O   UNL     1      -1.948   2.047  22.599  0.00  0.00    -0.388 OA
ATOM     29  H   UNL     1      -2.902   2.235  22.571  0.00  0.00    +0.210 HD
ENDBRANCH  10   3
BRANCH   9   6
ATOM      6  N   UNL     1       0.285   0.354  24.020  0.00  0.00    -0.305 NA
ATOM     27  H   UNL     1      -0.575  -0.193  24.025  0.00  0.00    +0.123 HD
BRANCH   6  14
ATOM     14  C   UNL     1       1.020   0.066  22.794  0.00  0.00    +0.116 C 
BRANCH  14  15
ATOM      8  N   UNL     1       5.247  -0.279  23.503  0.00  0.00    -0.263 NA
ATOM     15  C   UNL     1       2.499  -0.054  23.042  0.00  0.00    -0.031 A 
ATOM     17  C   UNL     1       3.345   1.012  22.756  0.00  0.00    +0.024 A 
ATOM     18  C   UNL     1       3.027  -1.233  23.558  0.00  0.00    +0.024 A 
ATOM     24  C   UNL     1       4.699   0.851  23.003  0.00  0.00    +0.111 A 
ATOM     25  C   UNL     1       4.395  -1.294  23.769  0.00  0.00    +0.111 A 
ENDBRANCH  14  15
ENDBRANCH   6  14
ENDBRANCH   9   6
BRANCH  11  13
ATOM     13  C   UNL     1      -3.022   3.754  25.103  0.00  0.00    +0.140 C 
BRANCH  13   7
ATOM      7  N   UNL     1      -4.033   3.017  24.320  0.00  0.00    -0.187 NA
ATOM     28  H   UNL     1      -4.307   3.447  23.428  0.00  0.00    +0.148 HD
BRANCH   7   1
ATOM      1  S   UNL     1      -5.152   2.006  25.109  0.00  0.00    +0.058 S 
ATOM      4  O   UNL     1      -6.388   1.974  24.349  0.00  0.00    -0.153 OA
ATOM      5  O   UNL     1      -5.172   2.336  26.521  0.00  0.00    -0.153 OA
BRANCH   1  16
ATOM     16  C   UNL     1      -4.379   0.424  24.959  0.00  0.00    +0.105 A 
ATOM     19  C   UNL     1      -3.324   0.081  25.804  0.00  0.00    +0.029 A 
ATOM     20  C   UNL     1      -4.823  -0.481  23.994  0.00  0.00    +0.029 A 
ATOM     21  C   UNL     1      -2.713  -1.166  25.685  0.00  0.00    +0.005 A 
ATOM     22  C   UNL     1      -4.210  -1.729  23.875  0.00  0.00    +0.005 A 
ATOM     23  C   UNL     1      -3.155  -2.071  24.720  0.00  0.00    -0.050 A 
ATOM     26  C   UNL     1      -2.500  -3.406  24.592  0.00  0.00    +0.044 C 
ENDBRANCH   1  16
ENDBRANCH   7   1
ENDBRANCH  13   7
ENDBRANCH  11  13
TORSDOF 8
ENDMDL
MODEL 2
REMARK VINA RESULT:      -4.9      1.900      4.086
REMARK  Name = 75536833
REMARK  9 active torsions:
REMARK  status: ('A' for Active; 'I' for Inactive)
REMARK    1  A    between atoms: S_1  and  N_7
REMARK    2  A    between atoms: S_1  and  C_16
REMARK    3  A    between atoms: O_3  and  C_10
REMARK    4  A    between atoms: N_6  and  C_9
REMARK    5  A    between atoms: N_6  and  C_14
REMARK    6  A    between atoms: N_7  and  C_13
REMARK    7  A    between atoms: C_11  and  C_13
REMARK    8  A    between atoms: C_14  and  C_15
REMARK    9  A    between atoms: C_23  and  C_26
REMARK                            x       y       z     vdW  Elec       q    Type
REMARK                         _______ _______ _______ _____ _____    ______ ____
ROOT
ATOM      2  O   UNL     1      -1.908  -2.534  24.121  0.00  0.00    -0.371 OA
ATOM      9  C   UNL     1      -0.130  -1.000  24.475  0.00  0.00    +0.111 C 
ATOM     10  C   UNL     1      -1.303  -0.611  25.356  0.00  0.00    +0.164 C 
ATOM     11  C   UNL     1      -2.076  -1.921  25.410  0.00  0.00    +0.164 C 
ATOM     12  C   UNL     1      -0.809  -1.895  23.451  0.00  0.00    +0.181 C 
ENDROOT
BRANCH  10   3
ATOM      3  O   UNL     1      -0.899  -0.183  26.643  0.00  0.00    -0.388 OA
ATOM     29  H   UNL     1      -1.649   0.273  27.062  0.00  0.00    +0.210 HD
ENDBRANCH  10   3
BRANCH   9   6
ATOM      6  N   UNL     1       0.549   0.136  23.873  0.00  0.00    -0.305 NA
ATOM     27  H   UNL     1       1.155   0.568  24.569  0.00  0.00    +0.123 HD
BRANCH   6  14
ATOM     14  C   UNL     1       1.361  -0.282  22.735  0.00  0.00    +0.116 C 
BRANCH  14  15
ATOM      8  N   UNL     1       5.564  -0.152  23.634  0.00  0.00    -0.263 NA
ATOM     15  C   UNL     1       2.832  -0.237  23.050  0.00  0.00    -0.031 A 
ATOM     17  C   UNL     1       3.461  -1.343  23.609  0.00  0.00    +0.024 A 
ATOM     18  C   UNL     1       3.568   0.913  22.782  0.00  0.00    +0.024 A 
ATOM     24  C   UNL     1       4.817  -1.251  23.880  0.00  0.00    +0.111 A 
ATOM     25  C   UNL     1       4.919   0.904  23.090  0.00  0.00    +0.111 A 
ENDBRANCH  14  15
ENDBRANCH   6  14
ENDBRANCH   9   6
BRANCH  11  13
ATOM     13  C   UNL     1      -3.555  -1.732  25.700  0.00  0.00    +0.140 C 
BRANCH  13   7
ATOM      7  N   UNL     1      -3.839  -0.299  25.910  0.00  0.00    -0.187 NA
ATOM     28  H   UNL     1      -4.099  -0.030  26.867  0.00  0.00    +0.148 HD
BRANCH   7   1
ATOM      1  S   UNL     1      -4.407   0.655  24.620  0.00  0.00    +0.058 S 
ATOM      4  O   UNL     1      -5.765   1.083  24.902  0.00  0.00    -0.153 OA
ATOM      5  O   UNL     1      -4.096  -0.009  23.369  0.00  0.00    -0.153 OA
BRANCH   1  16
ATOM     16  C   UNL     1      -3.355   2.072  24.727  0.00  0.00    +0.105 A 
ATOM     19  C   UNL     1      -3.648   3.089  25.635  0.00  0.00    +0.029 A 
ATOM     20  C   UNL     1      -2.235   2.172  23.902  0.00  0.00    +0.029 A 
ATOM     21  C   UNL     1      -2.819   4.208  25.719  0.00  0.00    +0.005 A 
ATOM     22  C   UNL     1      -1.406   3.292  23.986  0.00  0.00    +0.005 A 
ATOM     23  C   UNL     1      -1.699   4.310  24.894  0.00  0.00    -0.050 A 
ATOM     26  C   UNL     1      -0.813   5.507  24.982  0.00  0.00    +0.044 C 
ENDBRANCH   1  16
ENDBRANCH   7   1
ENDBRANCH  13   7
ENDBRANCH  11  13
TORSDOF 8
ENDMDL
MODEL 3
REMARK VINA RESULT:      -4.1      1.181      1.729
REMARK  Name = 75536833
REMARK  9 active torsions:
REMARK  status: ('A' for Active; 'I' for Inactive)
REMARK    1  A    between atoms: S_1  and  N_7
REMARK    2  A    between atoms: S_1  and  C_16
REMARK    3  A    between atoms: O_3  and  C_10
REMARK    4  A    between atoms: N_6  and  C_9
REMARK    5  A    between atoms: N_6  and  C_14
REMARK    6  A    between atoms: N_7  and  C_13
REMARK    7  A    between atoms: C_11  and  C_13
REMARK    8  A    between atoms: C_14  and  C_15
REMARK    9  A    between atoms: C_23  and  C_26
REMARK                            x       y       z     vdW  Elec       q    Type
REMARK                         _______ _______ _______ _____ _____    ______ ____
ROOT
ATOM      2  O   UNL     1      -1.979   4.024  26.062  0.00  0.00    -0.371 OA
ATOM      9  C   UNL     1      -0.767   2.277  25.004  0.00  0.00    +0.111 C 
ATOM     10  C   UNL     1      -2.113   2.432  24.319  0.00  0.00    +0.164 C 
ATOM     11  C   UNL     1      -2.489   3.849  24.730  0.00  0.00    +0.164 C 
ATOM     12  C   UNL     1      -1.020   2.986  26.325  0.00  0.00    +0.181 C 
ENDROOT
BRANCH  10   3
ATOM      3  O   UNL     1      -2.028   2.295  22.914  0.00  0.00    -0.388 OA
ATOM     29  H   UNL     1      -2.620   1.573  22.641  0.00  0.00    +0.210 HD
ENDBRANCH  10   3
BRANCH   9   6
ATOM      6  N   UNL     1      -0.356   0.893  25.175  0.00  0.00    -0.305 NA
ATOM     27  H   UNL     1      -1.005   0.429  25.809  0.00  0.00    +0.123 HD
BRANCH   6  14
ATOM     14  C   UNL     1      -0.355   0.185  23.899  0.00  0.00    +0.116 C 
BRANCH  14  15
ATOM      8  N   UNL     1       3.452   0.459  21.919  0.00  0.00    -0.263 NA
ATOM     15  C   UNL     1       0.977   0.281  23.206  0.00  0.00    -0.031 A 
ATOM     17  C   UNL     1       1.230  -0.479  22.069  0.00  0.00    +0.024 A 
ATOM     18  C   UNL     1       1.962   1.130  23.700  0.00  0.00    +0.024 A 
ATOM     24  C   UNL     1       2.471  -0.354  21.467  0.00  0.00    +0.111 A 
ATOM     25  C   UNL     1       3.171   1.183  23.025  0.00  0.00    +0.111 A 
ENDBRANCH  14  15
ENDBRANCH   6  14
ENDBRANCH   9   6
BRANCH  11  13
ATOM     13  C   UNL     1      -3.987   4.099  24.717  0.00  0.00    +0.140 C 
BRANCH  13   7
ATOM      7  N   UNL     1      -4.676   2.943  24.111  0.00  0.00    -0.187 NA
ATOM     28  H   UNL     1      -4.944   3.049  23.124  0.00  0.00    +0.148 HD
BRANCH   7   1
ATOM      1  S   UNL     1      -5.586   1.885  25.086  0.00  0.00    +0.058 S 
ATOM      4  O   UNL     1      -6.880   1.658  24.470  0.00  0.00    -0.153 OA
ATOM      5  O   UNL     1      -5.501   2.325  26.465  0.00  0.00    -0.153 OA
BRANCH   1  16
ATOM     16  C   UNL     1      -4.654   0.388  24.963  0.00  0.00    +0.105 A 
ATOM     19  C   UNL     1      -4.623  -0.316  23.759  0.00  0.00    +0.029 A 
ATOM     20  C   UNL     1      -3.953  -0.090  26.070  0.00  0.00    +0.029 A 
ATOM     21  C   UNL     1      -3.889  -1.498  23.663  0.00  0.00    +0.005 A 
ATOM     22  C   UNL     1      -3.220  -1.273  25.973  0.00  0.00    +0.005 A 
ATOM     23  C   UNL     1      -3.188  -1.977  24.769  0.00  0.00    -0.050 A 
ATOM     26  C   UNL     1      -2.404  -3.242  24.666  0.00  0.00    +0.044 C 
ENDBRANCH   1  16
ENDBRANCH   7   1
ENDBRANCH  13   7
ENDBRANCH  11  13
TORSDOF 8
ENDMDL
MODEL 4
REMARK VINA RESULT:      -3.6      2.538      5.660
REMARK  Name = 75536833
REMARK  9 active torsions:
REMARK  status: ('A' for Active; 'I' for Inactive)
REMARK    1  A    between atoms: S_1  and  N_7
REMARK    2  A    between atoms: S_1  and  C_16
REMARK    3  A    between atoms: O_3  and  C_10
REMARK    4  A    between atoms: N_6  and  C_9
REMARK    5  A    between atoms: N_6  and  C_14
REMARK    6  A    between atoms: N_7  and  C_13
REMARK    7  A    between atoms: C_11  and  C_13
REMARK    8  A    between atoms: C_14  and  C_15
REMARK    9  A    between atoms: C_23  and  C_26
REMARK                            x       y       z     vdW  Elec       q    Type
REMARK                         _______ _______ _______ _____ _____    ______ ____
ROOT
ATOM      2  O   UNL     1      -2.579   3.430  23.588  0.00  0.00    -0.371 OA
ATOM      9  C   UNL     1      -4.728   2.615  24.187  0.00  0.00    +0.111 C 
ATOM     10  C   UNL     1      -4.158   3.409  25.348  0.00  0.00    +0.164 C 
ATOM     11  C   UNL     1      -3.110   4.255  24.638  0.00  0.00    +0.164 C 
ATOM     12  C   UNL     1      -3.473   2.324  23.379  0.00  0.00    +0.181 C 
ENDROOT
BRANCH  10   3
ATOM      3  O   UNL     1      -5.133   4.207  25.992  0.00  0.00    -0.388 OA
ATOM     29  H   UNL     1      -5.519   3.690  26.719  0.00  0.00    +0.210 HD
ENDBRANCH  10   3
BRANCH   9   6
ATOM      6  N   UNL     1      -5.430   1.409  24.594  0.00  0.00    -0.305 NA
ATOM     27  H   UNL     1      -5.509   0.784  23.792  0.00  0.00    +0.123 HD
BRANCH   6  14
ATOM     14  C   UNL     1      -4.713   0.719  25.661  0.00  0.00    +0.116 C 
BRANCH  14  15
ATOM      8  N   UNL     1      -3.134  -3.059  24.349  0.00  0.00    -0.263 NA
ATOM     15  C   UNL     1      -4.161  -0.603  25.201  0.00  0.00    -0.031 A 
ATOM     17  C   UNL     1      -4.577  -1.153  23.993  0.00  0.00    +0.024 A 
ATOM     18  C   UNL     1      -3.231  -1.281  25.984  0.00  0.00    +0.024 A 
ATOM     24  C   UNL     1      -4.038  -2.372  23.615  0.00  0.00    +0.111 A 
ATOM     25  C   UNL     1      -2.753  -2.494  25.516  0.00  0.00    +0.111 A 
ENDBRANCH  14  15
ENDBRANCH   6  14
ENDBRANCH   9   6
BRANCH  11  13
ATOM     13  C   UNL     1      -1.987   4.709  25.553  0.00  0.00    +0.140 C 
BRANCH  13   7
ATOM      7  N   UNL     1      -0.745   3.990  25.207  0.00  0.00    -0.187 NA
ATOM     28  H   UNL     1      -0.400   4.130  24.250  0.00  0.00    +0.148 HD
BRANCH   7   1
ATOM      1  S   UNL     1      -0.349   2.541  26.006  0.00  0.00    +0.058 S 
ATOM      4  O   UNL     1      -1.557   1.945  26.547  0.00  0.00    -0.153 OA
ATOM      5  O   UNL     1       0.797   2.773  26.865  0.00  0.00    -0.153 OA
BRANCH   1  16
ATOM     16  C   UNL     1       0.206   1.529  24.667  0.00  0.00    +0.105 A 
ATOM     19  C   UNL     1       1.408   1.823  24.024  0.00  0.00    +0.029 A 
ATOM     20  C   UNL     1      -0.560   0.439  24.254  0.00  0.00    +0.029 A 
ATOM     21  C   UNL     1       1.844   1.026  22.966  0.00  0.00    +0.005 A 
ATOM     22  C   UNL     1      -0.122  -0.358  23.195  0.00  0.00    +0.005 A 
ATOM     23  C   UNL     1       1.079  -0.064  22.551  0.00  0.00    -0.050 A 
ATOM     26  C   UNL     1       1.547  -0.916  21.419  0.00  0.00    +0.044 C 
ENDBRANCH   1  16
ENDBRANCH   7   1
ENDBRANCH  13   7
ENDBRANCH  11  13
TORSDOF 8
ENDMDL
MODEL 5
REMARK VINA RESULT:      -3.6      2.763      5.387
REMARK  Name = 75536833
REMARK  9 active torsions:
REMARK  status: ('A' for Active; 'I' for Inactive)
REMARK    1  A    between atoms: S_1  and  N_7
REMARK    2  A    between atoms: S_1  and  C_16
REMARK    3  A    between atoms: O_3  and  C_10
REMARK    4  A    between atoms: N_6  and  C_9
REMARK    5  A    between atoms: N_6  and  C_14
REMARK    6  A    between atoms: N_7  and  C_13
REMARK    7  A    between atoms: C_11  and  C_13
REMARK    8  A    between atoms: C_14  and  C_15
REMARK    9  A    between atoms: C_23  and  C_26
REMARK                            x       y       z     vdW  Elec       q    Type
REMARK                         _______ _______ _______ _____ _____    ______ ____
ROOT
ATOM      2  O   UNL     1       0.634   0.649  22.795  0.00  0.00    -0.371 OA
ATOM      9  C   UNL     1      -0.316  -0.742  24.469  0.00  0.00    +0.111 C 
ATOM     10  C   UNL     1      -0.233   0.680  24.994  0.00  0.00    +0.164 C 
ATOM     11  C   UNL     1      -0.131   1.466  23.695  0.00  0.00    +0.164 C 
ATOM     12  C   UNL     1       0.669  -0.692  23.312  0.00  0.00    +0.181 C 
ENDROOT
BRANCH  10   3
ATOM      3  O   UNL     1      -1.372   1.049  25.747  0.00  0.00    -0.388 OA
ATOM     29  H   UNL     1      -1.838   1.757  25.270  0.00  0.00    +0.210 HD
ENDBRANCH  10   3
BRANCH   9   6
ATOM      6  N   UNL     1       0.025  -1.750  25.459  0.00  0.00    -0.305 NA
ATOM     27  H   UNL     1       0.122  -1.302  26.370  0.00  0.00    +0.123 HD
BRANCH   6  14
ATOM     14  C   UNL     1      -1.012  -2.773  25.546  0.00  0.00    +0.116 C 
BRANCH  14  15
ATOM      8  N   UNL     1      -4.843  -1.278  24.289  0.00  0.00    -0.263 NA
ATOM     15  C   UNL     1      -2.353  -2.250  25.105  0.00  0.00    -0.031 A 
ATOM     17  C   UNL     1      -2.971  -2.774  23.975  0.00  0.00    +0.024 A 
ATOM     18  C   UNL     1      -2.980  -1.240  25.828  0.00  0.00    +0.024 A 
ATOM     24  C   UNL     1      -4.205  -2.259  23.613  0.00  0.00    +0.111 A 
ATOM     25  C   UNL     1      -4.213  -0.793  25.382  0.00  0.00    +0.111 A 
ENDBRANCH  14  15
ENDBRANCH   6  14
ENDBRANCH   9   6
BRANCH  11  13
ATOM     13  C   UNL     1       0.543   2.816  23.863  0.00  0.00    +0.140 C 
BRANCH  13   7
ATOM      7  N   UNL     1      -0.467   3.889  23.779  0.00  0.00    -0.187 NA
ATOM     28  H   UNL     1      -0.362   4.541  22.992  0.00  0.00    +0.148 HD
BRANCH   7   1
ATOM      1  S   UNL     1      -1.243   4.441  25.189  0.00  0.00    +0.058 S 
ATOM      4  O   UNL     1      -1.422   5.879  25.106  0.00  0.00    -0.153 OA
ATOM      5  O   UNL     1      -0.597   3.852  26.345  0.00  0.00    -0.153 OA
BRANCH   1  16
ATOM     16  C   UNL     1      -2.835   3.685  25.046  0.00  0.00    +0.105 A 
ATOM     19  C   UNL     1      -3.738   3.757  26.106  0.00  0.00    +0.029 A 
ATOM     20  C   UNL     1      -3.185   3.014  23.874  0.00  0.00    +0.029 A 
ATOM     21  C   UNL     1      -4.993   3.160  25.994  0.00  0.00    +0.005 A 
ATOM     22  C   UNL     1      -4.441   2.416  23.762  0.00  0.00    +0.005 A 
ATOM     23  C   UNL     1      -5.344   2.488  24.822  0.00  0.00    -0.050 A 
ATOM     26  C   UNL     1      -6.686   1.848  24.703  0.00  0.00    +0.044 C 
ENDBRANCH   1  16
ENDBRANCH   7   1
ENDBRANCH  13   7
ENDBRANCH  11  13
TORSDOF 8
ENDMDL
MODEL 6
REMARK VINA RESULT:      -3.5      3.204      7.084
REMARK  Name = 75536833
REMARK  9 active torsions:
REMARK  status: ('A' for Active; 'I' for Inactive)
REMARK    1  A    between atoms: S_1  and  N_7
REMARK    2  A    between atoms: S_1  and  C_16
REMARK    3  A    between atoms: O_3  and  C_10
REMARK    4  A    between atoms: N_6  and  C_9
REMARK    5  A    between atoms: N_6  and  C_14
REMARK    6  A    between atoms: N_7  and  C_13
REMARK    7  A    between atoms: C_11  and  C_13
REMARK    8  A    between atoms: C_14  and  C_15
REMARK    9  A    between atoms: C_23  and  C_26
REMARK                            x       y       z     vdW  Elec       q    Type
REMARK                         _______ _______ _______ _____ _____    ______ ____
ROOT
ATOM      2  O   UNL     1      -1.604  -1.061  26.275  0.00  0.00    -0.371 OA
ATOM      9  C   UNL     1      -3.677  -1.405  25.168  0.00  0.00    +0.111 C 
ATOM     10  C   UNL     1      -2.584  -2.139  24.413  0.00  0.00    +0.164 C 
ATOM     11  C   UNL     1      -1.514  -2.262  25.490  0.00  0.00    +0.164 C 
ATOM     12  C   UNL     1      -2.862  -0.425  25.996  0.00  0.00    +0.181 C 
ENDROOT
BRANCH  10   3
ATOM      3  O   UNL     1      -3.004  -3.405  23.940  0.00  0.00    -0.388 OA
ATOM     29  H   UNL     1      -2.313  -3.757  23.354  0.00  0.00    +0.210 HD
ENDBRANCH  10   3
BRANCH   9   6
ATOM      6  N   UNL     1      -4.644  -0.749  24.304  0.00  0.00    -0.305 NA
ATOM     27  H   UNL     1      -5.491  -0.559  24.838  0.00  0.00    +0.123 HD
BRANCH   6  14
ATOM     14  C   UNL     1      -4.118   0.510  23.789  0.00  0.00    +0.116 C 
BRANCH  14  15
ATOM      8  N   UNL     1      -5.802   3.902  25.826  0.00  0.00    -0.263 NA
ATOM     15  C   UNL     1      -4.707   1.697  24.503  0.00  0.00    -0.031 A 
ATOM     17  C   UNL     1      -5.648   1.511  25.509  0.00  0.00    +0.024 A 
ATOM     18  C   UNL     1      -4.313   2.986  24.157  0.00  0.00    +0.024 A 
ATOM     24  C   UNL     1      -6.160   2.636  26.135  0.00  0.00    +0.111 A 
ATOM     25  C   UNL     1      -4.885   4.044  24.843  0.00  0.00    +0.111 A 
ENDBRANCH  14  15
ENDBRANCH   6  14
ENDBRANCH   9   6
BRANCH  11  13
ATOM     13  C   UNL     1      -0.111  -2.404  24.928  0.00  0.00    +0.140 C 
BRANCH  13   7
ATOM      7  N   UNL     1       0.555  -1.087  24.919  0.00  0.00    -0.187 NA
ATOM     28  H   UNL     1       0.584  -0.596  25.821  0.00  0.00    +0.148 HD
BRANCH   7   1
ATOM      1  S   UNL     1       0.596  -0.162  23.492  0.00  0.00    +0.058 S 
ATOM      4  O   UNL     1      -0.343  -0.715  22.534  0.00  0.00    -0.153 OA
ATOM      5  O   UNL     1       1.979   0.060  23.113  0.00  0.00    -0.153 OA
BRANCH   1  16
ATOM     16  C   UNL     1      -0.042   1.390  24.048  0.00  0.00    +0.105 A 
ATOM     19  C   UNL     1      -0.784   2.189  23.179  0.00  0.00    +0.029 A 
ATOM     20  C   UNL     1       0.199   1.815  25.355  0.00  0.00    +0.029 A 
ATOM     21  C   UNL     1      -1.287   3.414  23.618  0.00  0.00    +0.005 A 
ATOM     22  C   UNL     1      -0.303   3.041  25.792  0.00  0.00    +0.005 A 
ATOM     23  C   UNL     1      -1.046   3.841  24.924  0.00  0.00    -0.050 A 
ATOM     26  C   UNL     1      -1.582   5.152  25.392  0.00  0.00    +0.044 C 
ENDBRANCH   1  16
ENDBRANCH   7   1
ENDBRANCH  13   7
ENDBRANCH  11  13
TORSDOF 8
ENDMDL
MODEL 7
REMARK VINA RESULT:      -3.2      2.201      6.671
REMARK  Name = 75536833
REMARK  9 active torsions:
REMARK  status: ('A' for Active; 'I' for Inactive)
REMARK    1  A    between atoms: S_1  and  N_7
REMARK    2  A    between atoms: S_1  and  C_16
REMARK    3  A    between atoms: O_3  and  C_10
REMARK    4  A    between atoms: N_6  and  C_9
REMARK    5  A    between atoms: N_6  and  C_14
REMARK    6  A    between atoms: N_7  and  C_13
REMARK    7  A    between atoms: C_11  and  C_13
REMARK    8  A    between atoms: C_14  and  C_15
REMARK    9  A    between atoms: C_23  and  C_26
REMARK                            x       y       z     vdW  Elec       q    Type
REMARK                         _______ _______ _______ _____ _____    ______ ____
ROOT
ATOM      2  O   UNL     1      -1.846   2.566  22.870  0.00  0.00    -0.371 OA
ATOM      9  C   UNL     1      -3.357   2.748  24.693  0.00  0.00    +0.111 C 
ATOM     10  C   UNL     1      -1.941   2.648  25.231  0.00  0.00    +0.164 C 
ATOM     11  C   UNL     1      -1.134   3.071  24.012  0.00  0.00    +0.164 C 
ATOM     12  C   UNL     1      -3.178   2.217  23.280  0.00  0.00    +0.181 C 
ENDROOT
BRANCH  10   3
ATOM      3  O   UNL     1      -1.716   3.502  26.335  0.00  0.00    -0.388 OA
ATOM     29  H   UNL     1      -1.714   2.962  27.144  0.00  0.00    +0.210 HD
ENDBRANCH  10   3
BRANCH   9   6
ATOM      6  N   UNL     1      -4.328   1.989  25.464  0.00  0.00    -0.305 NA
ATOM     27  H   UNL     1      -5.034   2.628  25.830  0.00  0.00    +0.123 HD
BRANCH   6  14
ATOM     14  C   UNL     1      -4.987   0.985  24.635  0.00  0.00    +0.116 C 
BRANCH  14  15
ATOM      8  N   UNL     1      -3.130  -2.874  25.021  0.00  0.00    -0.263 NA
ATOM     15  C   UNL     1      -4.337  -0.366  24.770  0.00  0.00    -0.031 A 
ATOM     17  C   UNL     1      -4.485  -1.316  23.765  0.00  0.00    +0.024 A 
ATOM     18  C   UNL     1      -3.586  -0.669  25.901  0.00  0.00    +0.024 A 
ATOM     24  C   UNL     1      -3.866  -2.543  23.937  0.00  0.00    +0.111 A 
ATOM     25  C   UNL     1      -3.008  -1.926  25.977  0.00  0.00    +0.111 A 
ENDBRANCH  14  15
ENDBRANCH   6  14
ENDBRANCH   9   6
BRANCH  11  13
ATOM     13  C   UNL     1       0.284   2.528  24.014  0.00  0.00    +0.140 C 
BRANCH  13   7
ATOM      7  N   UNL     1       0.283   1.143  24.523  0.00  0.00    -0.187 NA
ATOM     28  H   UNL     1       0.532   1.031  25.515  0.00  0.00    +0.148 HD
BRANCH   7   1
ATOM      1  S   UNL     1       0.580  -0.156  23.464  0.00  0.00    +0.058 S 
ATOM      4  O   UNL     1       0.083   0.181  22.143  0.00  0.00    -0.153 OA
ATOM      5  O   UNL     1       0.170  -1.391  24.105  0.00  0.00    -0.153 OA
BRANCH   1  16
ATOM     16  C   UNL     1       2.346  -0.171  23.395  0.00  0.00    +0.105 A 
ATOM     19  C   UNL     1       3.050  -1.298  23.818  0.00  0.00    +0.029 A 
ATOM     20  C   UNL     1       3.035   0.946  22.921  0.00  0.00    +0.029 A 
ATOM     21  C   UNL     1       4.443  -1.310  23.765  0.00  0.00    +0.005 A 
ATOM     22  C   UNL     1       4.429   0.934  22.869  0.00  0.00    +0.005 A 
ATOM     23  C   UNL     1       5.133  -0.194  23.292  0.00  0.00    -0.050 A 
ATOM     26  C   UNL     1       6.624  -0.206  23.237  0.00  0.00    +0.044 C 
ENDBRANCH   1  16
ENDBRANCH   7   1
ENDBRANCH  13   7
ENDBRANCH  11  13
TORSDOF 8
ENDMDL
MODEL 8
REMARK VINA RESULT:      -2.5      2.373      3.772
REMARK  Name = 75536833
REMARK  9 active torsions:
REMARK  status: ('A' for Active; 'I' for Inactive)
REMARK    1  A    between atoms: S_1  and  N_7
REMARK    2  A    between atoms: S_1  and  C_16
REMARK    3  A    between atoms: O_3  and  C_10
REMARK    4  A    between atoms: N_6  and  C_9
REMARK    5  A    between atoms: N_6  and  C_14
REMARK    6  A    between atoms: N_7  and  C_13
REMARK    7  A    between atoms: C_11  and  C_13
REMARK    8  A    between atoms: C_14  and  C_15
REMARK    9  A    between atoms: C_23  and  C_26
REMARK                            x       y       z     vdW  Elec       q    Type
REMARK                         _______ _______ _______ _____ _____    ______ ____
ROOT
ATOM      2  O   UNL     1      -0.804   2.960  26.427  0.00  0.00    -0.371 OA
ATOM      9  C   UNL     1       0.152   1.922  24.517  0.00  0.00    +0.111 C 
ATOM     10  C   UNL     1      -0.580   3.179  24.083  0.00  0.00    +0.164 C 
ATOM     11  C   UNL     1      -0.645   3.948  25.396  0.00  0.00    +0.164 C 
ATOM     12  C   UNL     1      -0.464   1.673  25.884  0.00  0.00    +0.181 C 
ENDROOT
BRANCH  10   3
ATOM      3  O   UNL     1       0.116   3.898  23.084  0.00  0.00    -0.388 OA
ATOM     29  H   UNL     1       0.080   3.385  22.258  0.00  0.00    +0.210 HD
ENDBRANCH  10   3
BRANCH   9   6
ATOM      6  N   UNL     1      -0.021   0.803  23.606  0.00  0.00    -0.305 NA
ATOM     27  H   UNL     1       0.539   0.965  22.770  0.00  0.00    +0.123 HD
BRANCH   6  14
ATOM     14  C   UNL     1       0.406  -0.448  24.224  0.00  0.00    +0.116 C 
BRANCH  14  15
ATOM      8  N   UNL     1      -2.920  -2.679  25.789  0.00  0.00    -0.263 NA
ATOM     15  C   UNL     1      -0.758  -1.229  24.771  0.00  0.00    -0.031 A 
ATOM     17  C   UNL     1      -1.193  -2.380  24.124  0.00  0.00    +0.024 A 
ATOM     18  C   UNL     1      -1.404  -0.802  25.927  0.00  0.00    +0.024 A 
ATOM     24  C   UNL     1      -2.268  -3.064  24.669  0.00  0.00    +0.111 A 
ATOM     25  C   UNL     1      -2.469  -1.556  26.391  0.00  0.00    +0.111 A 
ENDBRANCH  14  15
ENDBRANCH   6  14
ENDBRANCH   9   6
BRANCH  11  13
ATOM     13  C   UNL     1      -1.792   4.941  25.453  0.00  0.00    +0.140 C 
BRANCH  13   7
ATOM      7  N   UNL     1      -3.000   4.271  25.973  0.00  0.00    -0.187 NA
ATOM     28  H   UNL     1      -2.838   3.542  26.679  0.00  0.00    +0.148 HD
BRANCH   7   1
ATOM      1  S   UNL     1      -4.399   4.168  25.011  0.00  0.00    +0.058 S 
ATOM      4  O   UNL     1      -4.193   4.912  23.782  0.00  0.00    -0.153 OA
ATOM      5  O   UNL     1      -5.562   4.432  25.837  0.00  0.00    -0.153 OA
BRANCH   1  16
ATOM     16  C   UNL     1      -4.434   2.447  24.606  0.00  0.00    +0.105 A 
ATOM     19  C   UNL     1      -3.531   1.932  23.677  0.00  0.00    +0.029 A 
ATOM     20  C   UNL     1      -5.366   1.607  25.215  0.00  0.00    +0.029 A 
ATOM     21  C   UNL     1      -3.560   0.575  23.356  0.00  0.00    +0.005 A 
ATOM     22  C   UNL     1      -5.394   0.249  24.894  0.00  0.00    +0.005 A 
ATOM     23  C   UNL     1      -4.492  -0.267  23.964  0.00  0.00    -0.050 A 
ATOM     26  C   UNL     1      -4.523  -1.718  23.620  0.00  0.00    +0.044 C 
ENDBRANCH   1  16
ENDBRANCH   7   1
ENDBRANCH  13   7
ENDBRANCH  11  13
TORSDOF 8
ENDMDL
MODEL 9
REMARK VINA RESULT:      -2.5      2.583      7.009
REMARK  Name = 75536833
REMARK  9 active torsions:
REMARK  status: ('A' for Active; 'I' for Inactive)
REMARK    1  A    between atoms: S_1  and  N_7
REMARK    2  A    between atoms: S_1  and  C_16
REMARK    3  A    between atoms: O_3  and  C_10
REMARK    4  A    between atoms: N_6  and  C_9
REMARK    5  A    between atoms: N_6  and  C_14
REMARK    6  A    between atoms: N_7  and  C_13
REMARK    7  A    between atoms: C_11  and  C_13
REMARK    8  A    between atoms: C_14  and  C_15
REMARK    9  A    between atoms: C_23  and  C_26
REMARK                            x       y       z     vdW  Elec       q    Type
REMARK                         _______ _______ _______ _____ _____    ______ ____
ROOT
ATOM      2  O   UNL     1      -1.499  -1.024  25.914  0.00  0.00    -0.371 OA
ATOM      9  C   UNL     1      -3.786  -0.555  25.478  0.00  0.00    +0.111 C 
ATOM     10  C   UNL     1      -3.174  -1.214  24.256  0.00  0.00    +0.164 C 
ATOM     11  C   UNL     1      -1.958  -1.896  24.869  0.00  0.00    +0.164 C 
ATOM     12  C   UNL     1      -2.545  -0.085  26.219  0.00  0.00    +0.181 C 
ENDROOT
BRANCH  10   3
ATOM      3  O   UNL     1      -4.047  -2.142  23.643  0.00  0.00    -0.388 OA
ATOM     29  H   UNL     1      -4.619  -2.524  24.330  0.00  0.00    +0.210 HD
ENDBRANCH  10   3
BRANCH   9   6
ATOM      6  N   UNL     1      -4.699   0.530  25.159  0.00  0.00    -0.305 NA
ATOM     27  H   UNL     1      -4.840   1.102  25.992  0.00  0.00    +0.123 HD
BRANCH   6  14
ATOM     14  C   UNL     1      -4.162   1.373  24.096  0.00  0.00    +0.116 C 
BRANCH  14  15
ATOM      8  N   UNL     1      -1.983   4.733  25.662  0.00  0.00    -0.263 NA
ATOM     15  C   UNL     1      -3.399   2.548  24.643  0.00  0.00    -0.031 A 
ATOM     17  C   UNL     1      -2.135   2.852  24.151  0.00  0.00    +0.024 A 
ATOM     18  C   UNL     1      -3.956   3.336  25.646  0.00  0.00    +0.024 A 
ATOM     24  C   UNL     1      -1.475   3.945  24.688  0.00  0.00    +0.111 A 
ATOM     25  C   UNL     1      -3.214   4.407  26.116  0.00  0.00    +0.111 A 
ENDBRANCH  14  15
ENDBRANCH   6  14
ENDBRANCH   9   6
BRANCH  11  13
ATOM     13  C   UNL     1      -0.839  -2.136  23.871  0.00  0.00    +0.140 C 
BRANCH  13   7
ATOM      7  N   UNL     1       0.304  -1.258  24.189  0.00  0.00    -0.187 NA
ATOM     28  H   UNL     1       0.492  -1.113  25.189  0.00  0.00    +0.148 HD
BRANCH   7   1
ATOM      1  S   UNL     1       0.777  -0.044  23.094  0.00  0.00    +0.058 S 
ATOM      4  O   UNL     1       0.345   1.248  23.593  0.00  0.00    -0.153 OA
ATOM      5  O   UNL     1       0.428  -0.460  21.749  0.00  0.00    -0.153 OA
BRANCH   1  16
ATOM     16  C   UNL     1       2.539  -0.114  23.215  0.00  0.00    +0.105 A 
ATOM     19  C   UNL     1       3.308   0.986  22.835  0.00  0.00    +0.029 A 
ATOM     20  C   UNL     1       3.160  -1.271  23.687  0.00  0.00    +0.029 A 
ATOM     21  C   UNL     1       4.698   0.930  22.929  0.00  0.00    +0.005 A 
ATOM     22  C   UNL     1       4.551  -1.326  23.780  0.00  0.00    +0.005 A 
ATOM     23  C   UNL     1       5.320  -0.226  23.401  0.00  0.00    -0.050 A 
ATOM     26  C   UNL     1       6.807  -0.286  23.500  0.00  0.00    +0.044 C 
ENDBRANCH   1  16
ENDBRANCH   7   1
ENDBRANCH  13   7
ENDBRANCH  11  13
TORSDOF 8
ENDMDL
MODEL 10
REMARK VINA RESULT:      -2.5      2.047      2.694
REMARK  Name = 75536833
REMARK  9 active torsions:
REMARK  status: ('A' for Active; 'I' for Inactive)
REMARK    1  A    between atoms: S_1  and  N_7
REMARK    2  A    between atoms: S_1  and  C_16
REMARK    3  A    between atoms: O_3  and  C_10
REMARK    4  A    between atoms: N_6  and  C_9
REMARK    5  A    between atoms: N_6  and  C_14
REMARK    6  A    between atoms: N_7  and  C_13
REMARK    7  A    between atoms: C_11  and  C_13
REMARK    8  A    between atoms: C_14  and  C_15
REMARK    9  A    between atoms: C_23  and  C_26
REMARK                            x       y       z     vdW  Elec       q    Type
REMARK                         _______ _______ _______ _____ _____    ______ ____
ROOT
ATOM      2  O   UNL     1      -2.138   5.574  25.525  0.00  0.00    -0.371 OA
ATOM      9  C   UNL     1      -1.033   4.257  23.886  0.00  0.00    +0.111 C 
ATOM     10  C   UNL     1      -2.245   3.499  24.396  0.00  0.00    +0.164 C 
ATOM     11  C   UNL     1      -3.077   4.634  24.978  0.00  0.00    +0.164 C 
ATOM     12  C   UNL     1      -0.836   5.284  24.990  0.00  0.00    +0.181 C 
ENDROOT
BRANCH  10   3
ATOM      3  O   UNL     1      -2.932   2.815  23.366  0.00  0.00    -0.388 OA
ATOM     29  H   UNL     1      -3.293   1.991  23.735  0.00  0.00    +0.210 HD
ENDBRANCH  10   3
BRANCH   9   6
ATOM      6  N   UNL     1       0.135   3.417  23.679  0.00  0.00    -0.305 NA
ATOM     27  H   UNL     1       0.942   4.011  23.489  0.00  0.00    +0.123 HD
BRANCH   6  14
ATOM     14  C   UNL     1       0.415   2.607  24.860  0.00  0.00    +0.116 C 
BRANCH  14  15
ATOM      8  N   UNL     1      -0.177  -1.584  24.101  0.00  0.00    -0.263 NA
ATOM     15  C   UNL     1       0.207   1.140  24.595  0.00  0.00    -0.031 A 
ATOM     17  C   UNL     1      -0.495   0.358  25.504  0.00  0.00    +0.024 A 
ATOM     18  C   UNL     1       0.719   0.561  23.438  0.00  0.00    +0.024 A 
ATOM     24  C   UNL     1      -0.659  -0.987  25.213  0.00  0.00    +0.111 A 
ATOM     25  C   UNL     1       0.501  -0.793  23.240  0.00  0.00    +0.111 A 
ENDBRANCH  14  15
ENDBRANCH   6  14
ENDBRANCH   9   6
BRANCH  11  13
ATOM     13  C   UNL     1      -4.039   4.178  26.061  0.00  0.00    +0.140 C 
BRANCH  13   7
ATOM      7  N   UNL     1      -4.058   2.703  26.117  0.00  0.00    -0.187 NA
ATOM     28  H   UNL     1      -3.139   2.244  26.105  0.00  0.00    +0.148 HD
BRANCH   7   1
ATOM      1  S   UNL     1      -5.399   1.845  25.516  0.00  0.00    +0.058 S 
ATOM      4  O   UNL     1      -5.811   2.423  24.251  0.00  0.00    -0.153 OA
ATOM      5  O   UNL     1      -6.362   1.666  26.585  0.00  0.00    -0.153 OA
BRANCH   1  16
ATOM     16  C   UNL     1      -4.694   0.257  25.186  0.00  0.00    +0.105 A 
ATOM     19  C   UNL     1      -4.104  -0.471  26.219  0.00  0.00    +0.029 A 
ATOM     20  C   UNL     1      -4.726  -0.264  23.893  0.00  0.00    +0.029 A 
ATOM     21  C   UNL     1      -3.547  -1.723  25.958  0.00  0.00    +0.005 A 
ATOM     22  C   UNL     1      -4.167  -1.516  23.633  0.00  0.00    +0.005 A 
ATOM     23  C   UNL     1      -3.578  -2.245  24.665  0.00  0.00    -0.050 A 
ATOM     26  C   UNL     1      -2.980  -3.583  24.386  0.00  0.00    +0.044 C 
ENDBRANCH   1  16
ENDBRANCH   7   1
ENDBRANCH  13   7
ENDBRANCH  11  13
TORSDOF 8
ENDMDL
