MODEL 1
REMARK VINA RESULT:      -2.1      0.000      0.000
REMARK  Name = 11943011
REMARK  7 active torsions:
REMARK  status: ('A' for Active; 'I' for Inactive)
REMARK    1  A    between atoms: O_4  and  C_24
REMARK    2  A    between atoms: O_4  and  C_30
REMARK    3  A    between atoms: N_5  and  C_12
REMARK    4  A    between atoms: N_6  and  C_13
REMARK    5  A    between atoms: N_7  and  C_19
REMARK    6  A    between atoms: C_18  and  C_22
REMARK    7  A    between atoms: C_19  and  C_23
REMARK                            x       y       z     vdW  Elec       q    Type
REMARK                         _______ _______ _______ _____ _____    ______ ____
ROOT
ATOM      1  O   UNL     1      14.807  -9.336  26.153  0.00  0.00    -0.370 OA
ATOM      2  O   UNL     1      17.029  -7.826  27.740  0.00  0.00    -0.370 OA
ATOM     10  C   UNL     1      15.595  -7.855  27.840  0.00  0.00    +0.171 C 
ATOM     11  C   UNL     1      15.047  -7.946  26.429  0.00  0.00    +0.171 C 
ATOM     12  C   UNL     1      15.141  -9.138  28.496  0.00  0.00    +0.130 C 
ATOM     13  C   UNL     1      16.172  -7.425  25.564  0.00  0.00    +0.131 C 
ATOM     14  C   UNL     1      15.088 -10.108  27.330  0.00  0.00    +0.185 C 
ATOM     15  C   UNL     1      17.404  -7.828  26.355  0.00  0.00    +0.185 C 
ENDROOT
BRANCH  12   5
ATOM      5  N   UNL     1      13.822  -8.964  29.063  0.00  0.00    -0.306 N 
ATOM      8  N   UNL     1      14.514  -7.166  30.360  0.00  0.00    -0.214 NA
ATOM      9  N   UNL     1      12.235  -7.949  30.421  0.00  0.00    -0.223 NA
ATOM     16  C   UNL     1      13.510  -7.984  29.988  0.00  0.00    +0.216 A 
ATOM     18  C   UNL     1      14.174  -6.222  31.264  0.00  0.00    +0.080 A 
ATOM     20  C   UNL     1      11.966  -6.982  31.323  0.00  0.00    +0.116 A 
ATOM     21  C   UNL     1      12.904  -6.082  31.784  0.00  0.00    +0.048 A 
ATOM     31  H   UNL     1      13.059  -9.548  28.739  0.00  0.00    +0.149 HD
BRANCH  18  22
ATOM     22  C   UNL     1      15.247  -5.344  31.664  0.00  0.00    +0.042 A 
ATOM     24  C   UNL     1      16.299  -5.812  32.451  0.00  0.00    +0.129 A 
ATOM     25  C   UNL     1      15.224  -4.012  31.251  0.00  0.00    +0.013 A 
ATOM     26  C   UNL     1      17.327  -4.947  32.826  0.00  0.00    +0.046 A 
ATOM     27  C   UNL     1      16.251  -3.147  31.627  0.00  0.00    +0.001 A 
ATOM     29  C   UNL     1      17.303  -3.615  32.414  0.00  0.00    +0.004 A 
BRANCH  24   4
ATOM      4  O   UNL     1      16.349  -7.109  32.868  0.00  0.00    -0.494 OA
ATOM     30  C   UNL     1      17.319  -7.950  32.251  0.00  0.00    +0.277 C 
ENDBRANCH  24   4
ENDBRANCH  18  22
ENDBRANCH  12   5
BRANCH  13   6
ATOM      3  O   UNL     1      17.225  -5.847  23.389  0.00  0.00    -0.253 OA
ATOM      6  N   UNL     1      16.093  -5.993  25.411  0.00  0.00    -0.292 N 
ATOM      7  N   UNL     1      16.414  -3.938  24.427  0.00  0.00    -0.296 N 
ATOM     17  C   UNL     1      16.632  -5.309  24.323  0.00  0.00    +0.300 C 
ATOM     32  H   UNL     1      15.564  -5.462  26.096  0.00  0.00    +0.151 HD
ATOM     33  H   UNL     1      15.896  -3.585  25.227  0.00  0.00    +0.151 HD
BRANCH   7  19
ATOM     19  C   UNL     1      16.869  -2.995  23.434  0.00  0.00    +0.132 C 
BRANCH  19  23
ATOM     23  C   UNL     1      16.970  -1.642  24.056  0.00  0.00    -0.016 C 
ATOM     28  C   UNL     1      16.682  -1.387  25.337  0.00  0.00    +0.005 C 
ENDBRANCH  19  23
ENDBRANCH   7  19
ENDBRANCH  13   6
TORSDOF 6
ENDMDL
MODEL 2
REMARK VINA RESULT:      -1.0     17.589     19.305
REMARK  Name = 11943011
REMARK  7 active torsions:
REMARK  status: ('A' for Active; 'I' for Inactive)
REMARK    1  A    between atoms: O_4  and  C_24
REMARK    2  A    between atoms: O_4  and  C_30
REMARK    3  A    between atoms: N_5  and  C_12
REMARK    4  A    between atoms: N_6  and  C_13
REMARK    5  A    between atoms: N_7  and  C_19
REMARK    6  A    between atoms: C_18  and  C_22
REMARK    7  A    between atoms: C_19  and  C_23
REMARK                            x       y       z     vdW  Elec       q    Type
REMARK                         _______ _______ _______ _____ _____    ______ ____
ROOT
ATOM      1  O   UNL     1      -2.668  -2.729  24.478  0.00  0.00    -0.370 OA
ATOM      2  O   UNL     1      -1.004  -0.836  26.318  0.00  0.00    -0.370 OA
ATOM     10  C   UNL     1      -2.187  -0.646  25.523  0.00  0.00    +0.171 C 
ATOM     11  C   UNL     1      -2.017  -1.467  24.259  0.00  0.00    +0.171 C 
ATOM     12  C   UNL     1      -3.383  -1.265  26.207  0.00  0.00    +0.130 C 
ATOM     13  C   UNL     1      -0.522  -1.660  24.145  0.00  0.00    +0.131 C 
ATOM     14  C   UNL     1      -3.307  -2.714  25.763  0.00  0.00    +0.185 C 
ATOM     15  C   UNL     1      -0.083  -1.670  25.599  0.00  0.00    +0.185 C 
ENDROOT
BRANCH  12   5
ATOM      5  N   UNL     1      -4.601  -0.656  25.720  0.00  0.00    -0.306 N 
ATOM      8  N   UNL     1      -3.510   1.326  25.191  0.00  0.00    -0.214 NA
ATOM      9  N   UNL     1      -5.872   1.055  24.798  0.00  0.00    -0.223 NA
ATOM     16  C   UNL     1      -4.664   0.631  25.215  0.00  0.00    +0.216 A 
ATOM     18  C   UNL     1      -3.608   2.576  24.693  0.00  0.00    +0.080 A 
ATOM     20  C   UNL     1      -5.899   2.314  24.312  0.00  0.00    +0.116 A 
ATOM     21  C   UNL     1      -4.787   3.128  24.234  0.00  0.00    +0.048 A 
ATOM     31  H   UNL     1      -5.455  -1.202  25.691  0.00  0.00    +0.149 HD
BRANCH  18  22
ATOM     22  C   UNL     1      -2.374   3.323  24.666  0.00  0.00    +0.042 A 
ATOM     24  C   UNL     1      -1.296   2.895  23.892  0.00  0.00    +0.129 A 
ATOM     25  C   UNL     1      -2.268   4.487  25.426  0.00  0.00    +0.013 A 
ATOM     26  C   UNL     1      -0.111   3.631  23.879  0.00  0.00    +0.046 A 
ATOM     27  C   UNL     1      -1.083   5.224  25.413  0.00  0.00    +0.001 A 
ATOM     29  C   UNL     1      -0.005   4.796  24.639  0.00  0.00    +0.004 A 
BRANCH  24   4
ATOM      4  O   UNL     1      -1.371   1.761  23.139  0.00  0.00    -0.494 OA
ATOM     30  C   UNL     1      -2.217   1.800  21.994  0.00  0.00    +0.277 C 
ENDBRANCH  24   4
ENDBRANCH  18  22
ENDBRANCH  12   5
BRANCH  13   6
ATOM      3  O   UNL     1       2.271  -1.374  23.476  0.00  0.00    -0.253 OA
ATOM      6  N   UNL     1       0.092  -0.574  23.421  0.00  0.00    -0.292 N 
ATOM      7  N   UNL     1       1.779   0.637  22.430  0.00  0.00    -0.296 N 
ATOM     17  C   UNL     1       1.457  -0.516  23.140  0.00  0.00    +0.300 C 
ATOM     32  H   UNL     1      -0.506   0.153  23.040  0.00  0.00    +0.151 HD
ATOM     33  H   UNL     1       1.035   1.281  22.179  0.00  0.00    +0.151 HD
BRANCH   7  19
ATOM     19  C   UNL     1       3.125   0.946  22.010  0.00  0.00    +0.132 C 
BRANCH  19  23
ATOM     23  C   UNL     1       4.022   0.934  23.203  0.00  0.00    -0.016 C 
ATOM     28  C   UNL     1       5.176   0.258  23.262  0.00  0.00    +0.005 C 
ENDBRANCH  19  23
ENDBRANCH   7  19
ENDBRANCH  13   6
TORSDOF 6
ENDMDL
