MODEL 1
REMARK VINA RESULT:       2.7      0.000      0.000
REMARK  Name = 28960198
REMARK  13 active torsions:
REMARK  status: ('A' for Active; 'I' for Inactive)
REMARK    1  A    between atoms: O_2  and  C_18
REMARK    2  A    between atoms: O_5  and  C_36
REMARK    3  A    between atoms: O_5  and  C_37
REMARK    4  A    between atoms: N_7  and  C_16
REMARK    5  A    between atoms: N_7  and  C_19
REMARK    6  A    between atoms: N_7  and  C_21
REMARK    7  A    between atoms: N_8  and  C_20
REMARK    8  A    between atoms: C_9  and  C_13
REMARK    9  A    between atoms: C_10  and  C_15
REMARK   10  A    between atoms: C_13  and  C_16
REMARK   11  A    between atoms: C_15  and  C_18
REMARK   12  A    between atoms: C_17  and  C_22
REMARK   13  A    between atoms: C_19  and  C_20
REMARK                            x       y       z     vdW  Elec       q    Type
REMARK                         _______ _______ _______ _____ _____    ______ ____
ROOT
ATOM      1  O   UNL     1      -5.490   0.837  26.831  0.00  0.00    -0.270 OA
ATOM      6  N   UNL     1      -4.926   1.996  24.879  0.00  0.00    -0.297 N 
ATOM      9  C   UNL     1      -3.205   3.033  23.416  0.00  0.00    +0.012 C 
ATOM     10  C   UNL     1      -3.666   4.422  23.926  0.00  0.00    +0.006 C 
ATOM     11  C   UNL     1      -4.288   4.332  25.330  0.00  0.00    +0.023 C 
ATOM     12  C   UNL     1      -4.365   2.025  23.521  0.00  0.00    +0.112 C 
ATOM     14  C   UNL     1      -5.398   3.286  25.375  0.00  0.00    +0.108 C 
ATOM     17  C   UNL     1      -5.026   0.865  25.693  0.00  0.00    +0.247 C 
ENDROOT
BRANCH  17  22
ATOM     22  C   UNL     1      -4.541  -0.414  25.160  0.00  0.00    +0.037 A 
ATOM     27  C   UNL     1      -3.956  -1.348  26.014  0.00  0.00    +0.016 A 
ATOM     28  C   UNL     1      -4.665  -0.695  23.800  0.00  0.00    +0.016 A 
ATOM     33  C   UNL     1      -3.493  -2.563  25.508  0.00  0.00    +0.046 A 
ATOM     34  C   UNL     1      -4.204  -1.909  23.293  0.00  0.00    +0.046 A 
ATOM     36  C   UNL     1      -3.618  -2.843  24.147  0.00  0.00    +0.120 A 
BRANCH  36   5
ATOM      5  O   UNL     1      -3.168  -4.029  23.653  0.00  0.00    -0.495 OA
ATOM     37  C   UNL     1      -1.848  -4.047  23.111  0.00  0.00    +0.277 C 
ENDBRANCH  36   5
ENDBRANCH  17  22
BRANCH   9  13
ATOM     13  C   UNL     1      -1.961   2.489  24.130  0.00  0.00    +0.024 C 
BRANCH  13  16
ATOM     16  C   UNL     1      -0.772   2.344  23.193  0.00  0.00    +0.105 C 
BRANCH  16   7
ATOM      7  N   UNL     1       0.189   1.407  23.724  0.00  0.00    -0.329 N 
BRANCH   7  21
ATOM     21  C   UNL     1      -0.176   0.445  24.676  0.00  0.00    +0.030 A 
ATOM     25  C   UNL     1      -0.108  -0.911  24.359  0.00  0.00    +0.023 A 
ATOM     26  C   UNL     1      -0.608   0.845  25.941  0.00  0.00    +0.023 A 
ATOM     31  C   UNL     1      -0.472  -1.868  25.307  0.00  0.00    +0.002 A 
ATOM     32  C   UNL     1      -0.972  -0.111  26.888  0.00  0.00    +0.002 A 
ATOM     35  C   UNL     1      -0.904  -1.468  26.571  0.00  0.00    +0.000 A 
ENDBRANCH   7  21
BRANCH   7  19
ATOM     19  C   UNL     1       1.573   1.481  23.252  0.00  0.00    +0.120 C 
BRANCH  19  20
ATOM     20  C   UNL     1       1.913   0.224  22.460  0.00  0.00    +0.103 C 
BRANCH  20   8
ATOM      4  O   UNL     1       5.592  -0.506  24.340  0.00  0.00    -0.377 OA
ATOM      8  N   UNL     1       3.305  -0.156  22.682  0.00  0.00    -0.297 NA
ATOM     23  C   UNL     1       3.397  -1.266  23.641  0.00  0.00    +0.112 C 
ATOM     24  C   UNL     1       4.088   0.990  23.163  0.00  0.00    +0.112 C 
ATOM     29  C   UNL     1       4.859  -1.637  23.867  0.00  0.00    +0.175 C 
ATOM     30  C   UNL     1       5.536   0.566  23.399  0.00  0.00    +0.175 C 
ENDBRANCH  20   8
ENDBRANCH  19  20
ENDBRANCH   7  19
ENDBRANCH  16   7
ENDBRANCH  13  16
ENDBRANCH   9  13
BRANCH  10  15
ATOM     15  C   UNL     1      -2.554   5.471  23.895  0.00  0.00    +0.124 C 
BRANCH  15  18
ATOM      3  O   UNL     1      -1.862   4.922  26.168  0.00  0.00    -0.251 OA
ATOM     18  C   UNL     1      -1.591   5.293  25.035  0.00  0.00    +0.305 C 
BRANCH  18   2
ATOM      2  O   UNL     1      -0.335   5.610  24.626  0.00  0.00    -0.481 OA
ATOM     38  H   UNL     1       0.070   4.888  24.097  0.00  0.00    +0.295 HD
ENDBRANCH  18   2
ENDBRANCH  15  18
ENDBRANCH  10  15
TORSDOF 12
ENDMDL
MODEL 2
REMARK VINA RESULT:       3.4      1.950      3.498
REMARK  Name = 28960198
REMARK  13 active torsions:
REMARK  status: ('A' for Active; 'I' for Inactive)
REMARK    1  A    between atoms: O_2  and  C_18
REMARK    2  A    between atoms: O_5  and  C_36
REMARK    3  A    between atoms: O_5  and  C_37
REMARK    4  A    between atoms: N_7  and  C_16
REMARK    5  A    between atoms: N_7  and  C_19
REMARK    6  A    between atoms: N_7  and  C_21
REMARK    7  A    between atoms: N_8  and  C_20
REMARK    8  A    between atoms: C_9  and  C_13
REMARK    9  A    between atoms: C_10  and  C_15
REMARK   10  A    between atoms: C_13  and  C_16
REMARK   11  A    between atoms: C_15  and  C_18
REMARK   12  A    between atoms: C_17  and  C_22
REMARK   13  A    between atoms: C_19  and  C_20
REMARK                            x       y       z     vdW  Elec       q    Type
REMARK                         _______ _______ _______ _____ _____    ______ ____
ROOT
ATOM      1  O   UNL     1      -5.651   0.879  26.871  0.00  0.00    -0.270 OA
ATOM      6  N   UNL     1      -5.086   2.071  24.939  0.00  0.00    -0.297 N 
ATOM      9  C   UNL     1      -3.379   3.218  23.543  0.00  0.00    +0.012 C 
ATOM     10  C   UNL     1      -3.951   4.574  24.029  0.00  0.00    +0.006 C 
ATOM     11  C   UNL     1      -4.621   4.445  25.408  0.00  0.00    +0.023 C 
ATOM     12  C   UNL     1      -4.474   2.136  23.605  0.00  0.00    +0.112 C 
ATOM     14  C   UNL     1      -5.662   3.328  25.412  0.00  0.00    +0.108 C 
ATOM     17  C   UNL     1      -5.144   0.936  25.752  0.00  0.00    +0.247 C 
ENDROOT
BRANCH  17  22
ATOM     22  C   UNL     1      -4.556  -0.308  25.244  0.00  0.00    +0.037 A 
ATOM     27  C   UNL     1      -3.610  -0.994  26.006  0.00  0.00    +0.016 A 
ATOM     28  C   UNL     1      -4.941  -0.804  23.999  0.00  0.00    +0.016 A 
ATOM     33  C   UNL     1      -3.049  -2.176  25.522  0.00  0.00    +0.046 A 
ATOM     34  C   UNL     1      -4.381  -1.986  23.515  0.00  0.00    +0.046 A 
ATOM     36  C   UNL     1      -3.435  -2.672  24.277  0.00  0.00    +0.120 A 
BRANCH  36   5
ATOM      5  O   UNL     1      -2.889  -3.826  23.805  0.00  0.00    -0.495 OA
ATOM     37  C   UNL     1      -1.567  -3.748  23.271  0.00  0.00    +0.277 C 
ENDBRANCH  36   5
ENDBRANCH  17  22
BRANCH   9  13
ATOM     13  C   UNL     1      -2.132   2.757  24.308  0.00  0.00    +0.024 C 
BRANCH  13  16
ATOM     16  C   UNL     1      -1.714   1.343  23.937  0.00  0.00    +0.105 C 
BRANCH  16   7
ATOM      7  N   UNL     1      -0.428   1.021  24.507  0.00  0.00    -0.329 N 
BRANCH   7  21
ATOM     21  C   UNL     1       0.680   0.734  23.698  0.00  0.00    +0.030 A 
ATOM     25  C   UNL     1       1.858   1.466  23.843  0.00  0.00    +0.023 A 
ATOM     26  C   UNL     1       0.604  -0.283  22.746  0.00  0.00    +0.023 A 
ATOM     31  C   UNL     1       2.960   1.181  23.035  0.00  0.00    +0.002 A 
ATOM     32  C   UNL     1       1.705  -0.568  21.940  0.00  0.00    +0.002 A 
ATOM     35  C   UNL     1       2.883   0.164  22.084  0.00  0.00    +0.000 A 
ENDBRANCH   7  21
BRANCH   7  19
ATOM     19  C   UNL     1      -0.296   0.991  25.965  0.00  0.00    +0.120 C 
BRANCH  19  20
ATOM     20  C   UNL     1       0.138   2.362  26.469  0.00  0.00    +0.103 C 
BRANCH  20   8
ATOM      4  O   UNL     1       2.237   3.237  29.996  0.00  0.00    -0.377 OA
ATOM      8  N   UNL     1       0.998   2.225  27.641  0.00  0.00    -0.297 NA
ATOM     23  C   UNL     1       0.235   2.443  28.878  0.00  0.00    +0.112 C 
ATOM     24  C   UNL     1       2.126   3.164  27.573  0.00  0.00    +0.112 C 
ATOM     29  C   UNL     1       1.156   2.307  30.087  0.00  0.00    +0.175 C 
ATOM     30  C   UNL     1       3.003   3.010  28.813  0.00  0.00    +0.175 C 
ENDBRANCH  20   8
ENDBRANCH  19  20
ENDBRANCH   7  19
ENDBRANCH  16   7
ENDBRANCH  13  16
ENDBRANCH   9  13
BRANCH  10  15
ATOM     15  C   UNL     1      -2.910   5.694  24.039  0.00  0.00    +0.124 C 
BRANCH  15  18
ATOM      3  O   UNL     1      -0.598   5.462  24.776  0.00  0.00    -0.251 OA
ATOM     18  C   UNL     1      -1.796   5.408  25.008  0.00  0.00    +0.305 C 
BRANCH  18   2
ATOM      2  O   UNL     1      -2.317   5.070  26.216  0.00  0.00    -0.481 OA
ATOM     38  H   UNL     1      -2.951   5.744  26.542  0.00  0.00    +0.295 HD
ENDBRANCH  18   2
ENDBRANCH  15  18
ENDBRANCH  10  15
TORSDOF 12
ENDMDL
MODEL 3
REMARK VINA RESULT:       3.4      1.813      5.165
REMARK  Name = 28960198
REMARK  13 active torsions:
REMARK  status: ('A' for Active; 'I' for Inactive)
REMARK    1  A    between atoms: O_2  and  C_18
REMARK    2  A    between atoms: O_5  and  C_36
REMARK    3  A    between atoms: O_5  and  C_37
REMARK    4  A    between atoms: N_7  and  C_16
REMARK    5  A    between atoms: N_7  and  C_19
REMARK    6  A    between atoms: N_7  and  C_21
REMARK    7  A    between atoms: N_8  and  C_20
REMARK    8  A    between atoms: C_9  and  C_13
REMARK    9  A    between atoms: C_10  and  C_15
REMARK   10  A    between atoms: C_13  and  C_16
REMARK   11  A    between atoms: C_15  and  C_18
REMARK   12  A    between atoms: C_17  and  C_22
REMARK   13  A    between atoms: C_19  and  C_20
REMARK                            x       y       z     vdW  Elec       q    Type
REMARK                         _______ _______ _______ _____ _____    ______ ____
ROOT
ATOM      1  O   UNL     1      -6.062  -0.823  23.823  0.00  0.00    -0.270 OA
ATOM      6  N   UNL     1      -4.121  -1.149  25.088  0.00  0.00    -0.297 N 
ATOM      9  C   UNL     1      -1.653  -0.968  25.323  0.00  0.00    +0.012 C 
ATOM     10  C   UNL     1      -1.556  -2.492  25.061  0.00  0.00    +0.006 C 
ATOM     11  C   UNL     1      -2.742  -3.000  24.224  0.00  0.00    +0.023 C 
ATOM     12  C   UNL     1      -3.030  -0.626  25.922  0.00  0.00    +0.112 C 
ATOM     14  C   UNL     1      -4.073  -2.590  24.849  0.00  0.00    +0.108 C 
ATOM     17  C   UNL     1      -5.151  -0.390  24.527  0.00  0.00    +0.247 C 
ENDROOT
BRANCH  17  22
ATOM     22  C   UNL     1      -5.165   1.054  24.788  0.00  0.00    +0.037 A 
ATOM     27  C   UNL     1      -4.337   1.904  24.055  0.00  0.00    +0.016 A 
ATOM     28  C   UNL     1      -6.005   1.576  25.771  0.00  0.00    +0.016 A 
ATOM     33  C   UNL     1      -4.349   3.276  24.304  0.00  0.00    +0.046 A 
ATOM     34  C   UNL     1      -6.019   2.948  26.021  0.00  0.00    +0.046 A 
ATOM     36  C   UNL     1      -5.191   3.798  25.287  0.00  0.00    +0.120 A 
BRANCH  36   5
ATOM      5  O   UNL     1      -5.204   5.137  25.530  0.00  0.00    -0.495 OA
ATOM     37  C   UNL     1      -6.467   5.797  25.458  0.00  0.00    +0.277 C 
ENDBRANCH  36   5
ENDBRANCH  17  22
BRANCH   9  13
ATOM     13  C   UNL     1      -1.383  -0.104  24.085  0.00  0.00    +0.024 C 
BRANCH  13  16
ATOM     16  C   UNL     1       0.083  -0.113  23.681  0.00  0.00    +0.105 C 
BRANCH  16   7
ATOM      7  N   UNL     1       0.662   1.202  23.820  0.00  0.00    -0.329 N 
BRANCH   7  21
ATOM     21  C   UNL     1      -0.033   2.245  24.447  0.00  0.00    +0.030 A 
ATOM     25  C   UNL     1      -0.314   3.418  23.746  0.00  0.00    +0.023 A 
ATOM     26  C   UNL     1      -0.445   2.111  25.773  0.00  0.00    +0.023 A 
ATOM     31  C   UNL     1      -1.005   4.456  24.372  0.00  0.00    +0.002 A 
ATOM     32  C   UNL     1      -1.136   3.147  26.398  0.00  0.00    +0.002 A 
ATOM     35  C   UNL     1      -1.416   4.320  25.698  0.00  0.00    +0.000 A 
ENDBRANCH   7  21
BRANCH   7  19
ATOM     19  C   UNL     1       2.004   1.437  23.283  0.00  0.00    +0.120 C 
BRANCH  19  20
ATOM     20  C   UNL     1       2.389   0.298  22.347  0.00  0.00    +0.103 C 
BRANCH  20   8
ATOM      4  O   UNL     1       5.883  -0.687  24.451  0.00  0.00    -0.377 OA
ATOM      8  N   UNL     1       3.734  -0.180  22.654  0.00  0.00    -0.297 NA
ATOM     23  C   UNL     1       3.686  -1.290  23.617  0.00  0.00    +0.112 C 
ATOM     24  C   UNL     1       4.567   0.908  23.183  0.00  0.00    +0.112 C 
ATOM     29  C   UNL     1       5.101  -1.765  23.933  0.00  0.00    +0.175 C 
ATOM     30  C   UNL     1       5.963   0.382  23.508  0.00  0.00    +0.175 C 
ENDBRANCH  20   8
ENDBRANCH  19  20
ENDBRANCH   7  19
ENDBRANCH  16   7
ENDBRANCH  13  16
ENDBRANCH   9  13
BRANCH  10  15
ATOM     15  C   UNL     1      -0.230  -2.908  24.424  0.00  0.00    +0.124 C 
BRANCH  15  18
ATOM      3  O   UNL     1       2.108  -2.895  25.116  0.00  0.00    -0.251 OA
ATOM     18  C   UNL     1       0.929  -2.680  25.354  0.00  0.00    +0.305 C 
BRANCH  18   2
ATOM      2  O   UNL     1       0.476  -2.186  26.536  0.00  0.00    -0.481 OA
ATOM     38  H   UNL     1      -0.048  -1.365  26.411  0.00  0.00    +0.295 HD
ENDBRANCH  18   2
ENDBRANCH  15  18
ENDBRANCH  10  15
TORSDOF 12
ENDMDL
MODEL 4
REMARK VINA RESULT:       3.5      2.460      5.854
REMARK  Name = 28960198
REMARK  13 active torsions:
REMARK  status: ('A' for Active; 'I' for Inactive)
REMARK    1  A    between atoms: O_2  and  C_18
REMARK    2  A    between atoms: O_5  and  C_36
REMARK    3  A    between atoms: O_5  and  C_37
REMARK    4  A    between atoms: N_7  and  C_16
REMARK    5  A    between atoms: N_7  and  C_19
REMARK    6  A    between atoms: N_7  and  C_21
REMARK    7  A    between atoms: N_8  and  C_20
REMARK    8  A    between atoms: C_9  and  C_13
REMARK    9  A    between atoms: C_10  and  C_15
REMARK   10  A    between atoms: C_13  and  C_16
REMARK   11  A    between atoms: C_15  and  C_18
REMARK   12  A    between atoms: C_17  and  C_22
REMARK   13  A    between atoms: C_19  and  C_20
REMARK                            x       y       z     vdW  Elec       q    Type
REMARK                         _______ _______ _______ _____ _____    ______ ____
ROOT
ATOM      1  O   UNL     1      -4.358  -1.781  23.706  0.00  0.00    -0.270 OA
ATOM      6  N   UNL     1      -2.289  -0.981  24.450  0.00  0.00    -0.297 N 
ATOM      9  C   UNL     1      -0.342   0.537  24.162  0.00  0.00    +0.012 C 
ATOM     10  C   UNL     1       0.480  -0.677  23.658  0.00  0.00    +0.006 C 
ATOM     11  C   UNL     1      -0.425  -1.753  23.035  0.00  0.00    +0.023 C 
ATOM     12  C   UNL     1      -1.470   0.055  25.093  0.00  0.00    +0.112 C 
ATOM     14  C   UNL     1      -1.545  -2.153  23.991  0.00  0.00    +0.108 C 
ATOM     17  C   UNL     1      -3.670  -0.918  24.249  0.00  0.00    +0.247 C 
ENDROOT
BRANCH  17  22
ATOM     22  C   UNL     1      -4.382   0.274  24.723  0.00  0.00    +0.037 A 
ATOM     27  C   UNL     1      -4.293   1.469  24.009  0.00  0.00    +0.016 A 
ATOM     28  C   UNL     1      -5.147   0.213  25.888  0.00  0.00    +0.016 A 
ATOM     33  C   UNL     1      -4.968   2.603  24.459  0.00  0.00    +0.046 A 
ATOM     34  C   UNL     1      -5.822   1.346  26.339  0.00  0.00    +0.046 A 
ATOM     36  C   UNL     1      -5.734   2.541  25.624  0.00  0.00    +0.120 A 
BRANCH  36   5
ATOM      5  O   UNL     1      -6.394   3.647  26.064  0.00  0.00    -0.495 OA
ATOM     37  C   UNL     1      -6.244   4.841  25.296  0.00  0.00    +0.277 C 
ENDBRANCH  36   5
ENDBRANCH  17  22
BRANCH   9  13
ATOM     13  C   UNL     1      -0.915   1.411  23.040  0.00  0.00    +0.024 C 
BRANCH  13  16
ATOM     16  C   UNL     1      -0.431   2.850  23.121  0.00  0.00    +0.105 C 
BRANCH  16   7
ATOM      7  N   UNL     1      -0.312   3.276  24.495  0.00  0.00    -0.329 N 
BRANCH   7  21
ATOM     21  C   UNL     1      -1.305   4.051  25.110  0.00  0.00    +0.030 A 
ATOM     25  C   UNL     1      -1.483   5.382  24.736  0.00  0.00    +0.023 A 
ATOM     26  C   UNL     1      -2.117   3.489  26.097  0.00  0.00    +0.023 A 
ATOM     31  C   UNL     1      -2.472   6.153  25.350  0.00  0.00    +0.002 A 
ATOM     32  C   UNL     1      -3.105   4.259  26.709  0.00  0.00    +0.002 A 
ATOM     35  C   UNL     1      -3.282   5.590  26.336  0.00  0.00    +0.000 A 
ENDBRANCH   7  21
BRANCH   7  19
ATOM     19  C   UNL     1       0.882   2.887  25.248  0.00  0.00    +0.120 C 
BRANCH  19  20
ATOM     20  C   UNL     1       0.477   2.057  26.459  0.00  0.00    +0.103 C 
BRANCH  20   8
ATOM      4  O   UNL     1       2.397   2.584  30.153  0.00  0.00    -0.377 OA
ATOM      8  N   UNL     1       0.979   2.670  27.687  0.00  0.00    -0.297 NA
ATOM     23  C   UNL     1       2.447   2.628  27.728  0.00  0.00    +0.112 C 
ATOM     24  C   UNL     1       0.424   1.999  28.870  0.00  0.00    +0.112 C 
ATOM     29  C   UNL     1       2.948   3.262  29.023  0.00  0.00    +0.175 C 
ATOM     30  C   UNL     1       0.971   2.648  30.138  0.00  0.00    +0.175 C 
ENDBRANCH  20   8
ENDBRANCH  19  20
ENDBRANCH   7  19
ENDBRANCH  16   7
ENDBRANCH  13  16
ENDBRANCH   9  13
BRANCH  10  15
ATOM     15  C   UNL     1       1.596  -0.284  22.690  0.00  0.00    +0.124 C 
BRANCH  15  18
ATOM      3  O   UNL     1       3.502  -1.389  23.733  0.00  0.00    -0.251 OA
ATOM     18  C   UNL     1       2.950  -0.374  23.337  0.00  0.00    +0.305 C 
BRANCH  18   2
ATOM      2  O   UNL     1       3.496   0.866  23.428  0.00  0.00    -0.481 OA
ATOM     38  H   UNL     1       3.564   1.301  22.550  0.00  0.00    +0.295 HD
ENDBRANCH  18   2
ENDBRANCH  15  18
ENDBRANCH  10  15
TORSDOF 12
ENDMDL
MODEL 5
REMARK VINA RESULT:       3.7      2.352      5.707
REMARK  Name = 28960198
REMARK  13 active torsions:
REMARK  status: ('A' for Active; 'I' for Inactive)
REMARK    1  A    between atoms: O_2  and  C_18
REMARK    2  A    between atoms: O_5  and  C_36
REMARK    3  A    between atoms: O_5  and  C_37
REMARK    4  A    between atoms: N_7  and  C_16
REMARK    5  A    between atoms: N_7  and  C_19
REMARK    6  A    between atoms: N_7  and  C_21
REMARK    7  A    between atoms: N_8  and  C_20
REMARK    8  A    between atoms: C_9  and  C_13
REMARK    9  A    between atoms: C_10  and  C_15
REMARK   10  A    between atoms: C_13  and  C_16
REMARK   11  A    between atoms: C_15  and  C_18
REMARK   12  A    between atoms: C_17  and  C_22
REMARK   13  A    between atoms: C_19  and  C_20
REMARK                            x       y       z     vdW  Elec       q    Type
REMARK                         _______ _______ _______ _____ _____    ______ ____
ROOT
ATOM      1  O   UNL     1      -2.983  -2.784  23.699  0.00  0.00    -0.270 OA
ATOM      6  N   UNL     1      -1.257  -1.415  24.486  0.00  0.00    -0.297 N 
ATOM      9  C   UNL     1       0.143   0.626  24.255  0.00  0.00    +0.012 C 
ATOM     10  C   UNL     1       1.296  -0.271  23.736  0.00  0.00    +0.006 C 
ATOM     11  C   UNL     1       0.762  -1.556  23.079  0.00  0.00    +0.023 C 
ATOM     12  C   UNL     1      -0.793  -0.196  25.161  0.00  0.00    +0.112 C 
ATOM     14  C   UNL     1      -0.192  -2.297  24.013  0.00  0.00    +0.108 C 
ATOM     17  C   UNL     1      -2.591  -1.767  24.269  0.00  0.00    +0.247 C 
ENDROOT
BRANCH  17  22
ATOM     22  C   UNL     1      -3.633  -0.857  24.758  0.00  0.00    +0.037 A 
ATOM     27  C   UNL     1      -3.870  -0.740  26.128  0.00  0.00    +0.016 A 
ATOM     28  C   UNL     1      -4.386  -0.108  23.854  0.00  0.00    +0.016 A 
ATOM     33  C   UNL     1      -4.860   0.125  26.593  0.00  0.00    +0.046 A 
ATOM     34  C   UNL     1      -5.376   0.756  24.318  0.00  0.00    +0.046 A 
ATOM     36  C   UNL     1      -5.613   0.873  25.688  0.00  0.00    +0.120 A 
BRANCH  36   5
ATOM      5  O   UNL     1      -6.580   1.718  26.142  0.00  0.00    -0.495 OA
ATOM     37  C   UNL     1      -6.994   1.560  27.498  0.00  0.00    +0.277 C 
ENDBRANCH  36   5
ENDBRANCH  17  22
BRANCH   9  13
ATOM     13  C   UNL     1      -0.661   1.312  23.144  0.00  0.00    +0.024 C 
BRANCH  13  16
ATOM     16  C   UNL     1      -0.532   2.827  23.185  0.00  0.00    +0.105 C 
BRANCH  16   7
ATOM      7  N   UNL     1      -0.900   3.339  24.484  0.00  0.00    -0.329 N 
BRANCH   7  21
ATOM     21  C   UNL     1      -2.236   3.611  24.810  0.00  0.00    +0.030 A 
ATOM     25  C   UNL     1      -3.212   3.613  23.814  0.00  0.00    +0.023 A 
ATOM     26  C   UNL     1      -2.590   3.881  26.133  0.00  0.00    +0.023 A 
ATOM     31  C   UNL     1      -4.541   3.885  24.140  0.00  0.00    +0.002 A 
ATOM     32  C   UNL     1      -3.918   4.153  26.458  0.00  0.00    +0.002 A 
ATOM     35  C   UNL     1      -4.894   4.154  25.462  0.00  0.00    +0.000 A 
ENDBRANCH   7  21
BRANCH   7  19
ATOM     19  C   UNL     1       0.157   3.579  25.468  0.00  0.00    +0.120 C 
BRANCH  19  20
ATOM     20  C   UNL     1       0.221   2.413  26.446  0.00  0.00    +0.103 C 
BRANCH  20   8
ATOM      4  O   UNL     1       2.416   2.363  30.023  0.00  0.00    -0.377 OA
ATOM      8  N   UNL     1       0.838   2.836  27.701  0.00  0.00    -0.297 NA
ATOM     23  C   UNL     1       2.302   2.725  27.626  0.00  0.00    +0.112 C 
ATOM     24  C   UNL     1       0.330   2.040  28.826  0.00  0.00    +0.112 C 
ATOM     29  C   UNL     1       2.923   3.159  28.950  0.00  0.00    +0.175 C 
ATOM     30  C   UNL     1       0.998   2.491  30.123  0.00  0.00    +0.175 C 
ENDBRANCH  20   8
ENDBRANCH  19  20
ENDBRANCH   7  19
ENDBRANCH  16   7
ENDBRANCH  13  16
ENDBRANCH   9  13
BRANCH  10  15
ATOM     15  C   UNL     1       2.247   0.462  22.791  0.00  0.00    +0.124 C 
BRANCH  15  18
ATOM      3  O   UNL     1       4.553   1.136  23.204  0.00  0.00    -0.251 OA
ATOM     18  C   UNL     1       3.683   0.278  23.195  0.00  0.00    +0.305 C 
BRANCH  18   2
ATOM      2  O   UNL     1       3.893  -1.013  23.562  0.00  0.00    -0.481 OA
ATOM     38  H   UNL     1       3.238  -1.314  24.229  0.00  0.00    +0.295 HD
ENDBRANCH  18   2
ENDBRANCH  15  18
ENDBRANCH  10  15
TORSDOF 12
ENDMDL
MODEL 6
REMARK VINA RESULT:       5.0      2.447      5.207
REMARK  Name = 28960198
REMARK  13 active torsions:
REMARK  status: ('A' for Active; 'I' for Inactive)
REMARK    1  A    between atoms: O_2  and  C_18
REMARK    2  A    between atoms: O_5  and  C_36
REMARK    3  A    between atoms: O_5  and  C_37
REMARK    4  A    between atoms: N_7  and  C_16
REMARK    5  A    between atoms: N_7  and  C_19
REMARK    6  A    between atoms: N_7  and  C_21
REMARK    7  A    between atoms: N_8  and  C_20
REMARK    8  A    between atoms: C_9  and  C_13
REMARK    9  A    between atoms: C_10  and  C_15
REMARK   10  A    between atoms: C_13  and  C_16
REMARK   11  A    between atoms: C_15  and  C_18
REMARK   12  A    between atoms: C_17  and  C_22
REMARK   13  A    between atoms: C_19  and  C_20
REMARK                            x       y       z     vdW  Elec       q    Type
REMARK                         _______ _______ _______ _____ _____    ______ ____
ROOT
ATOM      1  O   UNL     1       0.816   3.650  24.358  0.00  0.00    -0.270 OA
ATOM      6  N   UNL     1      -1.379   3.694  25.166  0.00  0.00    -0.297 N 
ATOM      9  C   UNL     1      -3.434   2.487  25.873  0.00  0.00    +0.012 C 
ATOM     10  C   UNL     1      -4.084   2.885  24.524  0.00  0.00    +0.006 C 
ATOM     11  C   UNL     1      -3.026   3.108  23.429  0.00  0.00    +0.023 C 
ATOM     12  C   UNL     1      -2.350   3.512  26.254  0.00  0.00    +0.112 C 
ATOM     14  C   UNL     1      -1.960   4.100  23.888  0.00  0.00    +0.108 C 
ATOM     17  C   UNL     1       0.001   3.505  25.268  0.00  0.00    +0.247 C 
ENDROOT
BRANCH  17  22
ATOM     22  C   UNL     1       0.548   3.097  26.567  0.00  0.00    +0.037 A 
ATOM     27  C   UNL     1       1.843   3.471  26.927  0.00  0.00    +0.016 A 
ATOM     28  C   UNL     1      -0.227   2.336  27.442  0.00  0.00    +0.016 A 
ATOM     33  C   UNL     1       2.363   3.082  28.162  0.00  0.00    +0.046 A 
ATOM     34  C   UNL     1       0.292   1.948  28.676  0.00  0.00    +0.046 A 
ATOM     36  C   UNL     1       1.587   2.321  29.036  0.00  0.00    +0.120 A 
BRANCH  36   5
ATOM      5  O   UNL     1       2.094   1.943  30.242  0.00  0.00    -0.495 OA
ATOM     37  C   UNL     1       1.207   1.980  31.359  0.00  0.00    +0.277 C 
ENDBRANCH  36   5
ENDBRANCH  17  22
BRANCH   9  13
ATOM     13  C   UNL     1      -2.854   1.068  25.891  0.00  0.00    +0.024 C 
BRANCH  13  16
ATOM     16  C   UNL     1      -1.481   0.994  25.240  0.00  0.00    +0.105 C 
BRANCH  16   7
ATOM      7  N   UNL     1      -1.258  -0.308  24.658  0.00  0.00    -0.329 N 
BRANCH   7  21
ATOM     21  C   UNL     1      -2.312  -1.208  24.452  0.00  0.00    +0.030 A 
ATOM     25  C   UNL     1      -3.469  -0.789  23.795  0.00  0.00    +0.023 A 
ATOM     26  C   UNL     1      -2.205  -2.523  24.906  0.00  0.00    +0.023 A 
ATOM     31  C   UNL     1      -4.519  -1.686  23.592  0.00  0.00    +0.002 A 
ATOM     32  C   UNL     1      -3.254  -3.419  24.703  0.00  0.00    +0.002 A 
ATOM     35  C   UNL     1      -4.411  -3.000  24.046  0.00  0.00    +0.000 A 
ENDBRANCH   7  21
BRANCH   7  19
ATOM     19  C   UNL     1       0.107  -0.683  24.284  0.00  0.00    +0.120 C 
BRANCH  19  20
ATOM     20  C   UNL     1       0.590   0.207  23.145  0.00  0.00    +0.103 C 
BRANCH  20   8
ATOM      4  O   UNL     1       4.760  -0.066  23.533  0.00  0.00    -0.377 OA
ATOM      8  N   UNL     1       1.996  -0.061  22.852  0.00  0.00    -0.297 NA
ATOM     23  C   UNL     1       2.551  -1.034  23.803  0.00  0.00    +0.112 C 
ATOM     24  C   UNL     1       2.782   1.180  22.886  0.00  0.00    +0.112 C 
ATOM     29  C   UNL     1       4.022  -1.289  23.485  0.00  0.00    +0.175 C 
ATOM     30  C   UNL     1       4.247   0.873  22.589  0.00  0.00    +0.175 C 
ENDBRANCH  20   8
ENDBRANCH  19  20
ENDBRANCH   7  19
ENDBRANCH  16   7
ENDBRANCH  13  16
ENDBRANCH   9  13
BRANCH  10  15
ATOM     15  C   UNL     1      -5.145   1.889  24.053  0.00  0.00    +0.124 C 
BRANCH  15  18
ATOM      3  O   UNL     1      -6.238   1.865  26.231  0.00  0.00    -0.251 OA
ATOM     18  C   UNL     1      -6.300   1.813  25.012  0.00  0.00    +0.305 C 
BRANCH  18   2
ATOM      2  O   UNL     1      -7.460   1.673  24.320  0.00  0.00    -0.481 OA
ATOM     38  H   UNL     1      -7.298   1.522  23.363  0.00  0.00    +0.295 HD
ENDBRANCH  18   2
ENDBRANCH  15  18
ENDBRANCH  10  15
TORSDOF 12
ENDMDL
MODEL 7
REMARK VINA RESULT:       5.3      1.451      5.182
REMARK  Name = 28960198
REMARK  13 active torsions:
REMARK  status: ('A' for Active; 'I' for Inactive)
REMARK    1  A    between atoms: O_2  and  C_18
REMARK    2  A    between atoms: O_5  and  C_36
REMARK    3  A    between atoms: O_5  and  C_37
REMARK    4  A    between atoms: N_7  and  C_16
REMARK    5  A    between atoms: N_7  and  C_19
REMARK    6  A    between atoms: N_7  and  C_21
REMARK    7  A    between atoms: N_8  and  C_20
REMARK    8  A    between atoms: C_9  and  C_13
REMARK    9  A    between atoms: C_10  and  C_15
REMARK   10  A    between atoms: C_13  and  C_16
REMARK   11  A    between atoms: C_15  and  C_18
REMARK   12  A    between atoms: C_17  and  C_22
REMARK   13  A    between atoms: C_19  and  C_20
REMARK                            x       y       z     vdW  Elec       q    Type
REMARK                         _______ _______ _______ _____ _____    ______ ____
ROOT
ATOM      1  O   UNL     1      -6.275   0.761  24.726  0.00  0.00    -0.270 OA
ATOM      6  N   UNL     1      -4.125   0.366  25.560  0.00  0.00    -0.297 N 
ATOM      9  C   UNL     1      -1.720  -0.119  25.160  0.00  0.00    +0.012 C 
ATOM     10  C   UNL     1      -1.987  -1.587  25.580  0.00  0.00    +0.006 C 
ATOM     11  C   UNL     1      -3.449  -1.992  25.325  0.00  0.00    +0.023 C 
ATOM     12  C   UNL     1      -2.750   0.812  25.826  0.00  0.00    +0.112 C 
ATOM     14  C   UNL     1      -4.416  -1.005  25.974  0.00  0.00    +0.108 C 
ATOM     17  C   UNL     1      -5.125   1.132  24.956  0.00  0.00    +0.247 C 
ENDROOT
BRANCH  17  22
ATOM     22  C   UNL     1      -4.795   2.504  24.553  0.00  0.00    +0.037 A 
ATOM     27  C   UNL     1      -5.068   3.568  25.414  0.00  0.00    +0.016 A 
ATOM     28  C   UNL     1      -4.209   2.745  23.311  0.00  0.00    +0.016 A 
ATOM     33  C   UNL     1      -4.756   4.872  25.031  0.00  0.00    +0.046 A 
ATOM     34  C   UNL     1      -3.896   4.048  22.928  0.00  0.00    +0.046 A 
ATOM     36  C   UNL     1      -4.169   5.112  23.788  0.00  0.00    +0.120 A 
BRANCH  36   5
ATOM      5  O   UNL     1      -3.864   6.385  23.415  0.00  0.00    -0.495 OA
ATOM     37  C   UNL     1      -2.500   6.788  23.539  0.00  0.00    +0.277 C 
ENDBRANCH  36   5
ENDBRANCH  17  22
BRANCH   9  13
ATOM     13  C   UNL     1      -1.706   0.102  23.643  0.00  0.00    +0.024 C 
BRANCH  13  16
ATOM     16  C   UNL     1      -0.303   0.032  23.060  0.00  0.00    +0.105 C 
BRANCH  16   7
ATOM      7  N   UNL     1       0.511   1.121  23.546  0.00  0.00    -0.329 N 
BRANCH   7  21
ATOM     21  C   UNL     1      -0.003   2.081  24.428  0.00  0.00    +0.030 A 
ATOM     25  C   UNL     1       0.176   1.934  25.803  0.00  0.00    +0.023 A 
ATOM     26  C   UNL     1      -0.697   3.185  23.929  0.00  0.00    +0.023 A 
ATOM     31  C   UNL     1      -0.337   2.891  26.679  0.00  0.00    +0.002 A 
ATOM     32  C   UNL     1      -1.210   4.141  24.805  0.00  0.00    +0.002 A 
ATOM     35  C   UNL     1      -1.030   3.994  26.180  0.00  0.00    +0.000 A 
ENDBRANCH   7  21
BRANCH   7  19
ATOM     19  C   UNL     1       1.901   1.212  23.094  0.00  0.00    +0.120 C 
BRANCH  19  20
ATOM     20  C   UNL     1       2.293  -0.075  22.379  0.00  0.00    +0.103 C 
BRANCH  20   8
ATOM      4  O   UNL     1       5.903  -0.623  24.447  0.00  0.00    -0.377 OA
ATOM      8  N   UNL     1       3.679  -0.422  22.682  0.00  0.00    -0.297 NA
ATOM     23  C   UNL     1       3.743  -1.457  23.723  0.00  0.00    +0.112 C 
ATOM     24  C   UNL     1       4.433   0.765  23.107  0.00  0.00    +0.112 C 
ATOM     29  C   UNL     1       5.199  -1.795  24.031  0.00  0.00    +0.175 C 
ATOM     30  C   UNL     1       5.874   0.376  23.428  0.00  0.00    +0.175 C 
ENDBRANCH  20   8
ENDBRANCH  19  20
ENDBRANCH   7  19
ENDBRANCH  16   7
ENDBRANCH  13  16
ENDBRANCH   9  13
BRANCH  10  15
ATOM     15  C   UNL     1      -1.030  -2.582  24.924  0.00  0.00    +0.124 C 
BRANCH  15  18
ATOM      3  O   UNL     1      -2.871  -3.703  23.785  0.00  0.00    -0.251 OA
ATOM     18  C   UNL     1      -1.701  -3.353  23.821  0.00  0.00    +0.305 C 
BRANCH  18   2
ATOM      2  O   UNL     1      -0.803  -3.619  22.837  0.00  0.00    -0.481 OA
ATOM     38  H   UNL     1      -0.462  -2.797  22.422  0.00  0.00    +0.295 HD
ENDBRANCH  18   2
ENDBRANCH  15  18
ENDBRANCH  10  15
TORSDOF 12
ENDMDL
