MODEL 1
REMARK VINA RESULT:       5.9      0.000      0.000
REMARK  Name = 45361325
REMARK  10 active torsions:
REMARK  status: ('A' for Active; 'I' for Inactive)
REMARK    1  A    between atoms: O_2  and  C_10
REMARK    2  A    between atoms: N_6  and  C_28
REMARK    3  A    between atoms: N_6  and  C_29
REMARK    4  A    between atoms: C_8  and  C_16
REMARK    5  A    between atoms: C_11  and  C_17
REMARK    6  A    between atoms: C_13  and  C_20
REMARK    7  A    between atoms: C_17  and  C_21
REMARK    8  A    between atoms: C_17  and  C_22
REMARK    9  A    between atoms: C_24  and  C_27
REMARK   10  A    between atoms: C_28  and  C_30
REMARK                            x       y       z     vdW  Elec       q    Type
REMARK                         _______ _______ _______ _____ _____    ______ ____
ROOT
ATOM      1  S   UNL     1       1.393  -1.954  24.039  0.00  0.00    -0.057 S 
ATOM      4  O   UNL     1       4.161   1.559  22.621  0.00  0.00    -0.275 OA
ATOM      5  N   UNL     1       1.420   0.562  23.443  0.00  0.00    -0.229 NA
ATOM      7  N   UNL     1       3.512  -0.619  23.265  0.00  0.00    -0.264 N 
ATOM      8  C   UNL     1      -2.337  -0.569  25.080  0.00  0.00    -0.022 C 
ATOM      9  C   UNL     1      -2.388   0.586  24.003  0.00  0.00    +0.033 C 
ATOM     10  C   UNL     1      -3.528   1.598  24.311  0.00  0.00    +0.123 C 
ATOM     11  C   UNL     1      -4.896   0.912  24.524  0.00  0.00    +0.029 C 
ATOM     12  C   UNL     1      -3.735  -1.217  25.216  0.00  0.00    +0.008 C 
ATOM     13  C   UNL     1      -0.975   1.270  23.800  0.00  0.00    +0.042 C 
ATOM     14  C   UNL     1      -4.830  -0.214  25.555  0.00  0.00    +0.007 C 
ATOM     15  C   UNL     1      -1.349  -1.683  24.612  0.00  0.00    +0.051 C 
ATOM     16  C   UNL     1      -1.886  -0.048  26.469  0.00  0.00    +0.012 C 
ATOM     18  C   UNL     1       0.119   0.231  23.785  0.00  0.00    +0.057 A 
ATOM     19  C   UNL     1      -0.065  -1.084  24.160  0.00  0.00    +0.015 A 
ATOM     20  C   UNL     1      -0.895   2.134  22.533  0.00  0.00    +0.014 C 
ATOM     23  C   UNL     1       2.173  -0.512  23.529  0.00  0.00    +0.165 A 
ATOM     27  C   UNL     1       4.415   0.382  22.838  0.00  0.00    +0.222 C 
ATOM     33  H   UNL     1       3.892  -1.553  23.405  0.00  0.00    +0.157 HD
ENDROOT
BRANCH  27  24
ATOM     24  C   UNL     1       5.823  -0.088  22.644  0.00  0.00    +0.075 C 
ATOM     25  C   UNL     1       6.342  -1.208  23.496  0.00  0.00    +0.013 C 
ATOM     26  C   UNL     1       6.839   0.191  23.712  0.00  0.00    +0.013 C 
ENDBRANCH  27  24
BRANCH  10   2
ATOM      2  O   UNL     1      -3.672   2.498  23.214  0.00  0.00    -0.391 OA
ATOM     32  H   UNL     1      -3.102   3.268  23.379  0.00  0.00    +0.210 HD
ENDBRANCH  10   2
BRANCH  11  17
ATOM     17  C   UNL     1      -5.980   1.918  24.930  0.00  0.00    +0.078 C 
ATOM     21  C   UNL     1      -6.091   3.006  23.862  0.00  0.00    +0.017 C 
BRANCH  17  22
ATOM      3  O   UNL     1      -6.299   2.186  27.288  0.00  0.00    -0.275 OA
ATOM      6  N   UNL     1      -4.599   3.450  26.358  0.00  0.00    -0.301 N 
ATOM     22  C   UNL     1      -5.641   2.520  26.296  0.00  0.00    +0.219 C 
ATOM     29  C   UNL     1      -4.265   4.059  27.641  0.00  0.00    +0.132 C 
BRANCH   6  28
ATOM     28  C   UNL     1      -3.751   3.871  25.244  0.00  0.00    +0.134 C 
BRANCH  28  30
ATOM     30  C   UNL     1      -2.506   4.491  25.785  0.00  0.00    -0.016 C 
ATOM     31  C   UNL     1      -1.438   4.792  25.037  0.00  0.00    +0.005 C 
ENDBRANCH  28  30
ENDBRANCH   6  28
ENDBRANCH  17  22
ENDBRANCH  11  17
TORSDOF 6
ENDMDL
MODEL 2
REMARK VINA RESULT:       8.3      1.527      1.897
REMARK  Name = 45361325
REMARK  10 active torsions:
REMARK  status: ('A' for Active; 'I' for Inactive)
REMARK    1  A    between atoms: O_2  and  C_10
REMARK    2  A    between atoms: N_6  and  C_28
REMARK    3  A    between atoms: N_6  and  C_29
REMARK    4  A    between atoms: C_8  and  C_16
REMARK    5  A    between atoms: C_11  and  C_17
REMARK    6  A    between atoms: C_13  and  C_20
REMARK    7  A    between atoms: C_17  and  C_21
REMARK    8  A    between atoms: C_17  and  C_22
REMARK    9  A    between atoms: C_24  and  C_27
REMARK   10  A    between atoms: C_28  and  C_30
REMARK                            x       y       z     vdW  Elec       q    Type
REMARK                         _______ _______ _______ _____ _____    ______ ____
ROOT
ATOM      1  S   UNL     1       1.890  -0.621  21.672  0.00  0.00    -0.057 S 
ATOM      4  O   UNL     1       5.341   1.091  24.350  0.00  0.00    -0.275 OA
ATOM      5  N   UNL     1       2.379   0.715  23.831  0.00  0.00    -0.229 NA
ATOM      7  N   UNL     1       4.285  -0.025  22.557  0.00  0.00    -0.264 N 
ATOM      8  C   UNL     1      -1.762  -0.190  23.515  0.00  0.00    -0.022 C 
ATOM      9  C   UNL     1      -1.421   1.173  24.235  0.00  0.00    +0.033 C 
ATOM     10  C   UNL     1      -2.457   1.501  25.348  0.00  0.00    +0.123 C 
ATOM     11  C   UNL     1      -3.916   1.435  24.845  0.00  0.00    +0.029 C 
ATOM     12  C   UNL     1      -3.228  -0.167  23.023  0.00  0.00    +0.008 C 
ATOM     13  C   UNL     1       0.080   1.219  24.738  0.00  0.00    +0.042 C 
ATOM     14  C   UNL     1      -4.229   0.118  24.134  0.00  0.00    +0.007 C 
ATOM     15  C   UNL     1      -0.851  -0.366  22.260  0.00  0.00    +0.051 C 
ATOM     16  C   UNL     1      -1.565  -1.409  24.453  0.00  0.00    +0.012 C 
ATOM     18  C   UNL     1       1.004   0.627  23.701  0.00  0.00    +0.057 A 
ATOM     19  C   UNL     1       0.569  -0.087  22.604  0.00  0.00    +0.015 A 
ATOM     20  C   UNL     1       0.551   2.631  25.114  0.00  0.00    +0.014 C 
ATOM     23  C   UNL     1       2.947   0.106  22.814  0.00  0.00    +0.165 A 
ATOM     27  C   UNL     1       5.383   0.455  23.306  0.00  0.00    +0.222 C 
ATOM     33  H   UNL     1       4.498  -0.545  21.708  0.00  0.00    +0.157 HD
ENDROOT
BRANCH  27  24
ATOM     24  C   UNL     1       6.725   0.127  22.727  0.00  0.00    +0.075 C 
ATOM     25  C   UNL     1       7.160  -1.307  22.661  0.00  0.00    +0.013 C 
ATOM     26  C   UNL     1       7.810  -0.370  23.637  0.00  0.00    +0.013 C 
ENDBRANCH  27  24
BRANCH  10   2
ATOM      2  O   UNL     1      -2.235   2.826  25.827  0.00  0.00    -0.391 OA
ATOM     32  H   UNL     1      -2.256   2.802  26.799  0.00  0.00    +0.210 HD
ENDBRANCH  10   2
BRANCH  11  17
ATOM     17  C   UNL     1      -4.921   1.657  25.982  0.00  0.00    +0.078 C 
ATOM     21  C   UNL     1      -5.702   0.366  26.230  0.00  0.00    +0.017 C 
BRANCH  17  22
ATOM      3  O   UNL     1      -7.009   2.558  25.233  0.00  0.00    -0.275 OA
ATOM      6  N   UNL     1      -5.370   4.113  25.732  0.00  0.00    -0.301 N 
ATOM     22  C   UNL     1      -5.863   2.809  25.622  0.00  0.00    +0.219 C 
ATOM     29  C   UNL     1      -6.235   5.233  25.377  0.00  0.00    +0.132 C 
BRANCH   6  28
ATOM     28  C   UNL     1      -4.046   4.496  26.217  0.00  0.00    +0.134 C 
BRANCH  28  30
ATOM     30  C   UNL     1      -3.244   5.031  25.077  0.00  0.00    -0.016 C 
ATOM     31  C   UNL     1      -1.984   5.466  25.191  0.00  0.00    +0.005 C 
ENDBRANCH  28  30
ENDBRANCH   6  28
ENDBRANCH  17  22
ENDBRANCH  11  17
TORSDOF 6
ENDMDL
