MODEL 1
REMARK VINA RESULT:      -5.6      0.000      0.000
REMARK  Name = 38028580
REMARK  14 active torsions:
REMARK  status: ('A' for Active; 'I' for Inactive)
REMARK    1  A    between atoms: O_3  and  C_26
REMARK    2  A    between atoms: N_5  and  C_15
REMARK    3  A    between atoms: N_6  and  C_23
REMARK    4  A    between atoms: C_8  and  C_12
REMARK    5  A    between atoms: C_9  and  C_15
REMARK    6  A    between atoms: C_11  and  C_16
REMARK    7  A    between atoms: C_12  and  C_17
REMARK    8  A    between atoms: C_12  and  C_18
REMARK    9  A    between atoms: C_13  and  C_19
REMARK   10  A    between atoms: C_16  and  C_20
REMARK   11  A    between atoms: C_21  and  C_22
REMARK   12  A    between atoms: C_22  and  C_24
REMARK   13  A    between atoms: C_23  and  C_25
REMARK   14  A    between atoms: C_24  and  C_26
REMARK                            x       y       z     vdW  Elec       q    Type
REMARK                         _______ _______ _______ _____ _____    ______ ____
ROOT
ATOM      8  C   UNL     1      -1.173   0.340  24.631  0.00  0.00    +0.000 C 
ATOM      9  C   UNL     1      -0.378  -0.982  24.484  0.00  0.00    +0.032 C 
ATOM     10  C   UNL     1      -2.295   0.177  25.667  0.00  0.00    +0.012 C 
ATOM     11  C   UNL     1      -3.280  -0.944  25.289  0.00  0.00    +0.023 C 
ATOM     13  C   UNL     1      -2.559  -2.210  24.869  0.00  0.00    -0.073 C 
ATOM     14  C   UNL     1      -1.259  -2.209  24.526  0.00  0.00    -0.022 C 
ATOM     19  C   UNL     1      -3.355  -3.484  24.897  0.00  0.00    +0.039 C 
ENDROOT
BRANCH   8  12
ATOM     12  C   UNL     1      -0.265   1.507  25.027  0.00  0.00    -0.013 C 
ATOM     17  C   UNL     1      -0.446   2.675  24.062  0.00  0.00    +0.007 C 
ATOM     18  C   UNL     1      -0.552   1.942  26.461  0.00  0.00    +0.007 C 
ENDBRANCH   8  12
BRANCH   9  15
ATOM     15  C   UNL     1       0.447  -0.991  23.192  0.00  0.00    +0.112 C 
BRANCH  15   5
ATOM      2  O   UNL     1       2.291  -0.194  21.109  0.00  0.00    -0.276 OA
ATOM      5  N   UNL     1       1.630  -0.203  23.340  0.00  0.00    -0.315 N 
ATOM     21  C   UNL     1       2.470   0.139  22.277  0.00  0.00    +0.214 C 
ATOM     31  H   UNL     1       1.842   0.173  24.259  0.00  0.00    +0.149 HD
BRANCH  21  22
ATOM     22  C   UNL     1       3.650   0.979  22.731  0.00  0.00    +0.107 C 
BRANCH  22  24
ATOM     24  C   UNL     1       4.952   0.185  22.762  0.00  0.00    +0.129 C 
BRANCH  24  26
ATOM      4  O   UNL     1       5.811  -0.380  24.969  0.00  0.00    -0.251 OA
ATOM     26  C   UNL     1       5.081  -0.639  24.022  0.00  0.00    +0.305 C 
BRANCH  26   3
ATOM      3  O   UNL     1       4.272  -1.731  23.986  0.00  0.00    -0.481 OA
ATOM     33  H   UNL     1       4.748  -2.528  23.670  0.00  0.00    +0.295 HD
ENDBRANCH  26   3
ENDBRANCH  24  26
ENDBRANCH  22  24
ENDBRANCH  21  22
ENDBRANCH  15   5
ENDBRANCH   9  15
BRANCH  11  16
ATOM     16  C   UNL     1      -4.253  -0.481  24.199  0.00  0.00    +0.103 C 
BRANCH  16  20
ATOM      1  O   UNL     1      -3.776   1.732  23.344  0.00  0.00    -0.276 OA
ATOM      6  N   UNL     1      -5.245   1.486  25.128  0.00  0.00    -0.311 N 
ATOM     20  C   UNL     1      -4.376   1.025  24.149  0.00  0.00    +0.214 C 
ATOM     32  H   UNL     1      -5.698   0.822  25.748  0.00  0.00    +0.149 HD
BRANCH   6  23
ATOM     23  C   UNL     1      -5.552   2.885  25.315  0.00  0.00    +0.141 C 
BRANCH  23  25
ATOM      7  N   UNL     1      -2.826   5.239  24.159  0.00  0.00    -0.263 NA
ATOM     25  C   UNL     1      -4.315   3.736  25.331  0.00  0.00    -0.012 A 
ATOM     27  C   UNL     1      -3.519   3.822  26.467  0.00  0.00    +0.008 A 
ATOM     28  C   UNL     1      -3.928   4.457  24.212  0.00  0.00    +0.115 A 
ATOM     29  C   UNL     1      -2.378   4.616  26.452  0.00  0.00    +0.020 A 
ATOM     30  C   UNL     1      -2.078   5.298  25.283  0.00  0.00    +0.111 A 
ENDBRANCH  23  25
ENDBRANCH   6  23
ENDBRANCH  16  20
ENDBRANCH  11  16
TORSDOF 11
ENDMDL
MODEL 2
REMARK VINA RESULT:      -5.0      1.621      3.326
REMARK  Name = 38028580
REMARK  14 active torsions:
REMARK  status: ('A' for Active; 'I' for Inactive)
REMARK    1  A    between atoms: O_3  and  C_26
REMARK    2  A    between atoms: N_5  and  C_15
REMARK    3  A    between atoms: N_6  and  C_23
REMARK    4  A    between atoms: C_8  and  C_12
REMARK    5  A    between atoms: C_9  and  C_15
REMARK    6  A    between atoms: C_11  and  C_16
REMARK    7  A    between atoms: C_12  and  C_17
REMARK    8  A    between atoms: C_12  and  C_18
REMARK    9  A    between atoms: C_13  and  C_19
REMARK   10  A    between atoms: C_16  and  C_20
REMARK   11  A    between atoms: C_21  and  C_22
REMARK   12  A    between atoms: C_22  and  C_24
REMARK   13  A    between atoms: C_23  and  C_25
REMARK   14  A    between atoms: C_24  and  C_26
REMARK                            x       y       z     vdW  Elec       q    Type
REMARK                         _______ _______ _______ _____ _____    ______ ____
ROOT
ATOM      8  C   UNL     1      -3.421  -0.776  25.054  0.00  0.00    +0.000 C 
ATOM      9  C   UNL     1      -2.221  -0.025  24.422  0.00  0.00    +0.032 C 
ATOM     10  C   UNL     1      -4.695  -0.536  24.231  0.00  0.00    +0.012 C 
ATOM     11  C   UNL     1      -5.053   0.958  24.132  0.00  0.00    +0.023 C 
ATOM     13  C   UNL     1      -3.847   1.804  23.773  0.00  0.00    -0.073 C 
ATOM     14  C   UNL     1      -2.590   1.342  23.896  0.00  0.00    -0.022 C 
ATOM     19  C   UNL     1      -4.121   3.176  23.224  0.00  0.00    +0.039 C 
ENDROOT
BRANCH   8  12
ATOM     12  C   UNL     1      -3.152  -2.279  25.169  0.00  0.00    -0.013 C 
ATOM     17  C   UNL     1      -4.027  -3.053  24.187  0.00  0.00    +0.007 C 
ATOM     18  C   UNL     1      -1.676  -2.577  24.928  0.00  0.00    +0.007 C 
ENDBRANCH   8  12
BRANCH   9  15
ATOM     15  C   UNL     1      -1.065   0.107  25.420  0.00  0.00    +0.112 C 
BRANCH  15   5
ATOM      2  O   UNL     1       0.432  -0.817  23.123  0.00  0.00    -0.276 OA
ATOM      5  N   UNL     1       0.062   0.741  24.810  0.00  0.00    -0.315 N 
ATOM     21  C   UNL     1       0.731   0.226  23.698  0.00  0.00    +0.214 C 
ATOM     31  H   UNL     1       0.359   1.642  25.174  0.00  0.00    +0.149 HD
BRANCH  21  22
ATOM     22  C   UNL     1       1.889   1.108  23.269  0.00  0.00    +0.107 C 
BRANCH  22  24
ATOM     24  C   UNL     1       2.960   0.334  22.506  0.00  0.00    +0.129 C 
BRANCH  24  26
ATOM      4  O   UNL     1       5.034   0.868  23.662  0.00  0.00    -0.251 OA
ATOM     26  C   UNL     1       4.172   0.054  23.363  0.00  0.00    +0.305 C 
BRANCH  26   3
ATOM      3  O   UNL     1       4.199  -1.241  23.777  0.00  0.00    -0.481 OA
ATOM     33  H   UNL     1       4.631  -1.826  23.118  0.00  0.00    +0.295 HD
ENDBRANCH  26   3
ENDBRANCH  24  26
ENDBRANCH  22  24
ENDBRANCH  21  22
ENDBRANCH  15   5
ENDBRANCH   9  15
BRANCH  11  16
ATOM     16  C   UNL     1      -5.706   1.457  25.426  0.00  0.00    +0.103 C 
BRANCH  16  20
ATOM      1  O   UNL     1      -5.934   3.861  25.582  0.00  0.00    -0.276 OA
ATOM      6  N   UNL     1      -3.999   2.841  26.367  0.00  0.00    -0.311 N 
ATOM     20  C   UNL     1      -5.259   2.856  25.786  0.00  0.00    +0.214 C 
ATOM     32  H   UNL     1      -3.518   1.956  26.498  0.00  0.00    +0.149 HD
BRANCH   6  23
ATOM     23  C   UNL     1      -3.321   4.037  26.810  0.00  0.00    +0.141 C 
BRANCH  23  25
ATOM      7  N   UNL     1       0.038   3.691  25.106  0.00  0.00    -0.263 NA
ATOM     25  C   UNL     1      -2.126   4.355  25.959  0.00  0.00    -0.012 A 
ATOM     27  C   UNL     1      -2.045   5.551  25.257  0.00  0.00    +0.008 A 
ATOM     28  C   UNL     1      -1.068   3.466  25.852  0.00  0.00    +0.115 A 
ATOM     29  C   UNL     1      -0.924   5.819  24.478  0.00  0.00    +0.020 A 
ATOM     30  C   UNL     1       0.081   4.865  24.437  0.00  0.00    +0.111 A 
ENDBRANCH  23  25
ENDBRANCH   6  23
ENDBRANCH  16  20
ENDBRANCH  11  16
TORSDOF 11
ENDMDL
MODEL 3
REMARK VINA RESULT:      -4.7      1.619      4.634
REMARK  Name = 38028580
REMARK  14 active torsions:
REMARK  status: ('A' for Active; 'I' for Inactive)
REMARK    1  A    between atoms: O_3  and  C_26
REMARK    2  A    between atoms: N_5  and  C_15
REMARK    3  A    between atoms: N_6  and  C_23
REMARK    4  A    between atoms: C_8  and  C_12
REMARK    5  A    between atoms: C_9  and  C_15
REMARK    6  A    between atoms: C_11  and  C_16
REMARK    7  A    between atoms: C_12  and  C_17
REMARK    8  A    between atoms: C_12  and  C_18
REMARK    9  A    between atoms: C_13  and  C_19
REMARK   10  A    between atoms: C_16  and  C_20
REMARK   11  A    between atoms: C_21  and  C_22
REMARK   12  A    between atoms: C_22  and  C_24
REMARK   13  A    between atoms: C_23  and  C_25
REMARK   14  A    between atoms: C_24  and  C_26
REMARK                            x       y       z     vdW  Elec       q    Type
REMARK                         _______ _______ _______ _____ _____    ______ ____
ROOT
ATOM      8  C   UNL     1      -2.235   2.122  23.657  0.00  0.00    +0.000 C 
ATOM      9  C   UNL     1      -0.865   2.809  23.890  0.00  0.00    +0.032 C 
ATOM     10  C   UNL     1      -3.316   3.172  23.355  0.00  0.00    +0.012 C 
ATOM     11  C   UNL     1      -3.470   4.194  24.496  0.00  0.00    +0.023 C 
ATOM     13  C   UNL     1      -2.129   4.721  24.967  0.00  0.00    -0.073 C 
ATOM     14  C   UNL     1      -0.975   4.095  24.675  0.00  0.00    -0.022 C 
ATOM     19  C   UNL     1      -2.140   6.008  25.743  0.00  0.00    +0.039 C 
ENDROOT
BRANCH   8  12
ATOM     12  C   UNL     1      -2.172   1.100  22.518  0.00  0.00    -0.013 C 
ATOM     17  C   UNL     1      -3.318   0.100  22.637  0.00  0.00    +0.007 C 
ATOM     18  C   UNL     1      -2.209   1.806  21.167  0.00  0.00    +0.007 C 
ENDBRANCH   8  12
BRANCH   9  15
ATOM     15  C   UNL     1       0.114   1.863  24.594  0.00  0.00    +0.112 C 
BRANCH  15   5
ATOM      2  O   UNL     1       0.580  -0.614  23.172  0.00  0.00    -0.276 OA
ATOM      5  N   UNL     1       1.218   1.550  23.743  0.00  0.00    -0.315 N 
ATOM     21  C   UNL     1       1.369   0.324  23.091  0.00  0.00    +0.214 C 
ATOM     31  H   UNL     1       1.903   2.277  23.560  0.00  0.00    +0.149 HD
BRANCH  21  22
ATOM     22  C   UNL     1       2.635   0.273  22.256  0.00  0.00    +0.107 C 
BRANCH  22  24
ATOM     24  C   UNL     1       3.825   0.913  22.964  0.00  0.00    +0.129 C 
BRANCH  24  26
ATOM      4  O   UNL     1       6.061   0.017  23.319  0.00  0.00    -0.251 OA
ATOM     26  C   UNL     1       4.847  -0.115  23.392  0.00  0.00    +0.305 C 
BRANCH  26   3
ATOM      3  O   UNL     1       4.251  -1.234  23.882  0.00  0.00    -0.481 OA
ATOM     33  H   UNL     1       4.903  -1.857  24.266  0.00  0.00    +0.295 HD
ENDBRANCH  26   3
ENDBRANCH  24  26
ENDBRANCH  22  24
ENDBRANCH  21  22
ENDBRANCH  15   5
ENDBRANCH   9  15
BRANCH  11  16
ATOM     16  C   UNL     1      -4.267   3.602  25.664  0.00  0.00    +0.103 C 
BRANCH  16  20
ATOM      1  O   UNL     1      -5.924   2.195  24.603  0.00  0.00    -0.276 OA
ATOM      6  N   UNL     1      -4.228   1.220  25.856  0.00  0.00    -0.311 N 
ATOM     20  C   UNL     1      -4.917   2.287  25.300  0.00  0.00    +0.214 C 
ATOM     32  H   UNL     1      -3.400   1.396  26.418  0.00  0.00    +0.149 HD
BRANCH   6  23
ATOM     23  C   UNL     1      -4.625  -0.157  25.675  0.00  0.00    +0.141 C 
BRANCH  23  25
ATOM      7  N   UNL     1      -1.077  -1.466  25.648  0.00  0.00    -0.263 NA
ATOM     25  C   UNL     1      -3.449  -1.053  25.417  0.00  0.00    -0.012 A 
ATOM     27  C   UNL     1      -3.599  -2.255  24.735  0.00  0.00    +0.008 A 
ATOM     28  C   UNL     1      -2.178  -0.707  25.849  0.00  0.00    +0.115 A 
ATOM     29  C   UNL     1      -2.491  -3.063  24.509  0.00  0.00    +0.020 A 
ATOM     30  C   UNL     1      -1.263  -2.628  24.982  0.00  0.00    +0.111 A 
ENDBRANCH  23  25
ENDBRANCH   6  23
ENDBRANCH  16  20
ENDBRANCH  11  16
TORSDOF 11
ENDMDL
MODEL 4
REMARK VINA RESULT:      -4.5      1.947      7.563
REMARK  Name = 38028580
REMARK  14 active torsions:
REMARK  status: ('A' for Active; 'I' for Inactive)
REMARK    1  A    between atoms: O_3  and  C_26
REMARK    2  A    between atoms: N_5  and  C_15
REMARK    3  A    between atoms: N_6  and  C_23
REMARK    4  A    between atoms: C_8  and  C_12
REMARK    5  A    between atoms: C_9  and  C_15
REMARK    6  A    between atoms: C_11  and  C_16
REMARK    7  A    between atoms: C_12  and  C_17
REMARK    8  A    between atoms: C_12  and  C_18
REMARK    9  A    between atoms: C_13  and  C_19
REMARK   10  A    between atoms: C_16  and  C_20
REMARK   11  A    between atoms: C_21  and  C_22
REMARK   12  A    between atoms: C_22  and  C_24
REMARK   13  A    between atoms: C_23  and  C_25
REMARK   14  A    between atoms: C_24  and  C_26
REMARK                            x       y       z     vdW  Elec       q    Type
REMARK                         _______ _______ _______ _____ _____    ______ ____
ROOT
ATOM      8  C   UNL     1      -2.876  -1.233  24.518  0.00  0.00    +0.000 C 
ATOM      9  C   UNL     1      -3.430  -0.342  25.659  0.00  0.00    +0.032 C 
ATOM     10  C   UNL     1      -1.372  -1.478  24.711  0.00  0.00    +0.012 C 
ATOM     11  C   UNL     1      -0.567  -0.166  24.739  0.00  0.00    +0.023 C 
ATOM     13  C   UNL     1      -1.206   0.868  25.644  0.00  0.00    -0.073 C 
ATOM     14  C   UNL     1      -2.482   0.765  26.056  0.00  0.00    -0.022 C 
ATOM     19  C   UNL     1      -0.330   2.000  26.104  0.00  0.00    +0.039 C 
ENDROOT
BRANCH   8  12
ATOM     12  C   UNL     1      -3.614  -2.573  24.435  0.00  0.00    -0.013 C 
ATOM     17  C   UNL     1      -4.714  -2.511  23.380  0.00  0.00    +0.007 C 
ATOM     18  C   UNL     1      -2.635  -3.702  24.129  0.00  0.00    +0.007 C 
ENDBRANCH   8  12
BRANCH   9  15
ATOM     15  C   UNL     1      -4.788   0.260  25.281  0.00  0.00    +0.112 C 
BRANCH  15   5
ATOM      2  O   UNL     1      -6.006   2.557  26.551  0.00  0.00    -0.276 OA
ATOM      5  N   UNL     1      -4.649   1.631  24.904  0.00  0.00    -0.315 N 
ATOM     21  C   UNL     1      -5.274   2.685  25.574  0.00  0.00    +0.214 C 
ATOM     31  H   UNL     1      -4.018   1.855  24.140  0.00  0.00    +0.149 HD
BRANCH  21  22
ATOM     22  C   UNL     1      -4.947   4.030  24.952  0.00  0.00    +0.107 C 
BRANCH  22  24
ATOM     24  C   UNL     1      -3.535   4.080  24.377  0.00  0.00    +0.129 C 
BRANCH  24  26
ATOM      4  O   UNL     1      -1.488   5.145  25.149  0.00  0.00    -0.251 OA
ATOM     26  C   UNL     1      -2.526   4.549  25.398  0.00  0.00    +0.305 C 
BRANCH  26   3
ATOM      3  O   UNL     1      -2.911   4.226  26.662  0.00  0.00    -0.481 OA
ATOM     33  H   UNL     1      -2.416   4.737  27.336  0.00  0.00    +0.295 HD
ENDBRANCH  26   3
ENDBRANCH  24  26
ENDBRANCH  22  24
ENDBRANCH  21  22
ENDBRANCH  15   5
ENDBRANCH   9  15
BRANCH  11  16
ATOM     16  C   UNL     1      -0.370   0.391  23.324  0.00  0.00    +0.103 C 
BRANCH  16  20
ATOM      1  O   UNL     1       1.675   1.635  23.681  0.00  0.00    -0.276 OA
ATOM      6  N   UNL     1       1.600   0.006  22.025  0.00  0.00    -0.311 N 
ATOM     20  C   UNL     1       1.070   0.767  23.057  0.00  0.00    +0.214 C 
ATOM     32  H   UNL     1       1.020  -0.693  21.570  0.00  0.00    +0.149 HD
BRANCH   6  23
ATOM     23  C   UNL     1       2.957   0.151  21.554  0.00  0.00    +0.141 C 
BRANCH  23  25
ATOM      7  N   UNL     1       4.901  -1.645  24.257  0.00  0.00    -0.263 NA
ATOM     25  C   UNL     1       3.961  -0.112  22.640  0.00  0.00    -0.012 A 
ATOM     27  C   UNL     1       4.852   0.875  23.045  0.00  0.00    +0.008 A 
ATOM     28  C   UNL     1       4.025  -1.343  23.272  0.00  0.00    +0.115 A 
ATOM     29  C   UNL     1       5.769   0.603  24.055  0.00  0.00    +0.020 A 
ATOM     30  C   UNL     1       5.753  -0.660  24.624  0.00  0.00    +0.111 A 
ENDBRANCH  23  25
ENDBRANCH   6  23
ENDBRANCH  16  20
ENDBRANCH  11  16
TORSDOF 11
ENDMDL
MODEL 5
REMARK VINA RESULT:      -4.1      2.192      6.697
REMARK  Name = 38028580
REMARK  14 active torsions:
REMARK  status: ('A' for Active; 'I' for Inactive)
REMARK    1  A    between atoms: O_3  and  C_26
REMARK    2  A    between atoms: N_5  and  C_15
REMARK    3  A    between atoms: N_6  and  C_23
REMARK    4  A    between atoms: C_8  and  C_12
REMARK    5  A    between atoms: C_9  and  C_15
REMARK    6  A    between atoms: C_11  and  C_16
REMARK    7  A    between atoms: C_12  and  C_17
REMARK    8  A    between atoms: C_12  and  C_18
REMARK    9  A    between atoms: C_13  and  C_19
REMARK   10  A    between atoms: C_16  and  C_20
REMARK   11  A    between atoms: C_21  and  C_22
REMARK   12  A    between atoms: C_22  and  C_24
REMARK   13  A    between atoms: C_23  and  C_25
REMARK   14  A    between atoms: C_24  and  C_26
REMARK                            x       y       z     vdW  Elec       q    Type
REMARK                         _______ _______ _______ _____ _____    ______ ____
ROOT
ATOM      8  C   UNL     1      -3.290   2.550  25.379  0.00  0.00    +0.000 C 
ATOM      9  C   UNL     1      -4.260   1.907  24.355  0.00  0.00    +0.032 C 
ATOM     10  C   UNL     1      -2.212   3.369  24.653  0.00  0.00    +0.012 C 
ATOM     11  C   UNL     1      -1.390   2.512  23.673  0.00  0.00    +0.023 C 
ATOM     13  C   UNL     1      -2.276   1.642  22.805  0.00  0.00    -0.073 C 
ATOM     14  C   UNL     1      -3.560   1.394  23.119  0.00  0.00    -0.022 C 
ATOM     19  C   UNL     1      -1.665   1.100  21.543  0.00  0.00    +0.039 C 
ENDROOT
BRANCH   8  12
ATOM     12  C   UNL     1      -4.030   3.439  26.382  0.00  0.00    -0.013 C 
ATOM     17  C   UNL     1      -3.145   4.604  26.815  0.00  0.00    +0.007 C 
ATOM     18  C   UNL     1      -5.337   3.948  25.780  0.00  0.00    +0.007 C 
ENDBRANCH   8  12
BRANCH   9  15
ATOM     15  C   UNL     1      -5.065   0.770  24.995  0.00  0.00    +0.112 C 
BRANCH  15   5
ATOM      2  O   UNL     1      -4.695  -1.701  23.535  0.00  0.00    -0.276 OA
ATOM      5  N   UNL     1      -4.211  -0.321  25.345  0.00  0.00    -0.315 N 
ATOM     21  C   UNL     1      -4.090  -1.484  24.582  0.00  0.00    +0.214 C 
ATOM     31  H   UNL     1      -3.621  -0.223  26.166  0.00  0.00    +0.149 HD
BRANCH  21  22
ATOM     22  C   UNL     1      -3.115  -2.472  25.196  0.00  0.00    +0.107 C 
BRANCH  22  24
ATOM     24  C   UNL     1      -1.709  -2.336  24.622  0.00  0.00    +0.129 C 
BRANCH  24  26
ATOM      4  O   UNL     1      -1.225  -0.635  26.295  0.00  0.00    -0.251 OA
ATOM     26  C   UNL     1      -0.829  -1.461  25.484  0.00  0.00    +0.305 C 
BRANCH  26   3
ATOM      3  O   UNL     1       0.489  -1.700  25.252  0.00  0.00    -0.481 OA
ATOM     33  H   UNL     1       0.706  -1.657  24.296  0.00  0.00    +0.295 HD
ENDBRANCH  26   3
ENDBRANCH  24  26
ENDBRANCH  22  24
ENDBRANCH  21  22
ENDBRANCH  15   5
ENDBRANCH   9  15
BRANCH  11  16
ATOM     16  C   UNL     1      -0.350   1.666  24.418  0.00  0.00    +0.103 C 
BRANCH  16  20
ATOM      1  O   UNL     1       1.814   2.316  23.552  0.00  0.00    -0.276 OA
ATOM      6  N   UNL     1       0.914   0.258  22.956  0.00  0.00    -0.311 N 
ATOM     20  C   UNL     1       0.915   1.481  23.611  0.00  0.00    +0.214 C 
ATOM     32  H   UNL     1       0.123  -0.369  23.069  0.00  0.00    +0.149 HD
BRANCH   6  23
ATOM     23  C   UNL     1       1.997  -0.185  22.111  0.00  0.00    +0.141 C 
BRANCH  23  25
ATOM      7  N   UNL     1       4.803  -1.549  24.249  0.00  0.00    -0.263 NA
ATOM     25  C   UNL     1       3.297  -0.267  22.857  0.00  0.00    -0.012 A 
ATOM     27  C   UNL     1       4.182   0.805  22.873  0.00  0.00    +0.008 A 
ATOM     28  C   UNL     1       3.651  -1.410  23.555  0.00  0.00    +0.115 A 
ATOM     29  C   UNL     1       5.378   0.701  23.576  0.00  0.00    +0.020 A 
ATOM     30  C   UNL     1       5.639  -0.486  24.241  0.00  0.00    +0.111 A 
ENDBRANCH  23  25
ENDBRANCH   6  23
ENDBRANCH  16  20
ENDBRANCH  11  16
TORSDOF 11
ENDMDL
MODEL 6
REMARK VINA RESULT:      -2.8      1.857      7.875
REMARK  Name = 38028580
REMARK  14 active torsions:
REMARK  status: ('A' for Active; 'I' for Inactive)
REMARK    1  A    between atoms: O_3  and  C_26
REMARK    2  A    between atoms: N_5  and  C_15
REMARK    3  A    between atoms: N_6  and  C_23
REMARK    4  A    between atoms: C_8  and  C_12
REMARK    5  A    between atoms: C_9  and  C_15
REMARK    6  A    between atoms: C_11  and  C_16
REMARK    7  A    between atoms: C_12  and  C_17
REMARK    8  A    between atoms: C_12  and  C_18
REMARK    9  A    between atoms: C_13  and  C_19
REMARK   10  A    between atoms: C_16  and  C_20
REMARK   11  A    between atoms: C_21  and  C_22
REMARK   12  A    between atoms: C_22  and  C_24
REMARK   13  A    between atoms: C_23  and  C_25
REMARK   14  A    between atoms: C_24  and  C_26
REMARK                            x       y       z     vdW  Elec       q    Type
REMARK                         _______ _______ _______ _____ _____    ______ ____
ROOT
ATOM      8  C   UNL     1      -2.395  -1.400  24.379  0.00  0.00    +0.000 C 
ATOM      9  C   UNL     1      -2.893  -0.556  25.580  0.00  0.00    +0.032 C 
ATOM     10  C   UNL     1      -0.867  -1.553  24.429  0.00  0.00    +0.012 C 
ATOM     11  C   UNL     1      -0.144  -0.194  24.404  0.00  0.00    +0.023 C 
ATOM     13  C   UNL     1      -0.757   0.789  25.380  0.00  0.00    -0.073 C 
ATOM     14  C   UNL     1      -1.981   0.604  25.905  0.00  0.00    -0.022 C 
ATOM     19  C   UNL     1       0.088   1.968  25.775  0.00  0.00    +0.039 C 
ENDROOT
BRANCH   8  12
ATOM     12  C   UNL     1      -3.055  -2.781  24.343  0.00  0.00    -0.013 C 
ATOM     17  C   UNL     1      -3.250  -3.314  25.760  0.00  0.00    +0.007 C 
ATOM     18  C   UNL     1      -4.387  -2.717  23.603  0.00  0.00    +0.007 C 
ENDBRANCH   8  12
BRANCH   9  15
ATOM     15  C   UNL     1      -4.314  -0.035  25.338  0.00  0.00    +0.112 C 
BRANCH  15   5
ATOM      2  O   UNL     1      -3.454   1.324  22.932  0.00  0.00    -0.276 OA
ATOM      5  N   UNL     1      -4.305   1.374  25.097  0.00  0.00    -0.315 N 
ATOM     21  C   UNL     1      -3.871   1.951  23.901  0.00  0.00    +0.214 C 
ATOM     31  H   UNL     1      -4.684   1.984  25.815  0.00  0.00    +0.149 HD
BRANCH  21  22
ATOM     22  C   UNL     1      -3.971   3.465  23.930  0.00  0.00    +0.107 C 
BRANCH  22  24
ATOM     24  C   UNL     1      -4.259   4.004  25.327  0.00  0.00    +0.129 C 
BRANCH  24  26
ATOM      4  O   UNL     1      -6.339   5.201  25.737  0.00  0.00    -0.251 OA
ATOM     26  C   UNL     1      -5.742   4.145  25.584  0.00  0.00    +0.305 C 
BRANCH  26   3
ATOM      3  O   UNL     1      -6.355   2.932  25.626  0.00  0.00    -0.481 OA
ATOM     33  H   UNL     1      -7.156   2.908  25.061  0.00  0.00    +0.295 HD
ENDBRANCH  26   3
ENDBRANCH  24  26
ENDBRANCH  22  24
ENDBRANCH  21  22
ENDBRANCH  15   5
ENDBRANCH   9  15
BRANCH  11  16
ATOM     16  C   UNL     1      -0.112   0.388  22.986  0.00  0.00    +0.103 C 
BRANCH  16  20
ATOM      1  O   UNL     1       1.564  -0.451  21.455  0.00  0.00    -0.276 OA
ATOM      6  N   UNL     1       2.133   1.208  22.980  0.00  0.00    -0.311 N 
ATOM     20  C   UNL     1       1.267   0.312  22.371  0.00  0.00    +0.214 C 
ATOM     32  H   UNL     1       1.793   1.802  23.730  0.00  0.00    +0.149 HD
BRANCH   6  23
ATOM     23  C   UNL     1       3.518   1.351  22.596  0.00  0.00    +0.141 C 
BRANCH  23  25
ATOM      7  N   UNL     1       6.548  -0.372  24.062  0.00  0.00    -0.263 NA
ATOM     25  C   UNL     1       4.385   0.290  23.208  0.00  0.00    -0.012 A 
ATOM     27  C   UNL     1       3.880  -0.976  23.485  0.00  0.00    +0.008 A 
ATOM     28  C   UNL     1       5.714   0.538  23.512  0.00  0.00    +0.115 A 
ATOM     29  C   UNL     1       4.708  -1.940  24.050  0.00  0.00    +0.020 A 
ATOM     30  C   UNL     1       6.022  -1.592  24.317  0.00  0.00    +0.111 A 
ENDBRANCH  23  25
ENDBRANCH   6  23
ENDBRANCH  16  20
ENDBRANCH  11  16
TORSDOF 11
ENDMDL
MODEL 7
REMARK VINA RESULT:      -2.3      2.438      6.519
REMARK  Name = 38028580
REMARK  14 active torsions:
REMARK  status: ('A' for Active; 'I' for Inactive)
REMARK    1  A    between atoms: O_3  and  C_26
REMARK    2  A    between atoms: N_5  and  C_15
REMARK    3  A    between atoms: N_6  and  C_23
REMARK    4  A    between atoms: C_8  and  C_12
REMARK    5  A    between atoms: C_9  and  C_15
REMARK    6  A    between atoms: C_11  and  C_16
REMARK    7  A    between atoms: C_12  and  C_17
REMARK    8  A    between atoms: C_12  and  C_18
REMARK    9  A    between atoms: C_13  and  C_19
REMARK   10  A    between atoms: C_16  and  C_20
REMARK   11  A    between atoms: C_21  and  C_22
REMARK   12  A    between atoms: C_22  and  C_24
REMARK   13  A    between atoms: C_23  and  C_25
REMARK   14  A    between atoms: C_24  and  C_26
REMARK                            x       y       z     vdW  Elec       q    Type
REMARK                         _______ _______ _______ _____ _____    ______ ____
ROOT
ATOM      8  C   UNL     1      -3.773   3.079  25.626  0.00  0.00    +0.000 C 
ATOM      9  C   UNL     1      -3.790   3.057  24.076  0.00  0.00    +0.032 C 
ATOM     10  C   UNL     1      -2.864   4.209  26.134  0.00  0.00    +0.012 C 
ATOM     11  C   UNL     1      -1.416   4.063  25.632  0.00  0.00    +0.023 C 
ATOM     13  C   UNL     1      -1.362   3.769  24.146  0.00  0.00    -0.073 C 
ATOM     14  C   UNL     1      -2.436   3.333  23.466  0.00  0.00    -0.022 C 
ATOM     19  C   UNL     1      -0.055   4.032  23.452  0.00  0.00    +0.039 C 
ENDROOT
BRANCH   8  12
ATOM     12  C   UNL     1      -5.180   3.242  26.207  0.00  0.00    -0.013 C 
ATOM     17  C   UNL     1      -5.934   4.347  25.473  0.00  0.00    +0.007 C 
ATOM     18  C   UNL     1      -5.944   1.924  26.131  0.00  0.00    +0.007 C 
ENDBRANCH   8  12
BRANCH   9  15
ATOM     15  C   UNL     1      -4.325   1.720  23.549  0.00  0.00    +0.112 C 
BRANCH  15   5
ATOM      2  O   UNL     1      -4.181  -1.125  23.043  0.00  0.00    -0.276 OA
ATOM      5  N   UNL     1      -4.129   0.680  24.509  0.00  0.00    -0.315 N 
ATOM     21  C   UNL     1      -4.071  -0.676  24.180  0.00  0.00    +0.214 C 
ATOM     31  H   UNL     1      -3.969   0.947  25.476  0.00  0.00    +0.149 HD
BRANCH  21  22
ATOM     22  C   UNL     1      -3.857  -1.551  25.401  0.00  0.00    +0.107 C 
BRANCH  22  24
ATOM     24  C   UNL     1      -3.117  -2.843  25.070  0.00  0.00    +0.129 C 
BRANCH  24  26
ATOM      4  O   UNL     1      -1.252  -2.838  23.506  0.00  0.00    -0.251 OA
ATOM     26  C   UNL     1      -1.700  -2.582  24.615  0.00  0.00    +0.305 C 
BRANCH  26   3
ATOM      3  O   UNL     1      -0.958  -2.016  25.603  0.00  0.00    -0.481 OA
ATOM     33  H   UNL     1      -0.496  -2.690  26.146  0.00  0.00    +0.295 HD
ENDBRANCH  26   3
ENDBRANCH  24  26
ENDBRANCH  22  24
ENDBRANCH  21  22
ENDBRANCH  15   5
ENDBRANCH   9  15
BRANCH  11  16
ATOM     16  C   UNL     1      -0.659   2.995  26.431  0.00  0.00    +0.103 C 
BRANCH  16  20
ATOM      1  O   UNL     1      -1.540   0.761  26.134  0.00  0.00    -0.276 OA
ATOM      6  N   UNL     1       0.176   1.508  24.756  0.00  0.00    -0.311 N 
ATOM     20  C   UNL     1      -0.748   1.632  25.783  0.00  0.00    +0.214 C 
ATOM     32  H   UNL     1       0.789   2.288  24.536  0.00  0.00    +0.149 HD
BRANCH   6  23
ATOM     23  C   UNL     1       0.317   0.310  23.961  0.00  0.00    +0.141 C 
BRANCH  23  25
ATOM      7  N   UNL     1       2.676  -0.290  21.067  0.00  0.00    -0.263 NA
ATOM     25  C   UNL     1       1.558   0.336  23.118  0.00  0.00    -0.012 A 
ATOM     27  C   UNL     1       2.712   0.971  23.562  0.00  0.00    +0.008 A 
ATOM     28  C   UNL     1       1.592  -0.275  21.875  0.00  0.00    +0.115 A 
ATOM     29  C   UNL     1       3.848   0.977  22.760  0.00  0.00    +0.020 A 
ATOM     30  C   UNL     1       3.780   0.338  21.532  0.00  0.00    +0.111 A 
ENDBRANCH  23  25
ENDBRANCH   6  23
ENDBRANCH  16  20
ENDBRANCH  11  16
TORSDOF 11
ENDMDL
