MODEL 1
REMARK VINA RESULT:       6.9      0.000      0.000
REMARK  Name = 11883055
REMARK  9 active torsions:
REMARK  status: ('A' for Active; 'I' for Inactive)
REMARK    1  A    between atoms: O_4  and  C_16
REMARK    2  A    between atoms: O_5  and  C_21
REMARK    3  A    between atoms: O_6  and  C_25
REMARK    4  A    between atoms: C_11  and  C_19
REMARK    5  A    between atoms: C_13  and  C_21
REMARK    6  A    between atoms: C_13  and  C_22
REMARK    7  A    between atoms: C_14  and  C_24
REMARK    8  A    between atoms: C_24  and  C_25
REMARK    9  A    between atoms: C_27  and  C_28
REMARK                            x       y       z     vdW  Elec       q    Type
REMARK                         _______ _______ _______ _____ _____    ______ ____
ROOT
ATOM      1  S   UNL     1       0.155   2.301  25.434  0.00  0.00    -0.057 S 
ATOM      8  O   UNL     1       1.855  -1.002  22.629  0.00  0.00    -0.270 OA
ATOM      9  N   UNL     1      -0.473   0.418  23.775  0.00  0.00    -0.229 NA
ATOM     10  N   UNL     1       1.877   0.775  24.177  0.00  0.00    -0.261 N 
ATOM     11  C   UNL     1      -4.170   1.022  24.688  0.00  0.00    -0.019 C 
ATOM     12  C   UNL     1      -3.928   2.570  24.972  0.00  0.00    +0.011 C 
ATOM     13  C   UNL     1      -5.149   3.393  25.537  0.00  0.00    +0.021 C 
ATOM     14  C   UNL     1      -2.993   0.506  23.737  0.00  0.00    +0.055 C 
ATOM     15  C   UNL     1      -5.517   0.838  23.941  0.00  0.00    +0.010 C 
ATOM     16  C   UNL     1      -6.421   3.058  24.708  0.00  0.00    +0.123 C 
ATOM     17  C   UNL     1      -2.600   2.805  25.749  0.00  0.00    +0.049 C 
ATOM     18  C   UNL     1      -6.687   1.560  24.594  0.00  0.00    +0.032 C 
ATOM     19  C   UNL     1      -4.198   0.170  25.981  0.00  0.00    +0.012 C 
ATOM     20  C   UNL     1      -1.651   0.980  24.230  0.00  0.00    +0.058 A 
ATOM     22  C   UNL     1      -4.866   4.911  25.354  0.00  0.00    +0.016 C 
ATOM     23  C   UNL     1      -1.496   2.025  25.119  0.00  0.00    +0.015 A 
ATOM     26  C   UNL     1       0.542   1.029  24.347  0.00  0.00    +0.165 A 
ATOM     27  C   UNL     1       2.447  -0.205  23.348  0.00  0.00    +0.255 C 
ATOM     36  H   UNL     1       2.487   1.390  24.707  0.00  0.00    +0.157 HD
ENDROOT
BRANCH  27  28
ATOM      2  F   UNL     1       3.982   1.953  22.423  0.00  0.00    -0.205 F 
ATOM      3  F   UNL     1       3.896  -2.432  24.243  0.00  0.00    -0.205 F 
ATOM     28  C   UNL     1       3.934  -0.240  23.333  0.00  0.00    +0.107 A 
ATOM     29  C   UNL     1       4.621   0.861  22.864  0.00  0.00    +0.138 A 
ATOM     30  C   UNL     1       4.577  -1.371  23.790  0.00  0.00    +0.138 A 
ATOM     31  C   UNL     1       6.015   0.828  22.851  0.00  0.00    +0.039 A 
ATOM     32  C   UNL     1       5.971  -1.403  23.777  0.00  0.00    +0.039 A 
ATOM     33  C   UNL     1       6.690  -0.305  23.307  0.00  0.00    +0.006 A 
ENDBRANCH  27  28
BRANCH  16   4
ATOM      4  O   UNL     1      -7.570   3.686  25.273  0.00  0.00    -0.391 OA
ATOM     34  H   UNL     1      -8.359   3.309  24.850  0.00  0.00    +0.210 HD
ENDBRANCH  16   4
BRANCH  13  21
ATOM     21  C   UNL     1      -5.409   3.198  27.047  0.00  0.00    +0.165 C 
BRANCH  21   5
ATOM      5  O   UNL     1      -6.433   2.239  27.189  0.00  0.00    -0.394 OA
ATOM     35  H   UNL     1      -6.030   1.412  27.503  0.00  0.00    +0.209 HD
ENDBRANCH  21   5
ENDBRANCH  13  21
BRANCH  14  24
ATOM     24  C   UNL     1      -2.996  -1.007  23.483  0.00  0.00    +0.130 C 
BRANCH  24  25
ATOM      7  O   UNL     1      -1.574  -1.650  25.356  0.00  0.00    -0.251 OA
ATOM     25  C   UNL     1      -2.608  -1.772  24.717  0.00  0.00    +0.305 C 
BRANCH  25   6
ATOM      6  O   UNL     1      -3.596  -2.645  25.038  0.00  0.00    -0.481 OA
ATOM     37  H   UNL     1      -3.862  -3.194  24.269  0.00  0.00    +0.295 HD
ENDBRANCH  25   6
ENDBRANCH  24  25
ENDBRANCH  14  24
TORSDOF 7
ENDMDL
MODEL 2
REMARK VINA RESULT:       9.4      2.380      3.479
REMARK  Name = 11883055
REMARK  9 active torsions:
REMARK  status: ('A' for Active; 'I' for Inactive)
REMARK    1  A    between atoms: O_4  and  C_16
REMARK    2  A    between atoms: O_5  and  C_21
REMARK    3  A    between atoms: O_6  and  C_25
REMARK    4  A    between atoms: C_11  and  C_19
REMARK    5  A    between atoms: C_13  and  C_21
REMARK    6  A    between atoms: C_13  and  C_22
REMARK    7  A    between atoms: C_14  and  C_24
REMARK    8  A    between atoms: C_24  and  C_25
REMARK    9  A    between atoms: C_27  and  C_28
REMARK                            x       y       z     vdW  Elec       q    Type
REMARK                         _______ _______ _______ _____ _____    ______ ____
ROOT
ATOM      1  S   UNL     1      -0.424  -0.614  24.019  0.00  0.00    -0.057 S 
ATOM      8  O   UNL     1       3.125   2.355  23.504  0.00  0.00    -0.270 OA
ATOM      9  N   UNL     1       0.261   1.880  24.069  0.00  0.00    -0.229 NA
ATOM     10  N   UNL     1       1.999   0.286  23.576  0.00  0.00    -0.261 N 
ATOM     11  C   UNL     1      -3.467   2.760  24.514  0.00  0.00    -0.019 C 
ATOM     12  C   UNL     1      -3.773   1.410  25.301  0.00  0.00    +0.011 C 
ATOM     13  C   UNL     1      -5.278   1.125  25.676  0.00  0.00    +0.021 C 
ATOM     14  C   UNL     1      -1.901   3.054  24.631  0.00  0.00    +0.055 C 
ATOM     15  C   UNL     1      -4.235   3.931  25.182  0.00  0.00    +0.010 C 
ATOM     16  C   UNL     1      -5.907   2.409  26.286  0.00  0.00    +0.123 C 
ATOM     17  C   UNL     1      -3.049   0.196  24.649  0.00  0.00    +0.049 C 
ATOM     18  C   UNL     1      -5.711   3.646  25.416  0.00  0.00    +0.032 C 
ATOM     19  C   UNL     1      -3.869   2.690  23.020  0.00  0.00    +0.012 C 
ATOM     20  C   UNL     1      -1.093   1.815  24.340  0.00  0.00    +0.058 A 
ATOM     22  C   UNL     1      -5.329   0.021  26.769  0.00  0.00    +0.016 C 
ATOM     23  C   UNL     1      -1.624   0.541  24.372  0.00  0.00    +0.015 A 
ATOM     26  C   UNL     1       0.717   0.662  23.876  0.00  0.00    +0.165 A 
ATOM     27  C   UNL     1       3.107   1.133  23.409  0.00  0.00    +0.255 C 
ATOM     36  H   UNL     1       2.128  -0.719  23.492  0.00  0.00    +0.157 HD
ENDROOT
BRANCH  27  28
ATOM      2  F   UNL     1       3.739   0.176  20.850  0.00  0.00    -0.205 F 
ATOM      3  F   UNL     1       5.057   0.715  25.381  0.00  0.00    -0.205 F 
ATOM     28  C   UNL     1       4.394   0.448  23.116  0.00  0.00    +0.107 A 
ATOM     29  C   UNL     1       4.634   0.004  21.832  0.00  0.00    +0.138 A 
ATOM     30  C   UNL     1       5.305   0.278  24.138  0.00  0.00    +0.138 A 
ATOM     31  C   UNL     1       5.841  -0.638  21.558  0.00  0.00    +0.039 A 
ATOM     32  C   UNL     1       6.512  -0.364  23.863  0.00  0.00    +0.039 A 
ATOM     33  C   UNL     1       6.780  -0.822  22.573  0.00  0.00    +0.006 A 
ENDBRANCH  27  28
BRANCH  16   4
ATOM      4  O   UNL     1      -7.302   2.226  26.517  0.00  0.00    -0.391 OA
ATOM     34  H   UNL     1      -7.587   1.434  26.032  0.00  0.00    +0.210 HD
ENDBRANCH  16   4
BRANCH  13  21
ATOM     21  C   UNL     1      -6.139   0.593  24.508  0.00  0.00    +0.165 C 
BRANCH  21   5
ATOM      5  O   UNL     1      -7.160   1.533  24.261  0.00  0.00    -0.394 OA
ATOM     35  H   UNL     1      -7.983   1.046  24.087  0.00  0.00    +0.209 HD
ENDBRANCH  21   5
ENDBRANCH  13  21
BRANCH  14  24
ATOM     24  C   UNL     1      -1.413   4.249  23.801  0.00  0.00    +0.130 C 
BRANCH  24  25
ATOM      7  O   UNL     1       0.305   5.698  24.746  0.00  0.00    -0.251 OA
ATOM     25  C   UNL     1      -0.860   5.337  24.677  0.00  0.00    +0.305 C 
BRANCH  25   6
ATOM      6  O   UNL     1      -1.866   5.886  25.405  0.00  0.00    -0.481 OA
ATOM     37  H   UNL     1      -2.140   6.757  25.050  0.00  0.00    +0.295 HD
ENDBRANCH  25   6
ENDBRANCH  24  25
ENDBRANCH  14  24
TORSDOF 7
ENDMDL
