MODEL 1
REMARK VINA RESULT:       3.4      0.000      0.000
REMARK  Name = 7049410
REMARK  13 active torsions:
REMARK  status: ('A' for Active; 'I' for Inactive)
REMARK    1  A    between atoms: S_1  and  C_26
REMARK    2  A    between atoms: S_1  and  C_30
REMARK    3  A    between atoms: O_5  and  C_27
REMARK    4  A    between atoms: O_5  and  C_31
REMARK    5  A    between atoms: N_8  and  C_11
REMARK    6  A    between atoms: N_9  and  C_15
REMARK    7  A    between atoms: N_10  and  C_24
REMARK    8  A    between atoms: C_12  and  C_20
REMARK    9  A    between atoms: C_22  and  C_26
REMARK   10  A    between atoms: C_24  and  C_25
REMARK   11  A    between atoms: C_24  and  C_27
REMARK   12  A    between atoms: C_25  and  C_28
REMARK   13  A    between atoms: C_25  and  C_29
REMARK                            x       y       z     vdW  Elec       q    Type
REMARK                         _______ _______ _______ _____ _____    ______ ____
ROOT
ATOM      3  O   UNL     1       1.175  -0.927  24.120  0.00  0.00    -0.275 OA
ATOM      7  N   UNL     1       0.563   1.304  24.013  0.00  0.00    -0.287 N 
ATOM     11  C   UNL     1      -0.260   3.516  24.280  0.00  0.00    +0.094 C 
ATOM     12  C   UNL     1       0.273   1.459  25.431  0.00  0.00    +0.164 C 
ATOM     13  C   UNL     1       0.151   2.965  25.648  0.00  0.00    +0.055 C 
ATOM     14  C   UNL     1       0.426   2.572  23.297  0.00  0.00    +0.131 C 
ATOM     22  C   UNL     1       1.074   0.126  23.487  0.00  0.00    +0.226 C 
ENDROOT
BRANCH  11   8
ATOM      4  O   UNL     1      -2.231   4.055  26.304  0.00  0.00    -0.253 OA
ATOM      8  N   UNL     1      -1.692   3.517  24.112  0.00  0.00    -0.295 N 
ATOM      9  N   UNL     1      -3.900   3.729  24.725  0.00  0.00    -0.297 N 
ATOM     23  C   UNL     1      -2.577   3.792  25.154  0.00  0.00    +0.300 C 
ATOM     32  H   UNL     1      -2.076   3.244  23.213  0.00  0.00    +0.151 HD
ATOM     33  H   UNL     1      -4.072   3.574  23.737  0.00  0.00    +0.151 HD
BRANCH   9  15
ATOM     15  C   UNL     1      -5.028   3.969  25.597  0.00  0.00    +0.074 C 
ATOM     16  C   UNL     1      -4.933   3.120  26.868  0.00  0.00    +0.022 C 
ATOM     17  C   UNL     1      -6.352   3.728  24.864  0.00  0.00    +0.022 C 
ATOM     18  C   UNL     1      -5.195   1.637  26.602  0.00  0.00    +0.002 C 
ATOM     19  C   UNL     1      -6.613   2.245  24.602  0.00  0.00    +0.002 C 
ATOM     21  C   UNL     1      -6.523   1.421  25.882  0.00  0.00    +0.000 C 
ENDBRANCH   9  15
ENDBRANCH  11   8
BRANCH  12  20
ATOM      2  O   UNL     1      -1.567   0.863  26.830  0.00  0.00    -0.274 OA
ATOM     10  N   UNL     1      -1.453  -0.022  24.680  0.00  0.00    -0.301 N 
ATOM     20  C   UNL     1      -1.013   0.753  25.739  0.00  0.00    +0.234 C 
ATOM     34  H   UNL     1      -0.949   0.016  23.799  0.00  0.00    +0.150 HD
BRANCH  10  24
ATOM     24  C   UNL     1      -2.656  -0.820  24.731  0.00  0.00    +0.184 C 
BRANCH  24  25
ATOM     25  C   UNL     1      -2.414  -2.280  24.289  0.00  0.00    +0.014 C 
ATOM     28  C   UNL     1      -1.086  -2.813  24.834  0.00  0.00    +0.009 C 
ATOM     29  C   UNL     1      -3.556  -3.226  24.676  0.00  0.00    +0.009 C 
ENDBRANCH  24  25
BRANCH  24  27
ATOM      6  O   UNL     1      -4.842  -0.763  23.697  0.00  0.00    -0.249 OA
ATOM     27  C   UNL     1      -3.789  -0.181  23.934  0.00  0.00    +0.328 C 
BRANCH  27   5
ATOM      5  O   UNL     1      -3.484   1.085  23.530  0.00  0.00    -0.467 OA
ATOM     31  C   UNL     1      -2.811   1.190  22.271  0.00  0.00    +0.280 C 
ENDBRANCH  27   5
ENDBRANCH  24  27
ENDBRANCH  10  24
ENDBRANCH  12  20
BRANCH  22  26
ATOM     26  C   UNL     1       1.505   0.191  22.044  0.00  0.00    +0.164 C 
BRANCH  26   1
ATOM      1  S   UNL     1       3.253  -0.229  21.977  0.00  0.00    -0.155 S 
ATOM     30  C   UNL     1       3.915   1.184  22.896  0.00  0.00    +0.085 C 
ENDBRANCH  26   1
ENDBRANCH  22  26
TORSDOF 9
ENDMDL
MODEL 2
REMARK VINA RESULT:       3.4      2.612      6.538
REMARK  Name = 7049410
REMARK  13 active torsions:
REMARK  status: ('A' for Active; 'I' for Inactive)
REMARK    1  A    between atoms: S_1  and  C_26
REMARK    2  A    between atoms: S_1  and  C_30
REMARK    3  A    between atoms: O_5  and  C_27
REMARK    4  A    between atoms: O_5  and  C_31
REMARK    5  A    between atoms: N_8  and  C_11
REMARK    6  A    between atoms: N_9  and  C_15
REMARK    7  A    between atoms: N_10  and  C_24
REMARK    8  A    between atoms: C_12  and  C_20
REMARK    9  A    between atoms: C_22  and  C_26
REMARK   10  A    between atoms: C_24  and  C_25
REMARK   11  A    between atoms: C_24  and  C_27
REMARK   12  A    between atoms: C_25  and  C_28
REMARK   13  A    between atoms: C_25  and  C_29
REMARK                            x       y       z     vdW  Elec       q    Type
REMARK                         _______ _______ _______ _____ _____    ______ ____
ROOT
ATOM      3  O   UNL     1      -4.692   2.869  24.237  0.00  0.00    -0.275 OA
ATOM      7  N   UNL     1      -2.444   3.104  24.742  0.00  0.00    -0.287 N 
ATOM     11  C   UNL     1      -0.074   3.210  24.855  0.00  0.00    +0.094 C 
ATOM     12  C   UNL     1      -1.975   3.159  23.365  0.00  0.00    +0.164 C 
ATOM     13  C   UNL     1      -0.528   3.638  23.457  0.00  0.00    +0.055 C 
ATOM     14  C   UNL     1      -1.348   3.309  25.688  0.00  0.00    +0.131 C 
ATOM     22  C   UNL     1      -3.793   3.043  25.062  0.00  0.00    +0.226 C 
ENDROOT
BRANCH  11   8
ATOM      4  O   UNL     1       1.522   1.995  22.794  0.00  0.00    -0.253 OA
ATOM      8  N   UNL     1       0.465   1.873  24.857  0.00  0.00    -0.295 N 
ATOM      9  N   UNL     1       1.628   0.053  24.062  0.00  0.00    -0.297 N 
ATOM     23  C   UNL     1       1.233   1.364  23.810  0.00  0.00    +0.300 C 
ATOM     32  H   UNL     1       0.223   1.251  25.622  0.00  0.00    +0.151 HD
ATOM     33  H   UNL     1       1.394  -0.349  24.963  0.00  0.00    +0.151 HD
BRANCH   9  15
ATOM     15  C   UNL     1       2.433  -0.721  23.143  0.00  0.00    +0.074 C 
ATOM     16  C   UNL     1       3.538  -1.481  23.884  0.00  0.00    +0.022 C 
ATOM     17  C   UNL     1       3.015   0.167  22.038  0.00  0.00    +0.022 C 
ATOM     18  C   UNL     1       4.644  -0.556  24.394  0.00  0.00    +0.002 C 
ATOM     19  C   UNL     1       4.121   1.088  22.550  0.00  0.00    +0.002 C 
ATOM     21  C   UNL     1       5.214   0.309  23.274  0.00  0.00    +0.000 C 
ENDBRANCH   9  15
ENDBRANCH  11   8
BRANCH  12  20
ATOM      2  O   UNL     1      -1.966   1.596  21.561  0.00  0.00    -0.274 OA
ATOM     10  N   UNL     1      -2.284   0.813  23.730  0.00  0.00    -0.301 N 
ATOM     20  C   UNL     1      -2.063   1.786  22.771  0.00  0.00    +0.234 C 
ATOM     34  H   UNL     1      -2.280   1.078  24.710  0.00  0.00    +0.150 HD
BRANCH  10  24
ATOM     24  C   UNL     1      -2.430  -0.590  23.414  0.00  0.00    +0.184 C 
BRANCH  24  25
ATOM     25  C   UNL     1      -3.873  -1.096  23.631  0.00  0.00    +0.014 C 
ATOM     28  C   UNL     1      -3.896  -2.596  23.938  0.00  0.00    +0.009 C 
ATOM     29  C   UNL     1      -4.626  -0.327  24.722  0.00  0.00    +0.009 C 
ENDBRANCH  24  25
BRANCH  24  27
ATOM      6  O   UNL     1      -1.167  -2.602  23.862  0.00  0.00    -0.249 OA
ATOM     27  C   UNL     1      -1.423  -1.445  24.176  0.00  0.00    +0.328 C 
BRANCH  27   5
ATOM      5  O   UNL     1      -0.863  -0.774  25.222  0.00  0.00    -0.467 OA
ATOM     31  C   UNL     1      -1.469  -0.997  26.499  0.00  0.00    +0.280 C 
ENDBRANCH  27   5
ENDBRANCH  24  27
ENDBRANCH  10  24
ENDBRANCH  12  20
BRANCH  22  26
ATOM     26  C   UNL     1      -4.122   3.192  26.525  0.00  0.00    +0.164 C 
BRANCH  26   1
ATOM      1  S   UNL     1      -5.906   3.369  26.669  0.00  0.00    -0.155 S 
ATOM     30  C   UNL     1      -6.345   1.625  26.872  0.00  0.00    +0.085 C 
ENDBRANCH  26   1
ENDBRANCH  22  26
TORSDOF 9
ENDMDL
MODEL 3
REMARK VINA RESULT:       4.3      1.289      1.972
REMARK  Name = 7049410
REMARK  13 active torsions:
REMARK  status: ('A' for Active; 'I' for Inactive)
REMARK    1  A    between atoms: S_1  and  C_26
REMARK    2  A    between atoms: S_1  and  C_30
REMARK    3  A    between atoms: O_5  and  C_27
REMARK    4  A    between atoms: O_5  and  C_31
REMARK    5  A    between atoms: N_8  and  C_11
REMARK    6  A    between atoms: N_9  and  C_15
REMARK    7  A    between atoms: N_10  and  C_24
REMARK    8  A    between atoms: C_12  and  C_20
REMARK    9  A    between atoms: C_22  and  C_26
REMARK   10  A    between atoms: C_24  and  C_25
REMARK   11  A    between atoms: C_24  and  C_27
REMARK   12  A    between atoms: C_25  and  C_28
REMARK   13  A    between atoms: C_25  and  C_29
REMARK                            x       y       z     vdW  Elec       q    Type
REMARK                         _______ _______ _______ _____ _____    ______ ____
ROOT
ATOM      3  O   UNL     1       1.732  -1.097  24.106  0.00  0.00    -0.275 OA
ATOM      7  N   UNL     1       0.890   1.059  24.072  0.00  0.00    -0.287 N 
ATOM     11  C   UNL     1      -0.198   3.148  24.386  0.00  0.00    +0.094 C 
ATOM     12  C   UNL     1       0.439   1.077  25.456  0.00  0.00    +0.164 C 
ATOM     13  C   UNL     1       0.128   2.542  25.754  0.00  0.00    +0.055 C 
ATOM     14  C   UNL     1       0.687   2.357  23.428  0.00  0.00    +0.131 C 
ATOM     22  C   UNL     1       1.581  -0.016  23.533  0.00  0.00    +0.226 C 
ENDROOT
BRANCH  11   8
ATOM      4  O   UNL     1      -2.409   4.388  25.743  0.00  0.00    -0.253 OA
ATOM      8  N   UNL     1      -1.595   3.013  24.059  0.00  0.00    -0.295 N 
ATOM      9  N   UNL     1      -3.863   3.358  24.255  0.00  0.00    -0.297 N 
ATOM     23  C   UNL     1      -2.606   3.655  24.775  0.00  0.00    +0.300 C 
ATOM     32  H   UNL     1      -1.863   2.374  23.318  0.00  0.00    +0.151 HD
ATOM     33  H   UNL     1      -3.906   2.799  23.409  0.00  0.00    +0.151 HD
BRANCH   9  15
ATOM     15  C   UNL     1      -5.092   3.887  24.803  0.00  0.00    +0.074 C 
ATOM     16  C   UNL     1      -5.062   3.879  26.334  0.00  0.00    +0.022 C 
ATOM     17  C   UNL     1      -6.308   3.123  24.266  0.00  0.00    +0.022 C 
ATOM     18  C   UNL     1      -5.171   2.469  26.914  0.00  0.00    +0.002 C 
ATOM     19  C   UNL     1      -6.416   1.715  24.850  0.00  0.00    +0.002 C 
ATOM     21  C   UNL     1      -6.394   1.732  26.375  0.00  0.00    +0.000 C 
ENDBRANCH   9  15
ENDBRANCH  11   8
BRANCH  12  20
ATOM      2  O   UNL     1      -1.260  -0.084  26.666  0.00  0.00    -0.274 OA
ATOM     10  N   UNL     1      -1.266  -0.180  24.340  0.00  0.00    -0.301 N 
ATOM     20  C   UNL     1      -0.785   0.220  25.575  0.00  0.00    +0.234 C 
ATOM     34  H   UNL     1      -0.833   0.188  23.499  0.00  0.00    +0.150 HD
BRANCH  10  24
ATOM     24  C   UNL     1      -2.423  -1.031  24.180  0.00  0.00    +0.184 C 
BRANCH  24  25
ATOM     25  C   UNL     1      -3.675  -0.462  24.884  0.00  0.00    +0.014 C 
ATOM     28  C   UNL     1      -4.917  -0.589  23.997  0.00  0.00    +0.009 C 
ATOM     29  C   UNL     1      -3.941  -1.096  26.253  0.00  0.00    +0.009 C 
ENDBRANCH  24  25
BRANCH  24  27
ATOM      6  O   UNL     1      -1.003  -2.870  24.849  0.00  0.00    -0.249 OA
ATOM     27  C   UNL     1      -2.137  -2.460  24.631  0.00  0.00    +0.328 C 
BRANCH  27   5
ATOM      5  O   UNL     1      -3.276  -3.199  24.754  0.00  0.00    -0.467 OA
ATOM     31  C   UNL     1      -3.906  -3.579  23.527  0.00  0.00    +0.280 C 
ENDBRANCH  27   5
ENDBRANCH  24  27
ENDBRANCH  10  24
ENDBRANCH  12  20
BRANCH  22  26
ATOM     26  C   UNL     1       2.149   0.201  22.154  0.00  0.00    +0.164 C 
BRANCH  26   1
ATOM      1  S   UNL     1       3.768   0.963  22.345  0.00  0.00    -0.155 S 
ATOM     30  C   UNL     1       4.560  -0.313  23.356  0.00  0.00    +0.085 C 
ENDBRANCH  26   1
ENDBRANCH  22  26
TORSDOF 9
ENDMDL
MODEL 4
REMARK VINA RESULT:       4.3      2.186      7.084
REMARK  Name = 7049410
REMARK  13 active torsions:
REMARK  status: ('A' for Active; 'I' for Inactive)
REMARK    1  A    between atoms: S_1  and  C_26
REMARK    2  A    between atoms: S_1  and  C_30
REMARK    3  A    between atoms: O_5  and  C_27
REMARK    4  A    between atoms: O_5  and  C_31
REMARK    5  A    between atoms: N_8  and  C_11
REMARK    6  A    between atoms: N_9  and  C_15
REMARK    7  A    between atoms: N_10  and  C_24
REMARK    8  A    between atoms: C_12  and  C_20
REMARK    9  A    between atoms: C_22  and  C_26
REMARK   10  A    between atoms: C_24  and  C_25
REMARK   11  A    between atoms: C_24  and  C_27
REMARK   12  A    between atoms: C_25  and  C_28
REMARK   13  A    between atoms: C_25  and  C_29
REMARK                            x       y       z     vdW  Elec       q    Type
REMARK                         _______ _______ _______ _____ _____    ______ ____
ROOT
ATOM      3  O   UNL     1      -4.389   0.150  25.109  0.00  0.00    -0.275 OA
ATOM      7  N   UNL     1      -2.303  -0.748  24.655  0.00  0.00    -0.287 N 
ATOM     11  C   UNL     1      -0.024  -1.394  24.490  0.00  0.00    +0.094 C 
ATOM     12  C   UNL     1      -1.671  -0.321  25.894  0.00  0.00    +0.164 C 
ATOM     13  C   UNL     1      -0.354  -1.091  25.954  0.00  0.00    +0.055 C 
ATOM     14  C   UNL     1      -1.396  -1.559  23.844  0.00  0.00    +0.131 C 
ATOM     22  C   UNL     1      -3.652  -0.541  24.402  0.00  0.00    +0.226 C 
ENDROOT
BRANCH  11   8
ATOM      4  O   UNL     1       2.663  -1.554  23.478  0.00  0.00    -0.253 OA
ATOM      8  N   UNL     1       0.732  -0.330  23.879  0.00  0.00    -0.295 N 
ATOM      9  N   UNL     1       2.536   0.683  22.870  0.00  0.00    -0.297 N 
ATOM     23  C   UNL     1       2.036  -0.497  23.413  0.00  0.00    +0.300 C 
ATOM     32  H   UNL     1       0.324   0.599  23.843  0.00  0.00    +0.151 HD
ATOM     33  H   UNL     1       1.908   1.477  22.802  0.00  0.00    +0.151 HD
BRANCH   9  15
ATOM     15  C   UNL     1       3.865   0.797  22.312  0.00  0.00    +0.074 C 
ATOM     16  C   UNL     1       4.496  -0.583  22.102  0.00  0.00    +0.022 C 
ATOM     17  C   UNL     1       4.754   1.687  23.187  0.00  0.00    +0.022 C 
ATOM     18  C   UNL     1       4.885  -1.255  23.419  0.00  0.00    +0.002 C 
ATOM     19  C   UNL     1       5.144   1.012  24.502  0.00  0.00    +0.002 C 
ATOM     21  C   UNL     1       5.779  -0.355  24.267  0.00  0.00    +0.000 C 
ENDBRANCH   9  15
ENDBRANCH  11   8
BRANCH  12  20
ATOM      2  O   UNL     1      -0.615   1.717  26.549  0.00  0.00    -0.274 OA
ATOM     10  N   UNL     1      -2.269   1.780  24.912  0.00  0.00    -0.301 N 
ATOM     20  C   UNL     1      -1.441   1.159  25.832  0.00  0.00    +0.234 C 
ATOM     34  H   UNL     1      -2.867   1.209  24.324  0.00  0.00    +0.150 HD
BRANCH  10  24
ATOM     24  C   UNL     1      -2.260   3.206  24.677  0.00  0.00    +0.184 C 
BRANCH  24  25
ATOM     25  C   UNL     1      -0.856   3.823  24.853  0.00  0.00    +0.014 C 
ATOM     28  C   UNL     1       0.122   3.290  23.801  0.00  0.00    +0.009 C 
ATOM     29  C   UNL     1      -0.861   5.356  24.833  0.00  0.00    +0.009 C 
ENDBRANCH  24  25
BRANCH  24  27
ATOM      6  O   UNL     1      -3.031   4.369  26.652  0.00  0.00    -0.249 OA
ATOM     27  C   UNL     1      -3.293   3.924  25.540  0.00  0.00    +0.328 C 
BRANCH  27   5
ATOM      5  O   UNL     1      -4.509   4.003  24.930  0.00  0.00    -0.467 OA
ATOM     31  C   UNL     1      -5.588   3.352  25.609  0.00  0.00    +0.280 C 
ENDBRANCH  27   5
ENDBRANCH  24  27
ENDBRANCH  10  24
ENDBRANCH  12  20
BRANCH  22  26
ATOM     26  C   UNL     1      -4.194  -1.215  23.168  0.00  0.00    +0.164 C 
BRANCH  26   1
ATOM      1  S   UNL     1      -4.664  -2.890  23.623  0.00  0.00    -0.155 S 
ATOM     30  C   UNL     1      -3.579  -3.105  25.056  0.00  0.00    +0.085 C 
ENDBRANCH  26   1
ENDBRANCH  22  26
TORSDOF 9
ENDMDL
MODEL 5
REMARK VINA RESULT:       4.4      2.282      5.173
REMARK  Name = 7049410
REMARK  13 active torsions:
REMARK  status: ('A' for Active; 'I' for Inactive)
REMARK    1  A    between atoms: S_1  and  C_26
REMARK    2  A    between atoms: S_1  and  C_30
REMARK    3  A    between atoms: O_5  and  C_27
REMARK    4  A    between atoms: O_5  and  C_31
REMARK    5  A    between atoms: N_8  and  C_11
REMARK    6  A    between atoms: N_9  and  C_15
REMARK    7  A    between atoms: N_10  and  C_24
REMARK    8  A    between atoms: C_12  and  C_20
REMARK    9  A    between atoms: C_22  and  C_26
REMARK   10  A    between atoms: C_24  and  C_25
REMARK   11  A    between atoms: C_24  and  C_27
REMARK   12  A    between atoms: C_25  and  C_28
REMARK   13  A    between atoms: C_25  and  C_29
REMARK                            x       y       z     vdW  Elec       q    Type
REMARK                         _______ _______ _______ _____ _____    ______ ____
ROOT
ATOM      3  O   UNL     1      -1.079   3.784  26.305  0.00  0.00    -0.275 OA
ATOM      7  N   UNL     1       0.127   2.052  25.353  0.00  0.00    -0.287 N 
ATOM     11  C   UNL     1       1.150   0.376  24.016  0.00  0.00    +0.094 C 
ATOM     12  C   UNL     1      -0.057   2.468  23.971  0.00  0.00    +0.164 C 
ATOM     13  C   UNL     1       0.937   1.632  23.168  0.00  0.00    +0.055 C 
ATOM     14  C   UNL     1       1.004   0.885  25.447  0.00  0.00    +0.131 C 
ATOM     22  C   UNL     1      -0.341   2.804  26.421  0.00  0.00    +0.226 C 
ENDROOT
BRANCH  11   8
ATOM      4  O   UNL     1      -0.891  -0.641  25.767  0.00  0.00    -0.253 OA
ATOM      8  N   UNL     1       0.183  -0.648  23.710  0.00  0.00    -0.295 N 
ATOM      9  N   UNL     1      -1.585  -2.075  24.078  0.00  0.00    -0.297 N 
ATOM     23  C   UNL     1      -0.777  -1.082  24.624  0.00  0.00    +0.300 C 
ATOM     32  H   UNL     1       0.242  -1.121  22.814  0.00  0.00    +0.151 HD
ATOM     33  H   UNL     1      -1.449  -2.314  23.102  0.00  0.00    +0.151 HD
BRANCH   9  15
ATOM     15  C   UNL     1      -2.663  -2.707  24.805  0.00  0.00    +0.074 C 
ATOM     16  C   UNL     1      -3.818  -3.075  23.869  0.00  0.00    +0.022 C 
ATOM     17  C   UNL     1      -3.144  -1.818  25.959  0.00  0.00    +0.022 C 
ATOM     18  C   UNL     1      -4.591  -1.849  23.383  0.00  0.00    +0.002 C 
ATOM     19  C   UNL     1      -3.919  -0.595  25.470  0.00  0.00    +0.002 C 
ATOM     21  C   UNL     1      -5.069  -0.987  24.549  0.00  0.00    +0.000 C 
ENDBRANCH   9  15
ENDBRANCH  11   8
BRANCH  12  20
ATOM      2  O   UNL     1      -1.738   1.402  22.653  0.00  0.00    -0.274 OA
ATOM     10  N   UNL     1      -2.388   2.898  24.314  0.00  0.00    -0.301 N 
ATOM     20  C   UNL     1      -1.471   2.179  23.566  0.00  0.00    +0.234 C 
ATOM     34  H   UNL     1      -2.057   3.461  25.091  0.00  0.00    +0.150 HD
BRANCH  10  24
ATOM     24  C   UNL     1      -3.816   2.816  24.106  0.00  0.00    +0.184 C 
BRANCH  24  25
ATOM     25  C   UNL     1      -4.321   3.845  23.071  0.00  0.00    +0.014 C 
ATOM     28  C   UNL     1      -3.839   5.258  23.412  0.00  0.00    +0.009 C 
ATOM     29  C   UNL     1      -3.934   3.494  21.631  0.00  0.00    +0.009 C 
ENDBRANCH  24  25
BRANCH  24  27
ATOM      6  O   UNL     1      -4.106   3.453  26.421  0.00  0.00    -0.249 OA
ATOM     27  C   UNL     1      -4.583   2.929  25.419  0.00  0.00    +0.328 C 
BRANCH  27   5
ATOM      5  O   UNL     1      -5.831   2.387  25.336  0.00  0.00    -0.467 OA
ATOM     31  C   UNL     1      -6.394   1.932  26.571  0.00  0.00    +0.280 C 
ENDBRANCH  27   5
ENDBRANCH  24  27
ENDBRANCH  10  24
ENDBRANCH  12  20
BRANCH  22  26
ATOM     26  C   UNL     1       0.102   2.342  27.786  0.00  0.00    +0.164 C 
BRANCH  26   1
ATOM      1  S   UNL     1       1.730   3.042  28.097  0.00  0.00    -0.155 S 
ATOM     30  C   UNL     1       2.029   2.334  29.737  0.00  0.00    +0.085 C 
ENDBRANCH  26   1
ENDBRANCH  22  26
TORSDOF 9
ENDMDL
MODEL 6
REMARK VINA RESULT:       4.6      2.316      7.091
REMARK  Name = 7049410
REMARK  13 active torsions:
REMARK  status: ('A' for Active; 'I' for Inactive)
REMARK    1  A    between atoms: S_1  and  C_26
REMARK    2  A    between atoms: S_1  and  C_30
REMARK    3  A    between atoms: O_5  and  C_27
REMARK    4  A    between atoms: O_5  and  C_31
REMARK    5  A    between atoms: N_8  and  C_11
REMARK    6  A    between atoms: N_9  and  C_15
REMARK    7  A    between atoms: N_10  and  C_24
REMARK    8  A    between atoms: C_12  and  C_20
REMARK    9  A    between atoms: C_22  and  C_26
REMARK   10  A    between atoms: C_24  and  C_25
REMARK   11  A    between atoms: C_24  and  C_27
REMARK   12  A    between atoms: C_25  and  C_28
REMARK   13  A    between atoms: C_25  and  C_29
REMARK                            x       y       z     vdW  Elec       q    Type
REMARK                         _______ _______ _______ _____ _____    ______ ____
ROOT
ATOM      3  O   UNL     1      -4.303   0.195  25.276  0.00  0.00    -0.275 OA
ATOM      7  N   UNL     1      -2.259  -0.739  24.720  0.00  0.00    -0.287 N 
ATOM     11  C   UNL     1      -0.005  -1.441  24.458  0.00  0.00    +0.094 C 
ATOM     12  C   UNL     1      -1.579  -0.387  25.958  0.00  0.00    +0.164 C 
ATOM     13  C   UNL     1      -0.284  -1.196  25.943  0.00  0.00    +0.055 C 
ATOM     14  C   UNL     1      -1.399  -1.537  23.846  0.00  0.00    +0.131 C 
ATOM     22  C   UNL     1      -3.607  -0.483  24.517  0.00  0.00    +0.226 C 
ENDROOT
BRANCH  11   8
ATOM      4  O   UNL     1       2.680  -1.610  23.441  0.00  0.00    -0.253 OA
ATOM      8  N   UNL     1       0.764  -0.372  23.873  0.00  0.00    -0.295 N 
ATOM      9  N   UNL     1       2.580   0.643  22.888  0.00  0.00    -0.297 N 
ATOM     23  C   UNL     1       2.066  -0.544  23.403  0.00  0.00    +0.300 C 
ATOM     32  H   UNL     1       0.368   0.562  23.861  0.00  0.00    +0.151 HD
ATOM     33  H   UNL     1       1.963   1.447  22.841  0.00  0.00    +0.151 HD
BRANCH   9  15
ATOM     15  C   UNL     1       3.911   0.754  22.333  0.00  0.00    +0.074 C 
ATOM     16  C   UNL     1       4.548  -0.626  22.145  0.00  0.00    +0.022 C 
ATOM     17  C   UNL     1       4.794   1.660  23.198  0.00  0.00    +0.022 C 
ATOM     18  C   UNL     1       4.935  -1.278  23.472  0.00  0.00    +0.002 C 
ATOM     19  C   UNL     1       5.183   1.005  24.523  0.00  0.00    +0.002 C 
ATOM     21  C   UNL     1       5.823  -0.363  24.310  0.00  0.00    +0.000 C 
ENDBRANCH   9  15
ENDBRANCH  11   8
BRANCH  12  20
ATOM      2  O   UNL     1      -0.311   1.563  26.493  0.00  0.00    -0.274 OA
ATOM     10  N   UNL     1      -2.303   1.802  25.312  0.00  0.00    -0.301 N 
ATOM     20  C   UNL     1      -1.307   1.087  25.955  0.00  0.00    +0.234 C 
ATOM     34  H   UNL     1      -3.048   1.297  24.843  0.00  0.00    +0.150 HD
BRANCH  10  24
ATOM     24  C   UNL     1      -2.290   3.242  25.192  0.00  0.00    +0.184 C 
BRANCH  24  25
ATOM     25  C   UNL     1      -3.563   3.789  24.511  0.00  0.00    +0.014 C 
ATOM     28  C   UNL     1      -3.870   3.030  23.216  0.00  0.00    +0.009 C 
ATOM     29  C   UNL     1      -4.791   3.779  25.427  0.00  0.00    +0.009 C 
ENDBRANCH  24  25
BRANCH  24  27
ATOM      6  O   UNL     1      -0.482   3.104  23.591  0.00  0.00    -0.249 OA
ATOM     27  C   UNL     1      -1.030   3.736  24.488  0.00  0.00    +0.328 C 
BRANCH  27   5
ATOM      5  O   UNL     1      -0.604   4.936  24.974  0.00  0.00    -0.467 OA
ATOM     31  C   UNL     1      -1.585   5.978  25.001  0.00  0.00    +0.280 C 
ENDBRANCH  27   5
ENDBRANCH  24  27
ENDBRANCH  10  24
ENDBRANCH  12  20
BRANCH  22  26
ATOM     26  C   UNL     1      -4.204  -1.084  23.271  0.00  0.00    +0.164 C 
BRANCH  26   1
ATOM      1  S   UNL     1      -4.684  -2.775  23.656  0.00  0.00    -0.155 S 
ATOM     30  C   UNL     1      -3.546  -3.082  25.030  0.00  0.00    +0.085 C 
ENDBRANCH  26   1
ENDBRANCH  22  26
TORSDOF 9
ENDMDL
MODEL 7
REMARK VINA RESULT:       4.7      2.388      4.881
REMARK  Name = 7049410
REMARK  13 active torsions:
REMARK  status: ('A' for Active; 'I' for Inactive)
REMARK    1  A    between atoms: S_1  and  C_26
REMARK    2  A    between atoms: S_1  and  C_30
REMARK    3  A    between atoms: O_5  and  C_27
REMARK    4  A    between atoms: O_5  and  C_31
REMARK    5  A    between atoms: N_8  and  C_11
REMARK    6  A    between atoms: N_9  and  C_15
REMARK    7  A    between atoms: N_10  and  C_24
REMARK    8  A    between atoms: C_12  and  C_20
REMARK    9  A    between atoms: C_22  and  C_26
REMARK   10  A    between atoms: C_24  and  C_25
REMARK   11  A    between atoms: C_24  and  C_27
REMARK   12  A    between atoms: C_25  and  C_28
REMARK   13  A    between atoms: C_25  and  C_29
REMARK                            x       y       z     vdW  Elec       q    Type
REMARK                         _______ _______ _______ _____ _____    ______ ____
ROOT
ATOM      3  O   UNL     1      -1.007  -2.894  25.685  0.00  0.00    -0.275 OA
ATOM      7  N   UNL     1      -0.961  -1.289  24.018  0.00  0.00    -0.287 N 
ATOM     11  C   UNL     1      -0.694   0.593  22.593  0.00  0.00    +0.094 C 
ATOM     12  C   UNL     1       0.156  -0.528  24.558  0.00  0.00    +0.164 C 
ATOM     13  C   UNL     1       0.574   0.416  23.433  0.00  0.00    +0.055 C 
ATOM     14  C   UNL     1      -1.400  -0.753  22.730  0.00  0.00    +0.131 C 
ATOM     22  C   UNL     1      -1.399  -2.471  24.597  0.00  0.00    +0.226 C 
ENDROOT
BRANCH  11   8
ATOM      4  O   UNL     1      -3.566   0.666  22.708  0.00  0.00    -0.253 OA
ATOM      8  N   UNL     1      -1.510   1.678  23.077  0.00  0.00    -0.295 N 
ATOM      9  N   UNL     1      -3.446   2.802  23.610  0.00  0.00    -0.297 N 
ATOM     23  C   UNL     1      -2.904   1.627  23.097  0.00  0.00    +0.300 C 
ATOM     32  H   UNL     1      -1.056   2.542  23.355  0.00  0.00    +0.151 HD
ATOM     33  H   UNL     1      -2.807   3.504  23.968  0.00  0.00    +0.151 HD
BRANCH   9  15
ATOM     15  C   UNL     1      -4.869   3.024  23.746  0.00  0.00    +0.074 C 
ATOM     16  C   UNL     1      -5.160   4.151  24.741  0.00  0.00    +0.022 C 
ATOM     17  C   UNL     1      -5.592   1.731  24.143  0.00  0.00    +0.022 C 
ATOM     18  C   UNL     1      -4.879   3.742  26.187  0.00  0.00    +0.002 C 
ATOM     19  C   UNL     1      -5.312   1.327  25.590  0.00  0.00    +0.002 C 
ATOM     21  C   UNL     1      -5.618   2.461  26.563  0.00  0.00    +0.000 C 
ENDBRANCH   9  15
ENDBRANCH  11   8
BRANCH  12  20
ATOM      2  O   UNL     1      -0.996  -0.305  26.636  0.00  0.00    -0.274 OA
ATOM     10  N   UNL     1       0.087   1.552  25.742  0.00  0.00    -0.301 N 
ATOM     20  C   UNL     1      -0.315   0.227  25.764  0.00  0.00    +0.234 C 
ATOM     34  H   UNL     1       0.707   1.867  25.003  0.00  0.00    +0.150 HD
BRANCH  10  24
ATOM     24  C   UNL     1      -0.257   2.499  26.779  0.00  0.00    +0.184 C 
BRANCH  24  25
ATOM     25  C   UNL     1      -0.686   3.868  26.208  0.00  0.00    +0.014 C 
ATOM     28  C   UNL     1      -0.240   4.027  24.751  0.00  0.00    +0.009 C 
ATOM     29  C   UNL     1      -2.191   4.129  26.326  0.00  0.00    +0.009 C 
ENDBRANCH  24  25
BRANCH  24  27
ATOM      6  O   UNL     1       1.986   3.056  27.492  0.00  0.00    -0.249 OA
ATOM     27  C   UNL     1       0.869   2.651  27.797  0.00  0.00    +0.328 C 
BRANCH  27   5
ATOM      5  O   UNL     1       0.481   2.288  29.052  0.00  0.00    -0.467 OA
ATOM     31  C   UNL     1       1.518   2.260  30.038  0.00  0.00    +0.280 C 
ENDBRANCH  27   5
ENDBRANCH  24  27
ENDBRANCH  10  24
ENDBRANCH  12  20
BRANCH  22  26
ATOM     26  C   UNL     1      -2.430  -3.239  23.808  0.00  0.00    +0.164 C 
BRANCH  26   1
ATOM      1  S   UNL     1      -4.026  -2.460  24.091  0.00  0.00    -0.155 S 
ATOM     30  C   UNL     1      -3.661  -1.639  25.663  0.00  0.00    +0.085 C 
ENDBRANCH  26   1
ENDBRANCH  22  26
TORSDOF 9
ENDMDL
MODEL 8
REMARK VINA RESULT:       5.3      2.689      7.277
REMARK  Name = 7049410
REMARK  13 active torsions:
REMARK  status: ('A' for Active; 'I' for Inactive)
REMARK    1  A    between atoms: S_1  and  C_26
REMARK    2  A    between atoms: S_1  and  C_30
REMARK    3  A    between atoms: O_5  and  C_27
REMARK    4  A    between atoms: O_5  and  C_31
REMARK    5  A    between atoms: N_8  and  C_11
REMARK    6  A    between atoms: N_9  and  C_15
REMARK    7  A    between atoms: N_10  and  C_24
REMARK    8  A    between atoms: C_12  and  C_20
REMARK    9  A    between atoms: C_22  and  C_26
REMARK   10  A    between atoms: C_24  and  C_25
REMARK   11  A    between atoms: C_24  and  C_27
REMARK   12  A    between atoms: C_25  and  C_28
REMARK   13  A    between atoms: C_25  and  C_29
REMARK                            x       y       z     vdW  Elec       q    Type
REMARK                         _______ _______ _______ _____ _____    ______ ____
ROOT
ATOM      3  O   UNL     1      -4.528   0.756  26.184  0.00  0.00    -0.275 OA
ATOM      7  N   UNL     1      -3.025  -0.114  24.652  0.00  0.00    -0.287 N 
ATOM     11  C   UNL     1      -1.239  -1.089  23.427  0.00  0.00    +0.094 C 
ATOM     12  C   UNL     1      -2.270  -0.915  25.605  0.00  0.00    +0.164 C 
ATOM     13  C   UNL     1      -1.407  -1.839  24.751  0.00  0.00    +0.055 C 
ATOM     14  C   UNL     1      -2.550  -0.323  23.285  0.00  0.00    +0.131 C 
ATOM     22  C   UNL     1      -4.157   0.600  25.019  0.00  0.00    +0.226 C 
ENDROOT
BRANCH  11   8
ATOM      4  O   UNL     1       1.155  -1.314  21.849  0.00  0.00    -0.253 OA
ATOM      8  N   UNL     1      -0.101  -0.204  23.454  0.00  0.00    -0.295 N 
ATOM      9  N   UNL     1       1.973   0.604  22.869  0.00  0.00    -0.297 N 
ATOM     23  C   UNL     1       1.022  -0.389  22.649  0.00  0.00    +0.300 C 
ATOM     32  H   UNL     1      -0.088   0.551  24.133  0.00  0.00    +0.151 HD
ATOM     33  H   UNL     1       1.732   1.360  23.501  0.00  0.00    +0.151 HD
BRANCH   9  15
ATOM     15  C   UNL     1       3.238   0.658  22.170  0.00  0.00    +0.074 C 
ATOM     16  C   UNL     1       3.866  -0.735  22.057  0.00  0.00    +0.022 C 
ATOM     17  C   UNL     1       4.197   1.647  22.843  0.00  0.00    +0.022 C 
ATOM     18  C   UNL     1       4.395  -1.248  23.397  0.00  0.00    +0.002 C 
ATOM     19  C   UNL     1       4.727   1.130  24.180  0.00  0.00    +0.002 C 
ATOM     21  C   UNL     1       5.356  -0.253  24.041  0.00  0.00    +0.000 C 
ENDBRANCH   9  15
ENDBRANCH  11   8
BRANCH  12  20
ATOM      2  O   UNL     1      -0.764  -0.415  27.388  0.00  0.00    -0.274 OA
ATOM     10  N   UNL     1      -1.530   1.321  26.040  0.00  0.00    -0.301 N 
ATOM     20  C   UNL     1      -1.431   0.001  26.445  0.00  0.00    +0.234 C 
ATOM     34  H   UNL     1      -2.060   1.541  25.202  0.00  0.00    +0.150 HD
BRANCH  10  24
ATOM     24  C   UNL     1      -0.837   2.404  26.699  0.00  0.00    +0.184 C 
BRANCH  24  25
ATOM     25  C   UNL     1      -1.477   3.779  26.407  0.00  0.00    +0.014 C 
ATOM     28  C   UNL     1      -1.117   4.272  25.002  0.00  0.00    +0.009 C 
ATOM     29  C   UNL     1      -2.998   3.789  26.591  0.00  0.00    +0.009 C 
ENDBRANCH  24  25
BRANCH  24  27
ATOM      6  O   UNL     1       1.084   2.066  25.268  0.00  0.00    -0.249 OA
ATOM     27  C   UNL     1       0.651   2.405  26.365  0.00  0.00    +0.328 C 
BRANCH  27   5
ATOM      5  O   UNL     1       1.416   2.818  27.415  0.00  0.00    -0.467 OA
ATOM     31  C   UNL     1       0.994   2.364  28.706  0.00  0.00    +0.280 C 
ENDBRANCH  27   5
ENDBRANCH  24  27
ENDBRANCH  10  24
ENDBRANCH  12  20
BRANCH  22  26
ATOM     26  C   UNL     1      -4.936   1.213  23.883  0.00  0.00    +0.164 C 
BRANCH  26   1
ATOM      1  S   UNL     1      -6.434   1.931  24.574  0.00  0.00    -0.155 S 
ATOM     30  C   UNL     1      -5.719   3.431  25.293  0.00  0.00    +0.085 C 
ENDBRANCH  26   1
ENDBRANCH  22  26
TORSDOF 9
ENDMDL
MODEL 9
REMARK VINA RESULT:       5.8      2.314      4.965
REMARK  Name = 7049410
REMARK  13 active torsions:
REMARK  status: ('A' for Active; 'I' for Inactive)
REMARK    1  A    between atoms: S_1  and  C_26
REMARK    2  A    between atoms: S_1  and  C_30
REMARK    3  A    between atoms: O_5  and  C_27
REMARK    4  A    between atoms: O_5  and  C_31
REMARK    5  A    between atoms: N_8  and  C_11
REMARK    6  A    between atoms: N_9  and  C_15
REMARK    7  A    between atoms: N_10  and  C_24
REMARK    8  A    between atoms: C_12  and  C_20
REMARK    9  A    between atoms: C_22  and  C_26
REMARK   10  A    between atoms: C_24  and  C_25
REMARK   11  A    between atoms: C_24  and  C_27
REMARK   12  A    between atoms: C_25  and  C_28
REMARK   13  A    between atoms: C_25  and  C_29
REMARK                            x       y       z     vdW  Elec       q    Type
REMARK                         _______ _______ _______ _____ _____    ______ ____
ROOT
ATOM      3  O   UNL     1      -0.640   3.285  28.206  0.00  0.00    -0.275 OA
ATOM      7  N   UNL     1       0.187   2.556  26.170  0.00  0.00    -0.287 N 
ATOM     11  C   UNL     1       0.670   1.972  23.918  0.00  0.00    +0.094 C 
ATOM     12  C   UNL     1      -0.648   3.413  25.341  0.00  0.00    +0.164 C 
ATOM     13  C   UNL     1      -0.040   3.328  23.943  0.00  0.00    +0.055 C 
ATOM     14  C   UNL     1       1.133   1.788  25.361  0.00  0.00    +0.131 C 
ATOM     22  C   UNL     1       0.174   2.626  27.555  0.00  0.00    +0.226 C 
ENDROOT
BRANCH  11   8
ATOM      4  O   UNL     1      -0.086  -0.343  25.447  0.00  0.00    -0.253 OA
ATOM      8  N   UNL     1      -0.212   0.912  23.499  0.00  0.00    -0.295 N 
ATOM      9  N   UNL     1      -1.396  -1.054  23.668  0.00  0.00    -0.297 N 
ATOM     23  C   UNL     1      -0.525  -0.178  24.310  0.00  0.00    +0.300 C 
ATOM     32  H   UNL     1      -0.571   0.925  22.550  0.00  0.00    +0.151 HD
ATOM     33  H   UNL     1      -1.753  -0.786  22.757  0.00  0.00    +0.151 HD
BRANCH   9  15
ATOM     15  C   UNL     1      -1.887  -2.270  24.276  0.00  0.00    +0.074 C 
ATOM     16  C   UNL     1      -3.072  -2.841  23.492  0.00  0.00    +0.022 C 
ATOM     17  C   UNL     1      -2.253  -2.041  25.747  0.00  0.00    +0.022 C 
ATOM     18  C   UNL     1      -4.341  -2.004  23.658  0.00  0.00    +0.002 C 
ATOM     19  C   UNL     1      -3.523  -1.207  25.910  0.00  0.00    +0.002 C 
ATOM     21  C   UNL     1      -4.691  -1.799  25.129  0.00  0.00    +0.000 C 
ENDBRANCH   9  15
ENDBRANCH  11   8
BRANCH  12  20
ATOM      2  O   UNL     1      -2.352   1.872  25.989  0.00  0.00    -0.274 OA
ATOM     10  N   UNL     1      -2.912   3.652  24.597  0.00  0.00    -0.301 N 
ATOM     20  C   UNL     1      -2.051   2.885  25.364  0.00  0.00    +0.234 C 
ATOM     34  H   UNL     1      -2.567   4.510  24.178  0.00  0.00    +0.150 HD
BRANCH  10  24
ATOM     24  C   UNL     1      -4.314   3.343  24.436  0.00  0.00    +0.184 C 
BRANCH  24  25
ATOM     25  C   UNL     1      -5.136   3.654  25.705  0.00  0.00    +0.014 C 
ATOM     28  C   UNL     1      -6.122   4.801  25.463  0.00  0.00    +0.009 C 
ATOM     29  C   UNL     1      -5.880   2.434  26.259  0.00  0.00    +0.009 C 
ENDBRANCH  24  25
BRANCH  24  27
ATOM      6  O   UNL     1      -5.559   1.284  24.198  0.00  0.00    -0.249 OA
ATOM     27  C   UNL     1      -4.524   1.903  23.979  0.00  0.00    +0.328 C 
BRANCH  27   5
ATOM      5  O   UNL     1      -3.439   1.409  23.318  0.00  0.00    -0.467 OA
ATOM     31  C   UNL     1      -3.070   2.105  22.123  0.00  0.00    +0.280 C 
ENDBRANCH  27   5
ENDBRANCH  24  27
ENDBRANCH  10  24
ENDBRANCH  12  20
BRANCH  22  26
ATOM     26  C   UNL     1       1.235   1.818  28.258  0.00  0.00    +0.164 C 
BRANCH  26   1
ATOM      1  S   UNL     1       1.639   2.665  29.793  0.00  0.00    -0.155 S 
ATOM     30  C   UNL     1       3.120   3.548  29.243  0.00  0.00    +0.085 C 
ENDBRANCH  26   1
ENDBRANCH  22  26
TORSDOF 9
ENDMDL
MODEL 10
REMARK VINA RESULT:       6.2      2.338      6.281
REMARK  Name = 7049410
REMARK  13 active torsions:
REMARK  status: ('A' for Active; 'I' for Inactive)
REMARK    1  A    between atoms: S_1  and  C_26
REMARK    2  A    between atoms: S_1  and  C_30
REMARK    3  A    between atoms: O_5  and  C_27
REMARK    4  A    between atoms: O_5  and  C_31
REMARK    5  A    between atoms: N_8  and  C_11
REMARK    6  A    between atoms: N_9  and  C_15
REMARK    7  A    between atoms: N_10  and  C_24
REMARK    8  A    between atoms: C_12  and  C_20
REMARK    9  A    between atoms: C_22  and  C_26
REMARK   10  A    between atoms: C_24  and  C_25
REMARK   11  A    between atoms: C_24  and  C_27
REMARK   12  A    between atoms: C_25  and  C_28
REMARK   13  A    between atoms: C_25  and  C_29
REMARK                            x       y       z     vdW  Elec       q    Type
REMARK                         _______ _______ _______ _____ _____    ______ ____
ROOT
ATOM      3  O   UNL     1      -5.256   2.007  25.707  0.00  0.00    -0.275 OA
ATOM      7  N   UNL     1      -3.476   2.299  24.255  0.00  0.00    -0.287 N 
ATOM     11  C   UNL     1      -1.690   2.175  22.693  0.00  0.00    +0.094 C 
ATOM     12  C   UNL     1      -3.691   1.079  23.490  0.00  0.00    +0.164 C 
ATOM     13  C   UNL     1      -2.807   1.225  22.254  0.00  0.00    +0.055 C 
ATOM     14  C   UNL     1      -2.380   3.092  23.699  0.00  0.00    +0.131 C 
ATOM     22  C   UNL     1      -4.341   2.702  25.262  0.00  0.00    +0.226 C 
ENDROOT
BRANCH  11   8
ATOM      4  O   UNL     1       0.156   0.431  21.344  0.00  0.00    -0.253 OA
ATOM      8  N   UNL     1      -0.585   1.464  23.286  0.00  0.00    -0.295 N 
ATOM      9  N   UNL     1       1.246   0.072  23.362  0.00  0.00    -0.297 N 
ATOM     23  C   UNL     1       0.264   0.636  22.553  0.00  0.00    +0.300 C 
ATOM     32  H   UNL     1      -0.456   1.516  24.291  0.00  0.00    +0.151 HD
ATOM     33  H   UNL     1       1.287   0.365  24.333  0.00  0.00    +0.151 HD
BRANCH   9  15
ATOM     15  C   UNL     1       2.262  -0.829  22.864  0.00  0.00    +0.074 C 
ATOM     16  C   UNL     1       3.272  -1.181  23.960  0.00  0.00    +0.022 C 
ATOM     17  C   UNL     1       2.961  -0.243  21.632  0.00  0.00    +0.022 C 
ATOM     18  C   UNL     1       4.192  -0.010  24.307  0.00  0.00    +0.002 C 
ATOM     19  C   UNL     1       3.881   0.925  21.982  0.00  0.00    +0.002 C 
ATOM     21  C   UNL     1       4.884   0.548  23.067  0.00  0.00    +0.000 C 
ENDBRANCH   9  15
ENDBRANCH  11   8
BRANCH  12  20
ATOM      2  O   UNL     1      -3.737  -0.282  25.450  0.00  0.00    -0.274 OA
ATOM     10  N   UNL     1      -2.329  -0.880  23.695  0.00  0.00    -0.301 N 
ATOM     20  C   UNL     1      -3.277  -0.093  24.327  0.00  0.00    +0.234 C 
ATOM     34  H   UNL     1      -2.071  -0.666  22.737  0.00  0.00    +0.150 HD
BRANCH  10  24
ATOM     24  C   UNL     1      -1.749  -2.058  24.299  0.00  0.00    +0.184 C 
BRANCH  24  25
ATOM     25  C   UNL     1      -2.818  -3.082  24.738  0.00  0.00    +0.014 C 
ATOM     28  C   UNL     1      -3.163  -2.924  26.222  0.00  0.00    +0.009 C 
ATOM     29  C   UNL     1      -4.097  -3.021  23.895  0.00  0.00    +0.009 C 
ENDBRANCH  24  25
BRANCH  24  27
ATOM      6  O   UNL     1       0.255  -2.259  25.637  0.00  0.00    -0.249 OA
ATOM     27  C   UNL     1      -0.820  -1.698  25.454  0.00  0.00    +0.328 C 
BRANCH  27   5
ATOM      5  O   UNL     1      -1.328  -0.702  26.233  0.00  0.00    -0.467 OA
ATOM     31  C   UNL     1      -0.589   0.524  26.234  0.00  0.00    +0.280 C 
ENDBRANCH  27   5
ENDBRANCH  24  27
ENDBRANCH  10  24
ENDBRANCH  12  20
BRANCH  22  26
ATOM     26  C   UNL     1      -4.092   4.081  25.820  0.00  0.00    +0.164 C 
BRANCH  26   1
ATOM      1  S   UNL     1      -2.411   4.116  26.458  0.00  0.00    -0.155 S 
ATOM     30  C   UNL     1      -1.684   5.272  25.269  0.00  0.00    +0.085 C 
ENDBRANCH  26   1
ENDBRANCH  22  26
TORSDOF 9
ENDMDL
