MODEL 1
REMARK VINA RESULT:       9.0      0.000      0.000
REMARK  Name = 11885179
REMARK  3 active torsions:
REMARK  status: ('A' for Active; 'I' for Inactive)
REMARK    1  A    between atoms: C_16  and  C_19
REMARK    2  A    between atoms: C_17  and  C_20
REMARK    3  A    between atoms: C_28  and  C_29
REMARK                            x       y       z     vdW  Elec       q    Type
REMARK                         _______ _______ _______ _____ _____    ______ ____
ROOT
ATOM      2  O   UNL     1      -2.064   4.009  28.118  0.00  0.00    -0.267 OA
ATOM      3  O   UNL     1      -5.687   0.902  26.466  0.00  0.00    -0.270 OA
ATOM      4  N   UNL     1      -5.015   2.112  24.606  0.00  0.00    -0.297 N 
ATOM      5  N   UNL     1      -2.687   3.816  25.879  0.00  0.00    -0.311 N 
ATOM      7  C   UNL     1      -4.980   4.565  25.016  0.00  0.00    +0.027 C 
ATOM      8  C   UNL     1      -3.354   3.562  23.464  0.00  0.00    +0.054 C 
ATOM      9  C   UNL     1      -4.257   4.773  23.690  0.00  0.00    +0.018 C 
ATOM     10  C   UNL     1      -5.824   3.277  24.971  0.00  0.00    +0.113 C 
ATOM     11  C   UNL     1      -3.941   4.536  26.144  0.00  0.00    +0.130 C 
ATOM     12  C   UNL     1      -4.214   2.283  23.381  0.00  0.00    +0.117 C 
ATOM     13  C   UNL     1      -2.342   3.419  24.584  0.00  0.00    +0.027 A 
ATOM     14  C   UNL     1      -1.139   2.873  24.344  0.00  0.00    +0.022 A 
ATOM     15  C   UNL     1      -1.812   3.643  26.970  0.00  0.00    +0.260 A 
ATOM     16  C   UNL     1      -4.992   0.987  25.451  0.00  0.00    +0.247 C 
ATOM     17  C   UNL     1      -0.490   2.985  26.677  0.00  0.00    +0.053 A 
ATOM     18  C   UNL     1      -0.204   2.650  25.409  0.00  0.00    +0.016 A 
ENDROOT
BRANCH  16  19
ATOM     19  C   UNL     1      -4.076  -0.089  25.100  0.00  0.00    +0.037 A 
ATOM     21  C   UNL     1      -2.770  -0.074  25.583  0.00  0.00    +0.014 A 
ATOM     22  C   UNL     1      -4.511  -1.129  24.283  0.00  0.00    +0.014 A 
ATOM     24  C   UNL     1      -1.894  -1.106  25.247  0.00  0.00    +0.019 A 
ATOM     25  C   UNL     1      -3.635  -2.162  23.947  0.00  0.00    +0.019 A 
ATOM     28  C   UNL     1      -2.326  -2.149  24.430  0.00  0.00    +0.052 A 
BRANCH  28  29
ATOM      6  N   UNL     1      -0.696  -4.064  23.803  0.00  0.00    -0.191 NA
ATOM     29  C   UNL     1      -1.427  -3.205  24.084  0.00  0.00    +0.099 C 
ENDBRANCH  28  29
ENDBRANCH  16  19
BRANCH  17  20
ATOM      1  S   UNL     1       2.116   3.146  27.564  0.00  0.00    -0.096 S 
ATOM     20  C   UNL     1       0.471   2.694  27.752  0.00  0.00    +0.024 A 
ATOM     23  C   UNL     1       0.251   2.077  28.970  0.00  0.00    +0.016 A 
ATOM     26  C   UNL     1       1.439   1.975  29.749  0.00  0.00    +0.008 A 
ATOM     27  C   UNL     1       2.529   2.518  29.103  0.00  0.00    +0.046 A 
ENDBRANCH  17  20
TORSDOF 3
ENDMDL
MODEL 2
REMARK VINA RESULT:       9.4      3.113      6.020
REMARK  Name = 11885179
REMARK  3 active torsions:
REMARK  status: ('A' for Active; 'I' for Inactive)
REMARK    1  A    between atoms: C_16  and  C_19
REMARK    2  A    between atoms: C_17  and  C_20
REMARK    3  A    between atoms: C_28  and  C_29
REMARK                            x       y       z     vdW  Elec       q    Type
REMARK                         _______ _______ _______ _____ _____    ______ ____
ROOT
ATOM      2  O   UNL     1       0.323  -1.873  22.556  0.00  0.00    -0.267 OA
ATOM      3  O   UNL     1      -4.173   0.385  22.109  0.00  0.00    -0.270 OA
ATOM      4  N   UNL     1      -4.102  -0.428  24.279  0.00  0.00    -0.297 N 
ATOM      5  N   UNL     1      -1.182  -1.619  24.318  0.00  0.00    -0.311 N 
ATOM      7  C   UNL     1      -3.442  -2.824  24.387  0.00  0.00    +0.027 C 
ATOM      8  C   UNL     1      -2.811  -1.299  26.213  0.00  0.00    +0.054 C 
ATOM      9  C   UNL     1      -3.298  -2.712  25.901  0.00  0.00    +0.018 C 
ATOM     10  C   UNL     1      -4.457  -1.788  23.867  0.00  0.00    +0.113 C 
ATOM     11  C   UNL     1      -2.059  -2.650  23.746  0.00  0.00    +0.130 C 
ATOM     12  C   UNL     1      -3.854  -0.272  25.723  0.00  0.00    +0.117 C 
ATOM     13  C   UNL     1      -1.477  -1.021  25.547  0.00  0.00    +0.027 A 
ATOM     14  C   UNL     1      -0.602  -0.173  26.112  0.00  0.00    +0.022 A 
ATOM     15  C   UNL     1       0.012  -1.343  23.623  0.00  0.00    +0.260 A 
ATOM     16  C   UNL     1      -3.949   0.577  23.307  0.00  0.00    +0.247 C 
ATOM     17  C   UNL     1       0.949  -0.352  24.258  0.00  0.00    +0.053 A 
ATOM     18  C   UNL     1       0.625   0.168  25.452  0.00  0.00    +0.016 A 
ENDROOT
BRANCH  16  19
ATOM     19  C   UNL     1      -3.476   1.876  23.763  0.00  0.00    +0.037 A 
ATOM     21  C   UNL     1      -4.389   2.834  24.197  0.00  0.00    +0.014 A 
ATOM     22  C   UNL     1      -2.111   2.154  23.765  0.00  0.00    +0.014 A 
ATOM     24  C   UNL     1      -3.934   4.078  24.636  0.00  0.00    +0.019 A 
ATOM     25  C   UNL     1      -1.656   3.398  24.205  0.00  0.00    +0.019 A 
ATOM     28  C   UNL     1      -2.569   4.360  24.639  0.00  0.00    +0.052 A 
BRANCH  28  29
ATOM      6  N   UNL     1      -1.726   6.671  25.451  0.00  0.00    -0.191 NA
ATOM     29  C   UNL     1      -2.104   5.635  25.087  0.00  0.00    +0.099 C 
ENDBRANCH  28  29
ENDBRANCH  16  19
BRANCH  17  20
ATOM      1  S   UNL     1       3.551  -0.989  23.599  0.00  0.00    -0.096 S 
ATOM     20  C   UNL     1       2.192   0.060  23.586  0.00  0.00    +0.024 A 
ATOM     23  C   UNL     1       2.462   1.230  22.901  0.00  0.00    +0.016 A 
ATOM     26  C   UNL     1       3.789   1.263  22.386  0.00  0.00    +0.008 A 
ATOM     27  C   UNL     1       4.492   0.118  22.693  0.00  0.00    +0.046 A 
ENDBRANCH  17  20
TORSDOF 3
ENDMDL
MODEL 3
REMARK VINA RESULT:       9.8      2.924      5.255
REMARK  Name = 11885179
REMARK  3 active torsions:
REMARK  status: ('A' for Active; 'I' for Inactive)
REMARK    1  A    between atoms: C_16  and  C_19
REMARK    2  A    between atoms: C_17  and  C_20
REMARK    3  A    between atoms: C_28  and  C_29
REMARK                            x       y       z     vdW  Elec       q    Type
REMARK                         _______ _______ _______ _____ _____    ______ ____
ROOT
ATOM      2  O   UNL     1      -3.964   2.593  25.956  0.00  0.00    -0.267 OA
ATOM      3  O   UNL     1      -0.864  -1.280  26.905  0.00  0.00    -0.270 OA
ATOM      4  N   UNL     1      -2.062  -1.895  25.018  0.00  0.00    -0.297 N 
ATOM      5  N   UNL     1      -3.763   0.725  24.577  0.00  0.00    -0.311 N 
ATOM      7  C   UNL     1      -4.517  -1.613  25.304  0.00  0.00    +0.027 C 
ATOM      8  C   UNL     1      -3.500  -1.289  23.086  0.00  0.00    +0.054 C 
ATOM      9  C   UNL     1      -4.716  -1.861  23.812  0.00  0.00    +0.018 C 
ATOM     10  C   UNL     1      -3.233  -2.307  25.796  0.00  0.00    +0.113 C 
ATOM     11  C   UNL     1      -4.489  -0.100  25.553  0.00  0.00    +0.130 C 
ATOM     12  C   UNL     1      -2.225  -2.018  23.558  0.00  0.00    +0.117 C 
ATOM     13  C   UNL     1      -3.358   0.199  23.346  0.00  0.00    +0.027 A 
ATOM     14  C   UNL     1      -2.807   0.999  22.420  0.00  0.00    +0.022 A 
ATOM     15  C   UNL     1      -3.592   2.085  24.898  0.00  0.00    +0.260 A 
ATOM     16  C   UNL     1      -0.941  -1.357  25.676  0.00  0.00    +0.247 C 
ATOM     17  C   UNL     1      -2.927   2.946  23.858  0.00  0.00    +0.053 A 
ATOM     18  C   UNL     1      -2.585   2.391  22.685  0.00  0.00    +0.016 A 
ENDROOT
BRANCH  16  19
ATOM     19  C   UNL     1       0.140  -0.851  24.842  0.00  0.00    +0.037 A 
ATOM     21  C   UNL     1       1.184  -1.694  24.475  0.00  0.00    +0.014 A 
ATOM     22  C   UNL     1       0.123   0.474  24.416  0.00  0.00    +0.014 A 
ATOM     24  C   UNL     1       2.219  -1.210  23.674  0.00  0.00    +0.019 A 
ATOM     25  C   UNL     1       1.157   0.959  23.614  0.00  0.00    +0.019 A 
ATOM     28  C   UNL     1       2.205   0.117  23.244  0.00  0.00    +0.052 A 
BRANCH  28  29
ATOM      6  N   UNL     1       4.130   1.017  21.762  0.00  0.00    -0.191 NA
ATOM     29  C   UNL     1       3.267   0.614  22.426  0.00  0.00    +0.099 C 
ENDBRANCH  28  29
ENDBRANCH  16  19
BRANCH  17  20
ATOM      1  S   UNL     1      -1.240   4.798  25.012  0.00  0.00    -0.096 S 
ATOM     20  C   UNL     1      -2.638   4.366  24.115  0.00  0.00    +0.024 A 
ATOM     23  C   UNL     1      -3.355   5.482  23.727  0.00  0.00    +0.016 A 
ATOM     26  C   UNL     1      -2.753   6.695  24.169  0.00  0.00    +0.008 A 
ATOM     27  C   UNL     1      -1.595   6.467  24.880  0.00  0.00    +0.046 A 
ENDBRANCH  17  20
TORSDOF 3
ENDMDL
MODEL 4
REMARK VINA RESULT:      11.4      2.920      5.421
REMARK  Name = 11885179
REMARK  3 active torsions:
REMARK  status: ('A' for Active; 'I' for Inactive)
REMARK    1  A    between atoms: C_16  and  C_19
REMARK    2  A    between atoms: C_17  and  C_20
REMARK    3  A    between atoms: C_28  and  C_29
REMARK                            x       y       z     vdW  Elec       q    Type
REMARK                         _______ _______ _______ _____ _____    ______ ____
ROOT
ATOM      2  O   UNL     1      -1.347   1.858  21.827  0.00  0.00    -0.267 OA
ATOM      3  O   UNL     1      -2.486   5.149  25.486  0.00  0.00    -0.270 OA
ATOM      4  N   UNL     1      -3.799   3.284  25.901  0.00  0.00    -0.297 N 
ATOM      5  N   UNL     1      -2.778   1.378  23.604  0.00  0.00    -0.311 N 
ATOM      7  C   UNL     1      -5.052   2.523  23.891  0.00  0.00    +0.027 C 
ATOM      8  C   UNL     1      -4.292   0.875  25.554  0.00  0.00    +0.054 C 
ATOM      9  C   UNL     1      -5.446   1.246  24.625  0.00  0.00    +0.018 C 
ATOM     10  C   UNL     1      -4.796   3.662  24.897  0.00  0.00    +0.113 C 
ATOM     11  C   UNL     1      -3.822   2.233  23.022  0.00  0.00    +0.130 C 
ATOM     12  C   UNL     1      -4.071   2.005  26.581  0.00  0.00    +0.117 C 
ATOM     13  C   UNL     1      -3.013   0.646  24.772  0.00  0.00    +0.027 A 
ATOM     14  C   UNL     1      -2.091  -0.222  25.220  0.00  0.00    +0.022 A 
ATOM     15  C   UNL     1      -1.578   1.256  22.876  0.00  0.00    +0.260 A 
ATOM     16  C   UNL     1      -2.657   4.086  26.086  0.00  0.00    +0.247 C 
ATOM     17  C   UNL     1      -0.546   0.311  23.430  0.00  0.00    +0.053 A 
ATOM     18  C   UNL     1      -0.839  -0.385  24.539  0.00  0.00    +0.016 A 
ENDROOT
BRANCH  16  19
ATOM     19  C   UNL     1      -1.643   3.595  27.008  0.00  0.00    +0.037 A 
ATOM     21  C   UNL     1      -1.838   3.715  28.381  0.00  0.00    +0.014 A 
ATOM     22  C   UNL     1      -0.483   3.007  26.512  0.00  0.00    +0.014 A 
ATOM     24  C   UNL     1      -0.866   3.243  29.265  0.00  0.00    +0.019 A 
ATOM     25  C   UNL     1       0.489   2.534  27.394  0.00  0.00    +0.019 A 
ATOM     28  C   UNL     1       0.296   2.653  28.771  0.00  0.00    +0.052 A 
BRANCH  28  29
ATOM      6  N   UNL     1       2.102   1.779  30.411  0.00  0.00    -0.191 NA
ATOM     29  C   UNL     1       1.292   2.171  29.676  0.00  0.00    +0.099 C 
ENDBRANCH  28  29
ENDBRANCH  16  19
BRANCH  17  20
ATOM      1  S   UNL     1       2.148   0.900  23.486  0.00  0.00    -0.096 S 
ATOM     20  C   UNL     1       0.769   0.157  22.787  0.00  0.00    +0.024 A 
ATOM     23  C   UNL     1       1.095  -0.535  21.635  0.00  0.00    +0.016 A 
ATOM     26  C   UNL     1       2.483  -0.452  21.329  0.00  0.00    +0.008 A 
ATOM     27  C   UNL     1       3.174   0.299  22.255  0.00  0.00    +0.046 A 
ENDBRANCH  17  20
TORSDOF 3
ENDMDL
MODEL 5
REMARK VINA RESULT:      11.7      2.780      3.529
REMARK  Name = 11885179
REMARK  3 active torsions:
REMARK  status: ('A' for Active; 'I' for Inactive)
REMARK    1  A    between atoms: C_16  and  C_19
REMARK    2  A    between atoms: C_17  and  C_20
REMARK    3  A    between atoms: C_28  and  C_29
REMARK                            x       y       z     vdW  Elec       q    Type
REMARK                         _______ _______ _______ _____ _____    ______ ____
ROOT
ATOM      2  O   UNL     1       0.946   2.209  25.197  0.00  0.00    -0.267 OA
ATOM      3  O   UNL     1      -3.344   0.303  27.059  0.00  0.00    -0.270 OA
ATOM      4  N   UNL     1      -3.964   1.484  25.163  0.00  0.00    -0.297 N 
ATOM      5  N   UNL     1      -1.125   2.406  24.145  0.00  0.00    -0.311 N 
ATOM      7  C   UNL     1      -3.043   3.794  25.125  0.00  0.00    +0.027 C 
ATOM      8  C   UNL     1      -3.369   2.573  23.012  0.00  0.00    +0.054 C 
ATOM      9  C   UNL     1      -3.489   3.944  23.674  0.00  0.00    +0.018 C 
ATOM     10  C   UNL     1      -3.934   2.773  25.857  0.00  0.00    +0.113 C 
ATOM     11  C   UNL     1      -1.563   3.389  25.146  0.00  0.00    +0.130 C 
ATOM     12  C   UNL     1      -4.296   1.569  23.730  0.00  0.00    +0.117 C 
ATOM     13  C   UNL     1      -1.940   2.066  23.061  0.00  0.00    +0.027 A 
ATOM     14  C   UNL     1      -1.474   1.261  22.093  0.00  0.00    +0.022 A 
ATOM     15  C   UNL     1       0.186   1.908  24.276  0.00  0.00    +0.260 A 
ATOM     16  C   UNL     1      -3.612   0.311  25.856  0.00  0.00    +0.247 C 
ATOM     17  C   UNL     1       0.662   0.970  23.200  0.00  0.00    +0.053 A 
ATOM     18  C   UNL     1      -0.155   0.703  22.170  0.00  0.00    +0.016 A 
ENDROOT
BRANCH  16  19
ATOM     19  C   UNL     1      -3.541  -0.921  25.083  0.00  0.00    +0.037 A 
ATOM     21  C   UNL     1      -4.636  -1.329  24.326  0.00  0.00    +0.014 A 
ATOM     22  C   UNL     1      -2.377  -1.685  25.104  0.00  0.00    +0.014 A 
ATOM     24  C   UNL     1      -4.566  -2.509  23.584  0.00  0.00    +0.019 A 
ATOM     25  C   UNL     1      -2.306  -2.864  24.362  0.00  0.00    +0.019 A 
ATOM     28  C   UNL     1      -3.402  -3.276  23.603  0.00  0.00    +0.052 A 
BRANCH  28  29
ATOM      6  N   UNL     1      -3.274  -5.469  22.228  0.00  0.00    -0.191 NA
ATOM     29  C   UNL     1      -3.332  -4.486  22.844  0.00  0.00    +0.099 C 
ENDBRANCH  28  29
ENDBRANCH  16  19
BRANCH  17  20
ATOM      1  S   UNL     1       3.383   1.242  22.837  0.00  0.00    -0.096 S 
ATOM     20  C   UNL     1       1.990   0.339  23.273  0.00  0.00    +0.024 A 
ATOM     23  C   UNL     1       2.320  -0.947  23.660  0.00  0.00    +0.016 A 
ATOM     26  C   UNL     1       3.722  -1.189  23.597  0.00  0.00    +0.008 A 
ATOM     27  C   UNL     1       4.419  -0.081  23.165  0.00  0.00    +0.046 A 
ENDBRANCH  17  20
TORSDOF 3
ENDMDL
MODEL 6
REMARK VINA RESULT:      11.8      3.559      5.728
REMARK  Name = 11885179
REMARK  3 active torsions:
REMARK  status: ('A' for Active; 'I' for Inactive)
REMARK    1  A    between atoms: C_16  and  C_19
REMARK    2  A    between atoms: C_17  and  C_20
REMARK    3  A    between atoms: C_28  and  C_29
REMARK                            x       y       z     vdW  Elec       q    Type
REMARK                         _______ _______ _______ _____ _____    ______ ____
ROOT
ATOM      2  O   UNL     1       0.811   0.801  21.802  0.00  0.00    -0.267 OA
ATOM      3  O   UNL     1      -1.529   4.327  24.560  0.00  0.00    -0.270 OA
ATOM      4  N   UNL     1      -2.747   2.380  24.883  0.00  0.00    -0.297 N 
ATOM      5  N   UNL     1      -0.997   0.360  23.207  0.00  0.00    -0.311 N 
ATOM      7  C   UNL     1      -3.352   1.259  22.747  0.00  0.00    +0.027 C 
ATOM      8  C   UNL     1      -2.928  -0.093  24.760  0.00  0.00    +0.054 C 
ATOM      9  C   UNL     1      -3.820   0.034  23.527  0.00  0.00    +0.018 C 
ATOM     10  C   UNL     1      -3.468   2.524  23.617  0.00  0.00    +0.113 C 
ATOM     11  C   UNL     1      -1.915   1.017  22.266  0.00  0.00    +0.130 C 
ATOM     12  C   UNL     1      -3.083   1.163  25.642  0.00  0.00    +0.117 C 
ATOM     13  C   UNL     1      -1.472  -0.259  24.367  0.00  0.00    +0.027 A 
ATOM     14  C   UNL     1      -0.635  -0.958  25.150  0.00  0.00    +0.022 A 
ATOM     15  C   UNL     1       0.359   0.297  22.831  0.00  0.00    +0.260 A 
ATOM     16  C   UNL     1      -1.766   3.325  25.238  0.00  0.00    +0.247 C 
ATOM     17  C   UNL     1       1.281  -0.453  23.754  0.00  0.00    +0.053 A 
ATOM     18  C   UNL     1       0.762  -1.050  24.838  0.00  0.00    +0.016 A 
ENDROOT
BRANCH  16  19
ATOM     19  C   UNL     1      -0.997   3.062  26.446  0.00  0.00    +0.037 A 
ATOM     21  C   UNL     1      -1.560   3.309  27.695  0.00  0.00    +0.014 A 
ATOM     22  C   UNL     1       0.299   2.562  26.347  0.00  0.00    +0.014 A 
ATOM     24  C   UNL     1      -0.823   3.055  28.852  0.00  0.00    +0.019 A 
ATOM     25  C   UNL     1       1.036   2.307  27.503  0.00  0.00    +0.019 A 
ATOM     28  C   UNL     1       0.474   2.554  28.756  0.00  0.00    +0.052 A 
BRANCH  28  29
ATOM      6  N   UNL     1       1.843   2.086  30.906  0.00  0.00    -0.191 NA
ATOM     29  C   UNL     1       1.230   2.296  29.942  0.00  0.00    +0.099 C 
ENDBRANCH  28  29
ENDBRANCH  16  19
BRANCH  17  20
ATOM      1  S   UNL     1       3.516   0.787  22.716  0.00  0.00    -0.096 S 
ATOM     20  C   UNL     1       2.728  -0.525  23.493  0.00  0.00    +0.024 A 
ATOM     23  C   UNL     1       3.614  -1.544  23.791  0.00  0.00    +0.016 A 
ATOM     26  C   UNL     1       4.943  -1.244  23.378  0.00  0.00    +0.008 A 
ATOM     27  C   UNL     1       5.032  -0.006  22.779  0.00  0.00    +0.046 A 
ENDBRANCH  17  20
TORSDOF 3
ENDMDL
