MODEL 1
REMARK VINA RESULT:      11.8      0.000      0.000
REMARK  Name = 7113949
REMARK  6 active torsions:
REMARK  status: ('A' for Active; 'I' for Inactive)
REMARK    1  A    between atoms: S_2  and  N_11
REMARK    2  A    between atoms: S_2  and  C_25
REMARK    3  A    between atoms: O_7  and  C_32
REMARK    4  A    between atoms: O_7  and  C_36
REMARK    5  A    between atoms: N_10  and  C_24
REMARK    6  A    between atoms: N_11  and  C_22
REMARK                            x       y       z     vdW  Elec       q    Type
REMARK                         _______ _______ _______ _____ _____    ______ ____
ROOT
ATOM      3  O   UNL     1      -0.115   2.435  26.529  0.00  0.00    -0.266 OA
ATOM      4  O   UNL     1      -4.899   0.268  26.604  0.00  0.00    -0.252 OA
ATOM      8  N   UNL     1      -4.990   2.210  25.350  0.00  0.00    -0.284 N 
ATOM      9  N   UNL     1      -1.972   3.252  25.358  0.00  0.00    -0.310 N 
ATOM     10  N   UNL     1      -4.886   0.104  24.291  0.00  0.00    -0.269 N 
ATOM     12  C   UNL     1      -4.042   4.210  26.515  0.00  0.00    +0.027 C 
ATOM     13  C   UNL     1      -3.969   4.082  24.061  0.00  0.00    +0.054 C 
ATOM     14  C   UNL     1      -4.212   5.024  25.238  0.00  0.00    +0.018 C 
ATOM     15  C   UNL     1      -5.053   3.051  26.550  0.00  0.00    +0.114 C 
ATOM     16  C   UNL     1      -2.594   3.716  26.604  0.00  0.00    +0.130 C 
ATOM     17  C   UNL     1      -5.016   2.948  24.074  0.00  0.00    +0.119 C 
ATOM     18  C   UNL     1      -2.573   3.488  24.114  0.00  0.00    +0.027 A 
ATOM     19  C   UNL     1      -1.934   3.162  22.976  0.00  0.00    +0.024 A 
ATOM     20  C   UNL     1      -0.700   2.654  25.468  0.00  0.00    +0.274 A 
ATOM     21  C   UNL     1      -4.916   0.807  25.494  0.00  0.00    +0.306 C 
ATOM     22  C   UNL     1      -0.057   2.292  24.180  0.00  0.00    +0.112 A 
ATOM     23  C   UNL     1      -0.636   2.544  23.006  0.00  0.00    +0.031 A 
ATOM     37  H   UNL     1      -5.328   0.521  23.479  0.00  0.00    +0.156 HD
ENDROOT
BRANCH  10  24
ATOM     24  C   UNL     1      -4.340  -1.183  24.066  0.00  0.00    +0.035 A 
ATOM     26  C   UNL     1      -3.024  -1.450  24.434  0.00  0.00    +0.027 A 
ATOM     27  C   UNL     1      -5.121  -2.173  23.476  0.00  0.00    +0.027 A 
ATOM     28  C   UNL     1      -2.484  -2.717  24.210  0.00  0.00    +0.047 A 
ATOM     29  C   UNL     1      -4.582  -3.440  23.253  0.00  0.00    +0.047 A 
ATOM     32  C   UNL     1      -3.263  -3.712  23.621  0.00  0.00    +0.120 A 
BRANCH  32   7
ATOM      7  O   UNL     1      -2.738  -4.949  23.404  0.00  0.00    -0.495 OA
ATOM     36  C   UNL     1      -1.525  -5.018  22.657  0.00  0.00    +0.277 C 
ENDBRANCH  32   7
ENDBRANCH  10  24
BRANCH  22  11
ATOM     11  N   UNL     1       1.210   1.682  24.168  0.00  0.00    -0.211 N 
ATOM     38  H   UNL     1       1.965   2.335  23.917  0.00  0.00    +0.174 HD
BRANCH  11   2
ATOM      2  S   UNL     1       1.323   0.160  23.435  0.00  0.00    +0.072 S 
ATOM      5  O   UNL     1       0.805  -0.855  24.334  0.00  0.00    -0.150 OA
ATOM      6  O   UNL     1       0.844   0.239  22.067  0.00  0.00    -0.150 OA
BRANCH   2  25
ATOM      1 CL   UNL     1       7.535  -0.554  23.204  0.00  0.00    -0.084 Cl
ATOM     25  C   UNL     1       3.079  -0.043  23.368  0.00  0.00    +0.109 A 
ATOM     30  C   UNL     1       3.641  -1.219  23.832  0.00  0.00    +0.030 A 
ATOM     31  C   UNL     1       3.857   0.980  22.855  0.00  0.00    +0.030 A 
ATOM     33  C   UNL     1       5.025  -1.378  23.780  0.00  0.00    +0.022 A 
ATOM     34  C   UNL     1       5.243   0.821  22.804  0.00  0.00    +0.022 A 
ATOM     35  C   UNL     1       5.826  -0.358  23.266  0.00  0.00    +0.041 A 
ENDBRANCH   2  25
ENDBRANCH  11   2
ENDBRANCH  22  11
TORSDOF 5
ENDMDL
MODEL 2
REMARK VINA RESULT:      12.9      3.454      7.356
REMARK  Name = 7113949
REMARK  6 active torsions:
REMARK  status: ('A' for Active; 'I' for Inactive)
REMARK    1  A    between atoms: S_2  and  N_11
REMARK    2  A    between atoms: S_2  and  C_25
REMARK    3  A    between atoms: O_7  and  C_32
REMARK    4  A    between atoms: O_7  and  C_36
REMARK    5  A    between atoms: N_10  and  C_24
REMARK    6  A    between atoms: N_11  and  C_22
REMARK                            x       y       z     vdW  Elec       q    Type
REMARK                         _______ _______ _______ _____ _____    ______ ____
ROOT
ATOM      3  O   UNL     1      -1.650   2.489  26.359  0.00  0.00    -0.266 OA
ATOM      4  O   UNL     1       0.779  -2.148  25.921  0.00  0.00    -0.252 OA
ATOM      8  N   UNL     1      -1.128  -2.189  24.610  0.00  0.00    -0.284 N 
ATOM      9  N   UNL     1      -2.336   0.747  24.950  0.00  0.00    -0.310 N 
ATOM     10  N   UNL     1       0.992  -1.846  23.632  0.00  0.00    -0.269 N 
ATOM     12  C   UNL     1      -3.202  -1.496  25.822  0.00  0.00    +0.027 C 
ATOM     13  C   UNL     1      -3.025  -1.119  23.400  0.00  0.00    +0.054 C 
ATOM     14  C   UNL     1      -3.977  -1.551  24.512  0.00  0.00    +0.018 C 
ATOM     15  C   UNL     1      -1.990  -2.440  25.769  0.00  0.00    +0.114 C 
ATOM     16  C   UNL     1      -2.792  -0.045  26.099  0.00  0.00    +0.130 C 
ATOM     17  C   UNL     1      -1.835  -2.098  23.320  0.00  0.00    +0.119 C 
ATOM     18  C   UNL     1      -2.511   0.290  23.637  0.00  0.00    +0.027 A 
ATOM     19  C   UNL     1      -2.195   1.079  22.593  0.00  0.00    +0.024 A 
ATOM     20  C   UNL     1      -1.812   2.026  25.229  0.00  0.00    +0.274 A 
ATOM     21  C   UNL     1       0.265  -2.058  24.803  0.00  0.00    +0.306 C 
ATOM     22  C   UNL     1      -1.459   2.839  24.039  0.00  0.00    +0.112 A 
ATOM     23  C   UNL     1      -1.652   2.394  22.797  0.00  0.00    +0.031 A 
ATOM     37  H   UNL     1       0.619  -2.207  22.761  0.00  0.00    +0.156 HD
ENDROOT
BRANCH  10  24
ATOM     24  C   UNL     1       2.251  -1.209  23.511  0.00  0.00    +0.035 A 
ATOM     26  C   UNL     1       3.398  -1.847  23.978  0.00  0.00    +0.027 A 
ATOM     27  C   UNL     1       2.336   0.052  22.926  0.00  0.00    +0.027 A 
ATOM     28  C   UNL     1       4.638  -1.218  23.862  0.00  0.00    +0.047 A 
ATOM     29  C   UNL     1       3.576   0.680  22.809  0.00  0.00    +0.047 A 
ATOM     32  C   UNL     1       4.727   0.044  23.276  0.00  0.00    +0.120 A 
BRANCH  32   7
ATOM      7  O   UNL     1       5.937   0.657  23.160  0.00  0.00    -0.495 OA
ATOM     36  C   UNL     1       7.090  -0.182  23.137  0.00  0.00    +0.277 C 
ENDBRANCH  32   7
ENDBRANCH  10  24
BRANCH  22  11
ATOM     11  N   UNL     1      -0.920   4.128  24.196  0.00  0.00    -0.211 N 
ATOM     38  H   UNL     1      -0.042   4.131  24.733  0.00  0.00    +0.174 HD
BRANCH  11   2
ATOM      2  S   UNL     1      -1.997   5.369  24.601  0.00  0.00    +0.072 S 
ATOM      5  O   UNL     1      -1.501   6.088  25.759  0.00  0.00    -0.150 OA
ATOM      6  O   UNL     1      -2.384   6.091  23.403  0.00  0.00    -0.150 OA
BRANCH   2  25
ATOM      1 CL   UNL     1      -6.955   2.035  26.459  0.00  0.00    -0.084 Cl
ATOM     25  C   UNL     1      -3.400   4.428  25.126  0.00  0.00    +0.109 A 
ATOM     30  C   UNL     1      -3.691   4.348  26.476  0.00  0.00    +0.030 A 
ATOM     31  C   UNL     1      -4.178   3.789  24.177  0.00  0.00    +0.030 A 
ATOM     33  C   UNL     1      -4.796   3.605  26.890  0.00  0.00    +0.022 A 
ATOM     34  C   UNL     1      -5.283   3.045  24.591  0.00  0.00    +0.022 A 
ATOM     35  C   UNL     1      -5.592   2.953  25.947  0.00  0.00    +0.041 A 
ENDBRANCH   2  25
ENDBRANCH  11   2
ENDBRANCH  22  11
TORSDOF 5
ENDMDL
MODEL 3
REMARK VINA RESULT:      15.3      2.502      5.323
REMARK  Name = 7113949
REMARK  6 active torsions:
REMARK  status: ('A' for Active; 'I' for Inactive)
REMARK    1  A    between atoms: S_2  and  N_11
REMARK    2  A    between atoms: S_2  and  C_25
REMARK    3  A    between atoms: O_7  and  C_32
REMARK    4  A    between atoms: O_7  and  C_36
REMARK    5  A    between atoms: N_10  and  C_24
REMARK    6  A    between atoms: N_11  and  C_22
REMARK                            x       y       z     vdW  Elec       q    Type
REMARK                         _______ _______ _______ _____ _____    ______ ____
ROOT
ATOM      3  O   UNL     1      -2.014   0.482  22.514  0.00  0.00    -0.266 OA
ATOM      4  O   UNL     1      -1.633   4.808  25.469  0.00  0.00    -0.252 OA
ATOM      8  N   UNL     1      -3.774   3.957  25.681  0.00  0.00    -0.284 N 
ATOM      9  N   UNL     1      -3.707   1.301  23.911  0.00  0.00    -0.310 N 
ATOM     10  N   UNL     1      -2.165   3.586  27.366  0.00  0.00    -0.269 N 
ATOM     12  C   UNL     1      -4.909   3.520  23.496  0.00  0.00    +0.027 C 
ATOM     13  C   UNL     1      -5.495   2.168  25.463  0.00  0.00    +0.054 C 
ATOM     14  C   UNL     1      -6.071   2.873  24.237  0.00  0.00    +0.018 C 
ATOM     15  C   UNL     1      -4.194   4.537  24.401  0.00  0.00    +0.114 C 
ATOM     16  C   UNL     1      -3.961   2.423  22.999  0.00  0.00    +0.130 C 
ATOM     17  C   UNL     1      -4.821   3.200  26.392  0.00  0.00    +0.119 C 
ATOM     18  C   UNL     1      -4.484   1.108  25.061  0.00  0.00    +0.027 A 
ATOM     19  C   UNL     1      -4.316   0.011  25.821  0.00  0.00    +0.024 A 
ATOM     20  C   UNL     1      -2.717   0.376  23.519  0.00  0.00    +0.274 A 
ATOM     21  C   UNL     1      -2.450   4.159  26.127  0.00  0.00    +0.306 C 
ATOM     22  C   UNL     1      -2.561  -0.799  24.411  0.00  0.00    +0.112 A 
ATOM     23  C   UNL     1      -3.324  -0.975  25.490  0.00  0.00    +0.031 A 
ATOM     37  H   UNL     1      -2.924   3.467  28.027  0.00  0.00    +0.156 HD
ENDROOT
BRANCH  10  24
ATOM     24  C   UNL     1      -0.897   3.180  27.850  0.00  0.00    +0.035 A 
ATOM     26  C   UNL     1      -0.660   3.139  29.221  0.00  0.00    +0.027 A 
ATOM     27  C   UNL     1       0.106   2.826  26.950  0.00  0.00    +0.027 A 
ATOM     28  C   UNL     1       0.590   2.742  29.697  0.00  0.00    +0.047 A 
ATOM     29  C   UNL     1       1.355   2.428  27.427  0.00  0.00    +0.047 A 
ATOM     32  C   UNL     1       1.597   2.386  28.801  0.00  0.00    +0.120 A 
BRANCH  32   7
ATOM      7  O   UNL     1       2.816   1.997  29.265  0.00  0.00    -0.495 OA
ATOM     36  C   UNL     1       3.959   2.435  28.534  0.00  0.00    +0.277 C 
ENDBRANCH  32   7
ENDBRANCH  10  24
BRANCH  22  11
ATOM     11  N   UNL     1      -1.597  -1.784  24.124  0.00  0.00    -0.211 N 
ATOM     38  H   UNL     1      -2.016  -2.685  23.856  0.00  0.00    +0.174 HD
BRANCH  11   2
ATOM      2  S   UNL     1      -0.282  -1.905  25.182  0.00  0.00    +0.072 S 
ATOM      5  O   UNL     1      -0.542  -1.124  26.377  0.00  0.00    -0.150 OA
ATOM      6  O   UNL     1       0.132  -3.292  25.290  0.00  0.00    -0.150 OA
BRANCH   2  25
ATOM      1 CL   UNL     1       4.122   1.111  21.918  0.00  0.00    -0.084 Cl
ATOM     25  C   UNL     1       0.963  -1.053  24.258  0.00  0.00    +0.109 A 
ATOM     30  C   UNL     1       2.205  -1.640  24.098  0.00  0.00    +0.030 A 
ATOM     31  C   UNL     1       0.671   0.185  23.714  0.00  0.00    +0.030 A 
ATOM     33  C   UNL     1       3.186  -0.968  23.370  0.00  0.00    +0.022 A 
ATOM     34  C   UNL     1       1.652   0.858  22.987  0.00  0.00    +0.022 A 
ATOM     35  C   UNL     1       2.910   0.281  22.815  0.00  0.00    +0.041 A 
ENDBRANCH   2  25
ENDBRANCH  11   2
ENDBRANCH  22  11
TORSDOF 5
ENDMDL
