MODEL 1
REMARK VINA RESULT:      -2.9      0.000      0.000
REMARK  Name = 56775692
REMARK  8 active torsions:
REMARK  status: ('A' for Active; 'I' for Inactive)
REMARK    1  A    between atoms: O_3  and  C_21
REMARK    2  A    between atoms: O_3  and  C_26
REMARK    3  A    between atoms: N_4  and  C_7
REMARK    4  A    between atoms: N_4  and  C_11
REMARK    5  A    between atoms: C_7  and  C_10
REMARK    6  A    between atoms: C_10  and  C_12
REMARK    7  A    between atoms: C_11  and  C_13
REMARK    8  A    between atoms: C_15  and  C_18
REMARK                            x       y       z     vdW  Elec       q    Type
REMARK                         _______ _______ _______ _____ _____    ______ ____
ROOT
ATOM      1  O   UNL     1      -6.273   4.574  25.795  0.00  0.00    -0.376 OA
ATOM      7  C   UNL     1      -4.434   3.525  25.518  0.00  0.00    +0.072 C 
ATOM      8  C   UNL     1      -5.762   3.294  26.232  0.00  0.00    +0.184 C 
ATOM      9  C   UNL     1      -5.006   4.898  25.179  0.00  0.00    +0.184 C 
ENDROOT
BRANCH   7   4
ATOM      4  N   UNL     1      -4.405   2.711  24.301  0.00  0.00    -0.302 NA
ATOM     27  H   UNL     1      -3.473   2.503  23.942  0.00  0.00    +0.123 HD
BRANCH   4  11
ATOM     11  C   UNL     1      -5.133   1.464  24.541  0.00  0.00    +0.117 C 
BRANCH  11  13
ATOM     13  C   UNL     1      -4.222   0.288  24.648  0.00  0.00    -0.033 A 
ATOM     16  C   UNL     1      -3.998  -0.311  25.887  0.00  0.00    +0.008 A 
ATOM     17  C   UNL     1      -3.594  -0.213  23.507  0.00  0.00    +0.008 A 
ATOM     19  C   UNL     1      -3.146  -1.411  25.988  0.00  0.00    +0.046 A 
ATOM     20  C   UNL     1      -2.741  -1.313  23.607  0.00  0.00    +0.046 A 
ATOM     21  C   UNL     1      -2.517  -1.911  24.847  0.00  0.00    +0.120 A 
BRANCH  21   3
ATOM      3  O   UNL     1      -1.686  -2.984  24.944  0.00  0.00    -0.495 OA
ATOM     26  C   UNL     1      -0.325  -2.723  25.280  0.00  0.00    +0.277 C 
ENDBRANCH  21   3
ENDBRANCH  11  13
ENDBRANCH   4  11
ENDBRANCH   7   4
BRANCH   7  10
ATOM     10  C   UNL     1      -3.163   3.442  26.307  0.00  0.00    +0.085 C 
BRANCH  10  12
ATOM      2  O   UNL     1      -0.414   3.455  23.962  0.00  0.00    -0.353 OA
ATOM      5  N   UNL     1      -1.445   4.081  24.652  0.00  0.00    -0.083 NA
ATOM     12  C   UNL     1      -1.990   3.121  25.405  0.00  0.00    +0.086 A 
ATOM     14  C   UNL     1      -1.351   1.881  25.234  0.00  0.00    +0.077 A 
ATOM     15  C   UNL     1      -0.368   2.145  24.317  0.00  0.00    +0.186 A 
BRANCH  15  18
ATOM      6  N   UNL     1       1.892   1.907  23.736  0.00  0.00    -0.252 NA
ATOM     18  C   UNL     1       0.655   1.364  23.684  0.00  0.00    +0.109 A 
ATOM     22  C   UNL     1       0.364   0.154  23.076  0.00  0.00    +0.031 A 
ATOM     23  C   UNL     1       1.410  -0.545  22.483  0.00  0.00    +0.004 A 
ATOM     24  C   UNL     1       2.883   1.199  23.149  0.00  0.00    +0.111 A 
ATOM     25  C   UNL     1       2.697  -0.019  22.517  0.00  0.00    +0.020 A 
ENDBRANCH  15  18
ENDBRANCH  10  12
ENDBRANCH   7  10
TORSDOF 7
ENDMDL
MODEL 2
REMARK VINA RESULT:      -2.8      1.984      4.361
REMARK  Name = 56775692
REMARK  8 active torsions:
REMARK  status: ('A' for Active; 'I' for Inactive)
REMARK    1  A    between atoms: O_3  and  C_21
REMARK    2  A    between atoms: O_3  and  C_26
REMARK    3  A    between atoms: N_4  and  C_7
REMARK    4  A    between atoms: N_4  and  C_11
REMARK    5  A    between atoms: C_7  and  C_10
REMARK    6  A    between atoms: C_10  and  C_12
REMARK    7  A    between atoms: C_11  and  C_13
REMARK    8  A    between atoms: C_15  and  C_18
REMARK                            x       y       z     vdW  Elec       q    Type
REMARK                         _______ _______ _______ _____ _____    ______ ____
ROOT
ATOM      1  O   UNL     1      -6.718   4.318  26.053  0.00  0.00    -0.376 OA
ATOM      7  C   UNL     1      -4.719   4.160  25.319  0.00  0.00    +0.072 C 
ATOM      8  C   UNL     1      -5.737   5.267  25.576  0.00  0.00    +0.184 C 
ATOM      9  C   UNL     1      -5.837   3.214  25.743  0.00  0.00    +0.184 C 
ENDROOT
BRANCH   7   4
ATOM      4  N   UNL     1      -3.705   4.197  26.374  0.00  0.00    -0.302 NA
ATOM     27  H   UNL     1      -3.436   3.288  26.749  0.00  0.00    +0.123 HD
BRANCH   4  11
ATOM     11  C   UNL     1      -2.519   4.897  25.876  0.00  0.00    +0.117 C 
BRANCH  11  13
ATOM     13  C   UNL     1      -1.471   3.957  25.385  0.00  0.00    -0.033 A 
ATOM     16  C   UNL     1      -0.706   4.286  24.267  0.00  0.00    +0.008 A 
ATOM     17  C   UNL     1      -1.257   2.746  26.045  0.00  0.00    +0.008 A 
ATOM     19  C   UNL     1       0.275   3.407  23.808  0.00  0.00    +0.046 A 
ATOM     20  C   UNL     1      -0.277   1.866  25.586  0.00  0.00    +0.046 A 
ATOM     21  C   UNL     1       0.488   2.196  24.468  0.00  0.00    +0.120 A 
BRANCH  21   3
ATOM      3  O   UNL     1       1.445   1.337  24.020  0.00  0.00    -0.495 OA
ATOM     26  C   UNL     1       1.016   0.271  23.175  0.00  0.00    +0.277 C 
ENDBRANCH  21   3
ENDBRANCH  11  13
ENDBRANCH   4  11
ENDBRANCH   7   4
BRANCH   7  10
ATOM     10  C   UNL     1      -4.131   4.021  23.948  0.00  0.00    +0.085 C 
BRANCH  10  12
ATOM      2  O   UNL     1      -2.741   0.934  22.683  0.00  0.00    -0.353 OA
ATOM      5  N   UNL     1      -2.968   2.302  22.607  0.00  0.00    -0.083 NA
ATOM     12  C   UNL     1      -3.690   2.595  23.694  0.00  0.00    +0.086 A 
ATOM     14  C   UNL     1      -3.946   1.461  24.484  0.00  0.00    +0.077 A 
ATOM     15  C   UNL     1      -3.328   0.444  23.806  0.00  0.00    +0.186 A 
BRANCH  15  18
ATOM      6  N   UNL     1      -1.931  -1.348  24.388  0.00  0.00    -0.252 NA
ATOM     18  C   UNL     1      -3.175  -0.965  24.023  0.00  0.00    +0.109 A 
ATOM     22  C   UNL     1      -4.240  -1.838  23.862  0.00  0.00    +0.031 A 
ATOM     23  C   UNL     1      -4.012  -3.190  24.091  0.00  0.00    +0.004 A 
ATOM     24  C   UNL     1      -1.749  -2.670  24.602  0.00  0.00    +0.111 A 
ATOM     25  C   UNL     1      -2.746  -3.623  24.469  0.00  0.00    +0.020 A 
ENDBRANCH  15  18
ENDBRANCH  10  12
ENDBRANCH   7  10
TORSDOF 7
ENDMDL
MODEL 3
REMARK VINA RESULT:      -2.0      1.711      2.180
REMARK  Name = 56775692
REMARK  8 active torsions:
REMARK  status: ('A' for Active; 'I' for Inactive)
REMARK    1  A    between atoms: O_3  and  C_21
REMARK    2  A    between atoms: O_3  and  C_26
REMARK    3  A    between atoms: N_4  and  C_7
REMARK    4  A    between atoms: N_4  and  C_11
REMARK    5  A    between atoms: C_7  and  C_10
REMARK    6  A    between atoms: C_10  and  C_12
REMARK    7  A    between atoms: C_11  and  C_13
REMARK    8  A    between atoms: C_15  and  C_18
REMARK                            x       y       z     vdW  Elec       q    Type
REMARK                         _______ _______ _______ _____ _____    ______ ____
ROOT
ATOM      1  O   UNL     1      -1.818   6.312  25.358  0.00  0.00    -0.376 OA
ATOM      7  C   UNL     1      -2.362   4.248  25.300  0.00  0.00    +0.072 C 
ATOM      8  C   UNL     1      -2.878   5.528  25.950  0.00  0.00    +0.184 C 
ATOM      9  C   UNL     1      -1.221   5.123  24.791  0.00  0.00    +0.184 C 
ENDROOT
BRANCH   7   4
ATOM      4  N   UNL     1      -3.235   3.907  24.174  0.00  0.00    -0.302 NA
ATOM     27  H   UNL     1      -2.782   3.401  23.413  0.00  0.00    +0.123 HD
BRANCH   4  11
ATOM     11  C   UNL     1      -4.378   3.137  24.669  0.00  0.00    +0.117 C 
BRANCH  11  13
ATOM     13  C   UNL     1      -4.188   1.668  24.499  0.00  0.00    -0.033 A 
ATOM     16  C   UNL     1      -4.671   0.785  25.464  0.00  0.00    +0.008 A 
ATOM     17  C   UNL     1      -3.526   1.177  23.373  0.00  0.00    +0.008 A 
ATOM     19  C   UNL     1      -4.493  -0.589  25.305  0.00  0.00    +0.046 A 
ATOM     20  C   UNL     1      -3.348  -0.198  23.213  0.00  0.00    +0.046 A 
ATOM     21  C   UNL     1      -3.831  -1.080  24.179  0.00  0.00    +0.120 A 
BRANCH  21   3
ATOM      3  O   UNL     1      -3.658  -2.421  24.023  0.00  0.00    -0.495 OA
ATOM     26  C   UNL     1      -2.380  -2.954  24.365  0.00  0.00    +0.277 C 
ENDBRANCH  21   3
ENDBRANCH  11  13
ENDBRANCH   4  11
ENDBRANCH   7   4
BRANCH   7  10
ATOM     10  C   UNL     1      -2.043   3.071  26.169  0.00  0.00    +0.085 C 
BRANCH  10  12
ATOM      2  O   UNL     1      -0.130   0.260  24.944  0.00  0.00    -0.353 OA
ATOM      5  N   UNL     1      -1.117   0.820  25.746  0.00  0.00    -0.083 NA
ATOM     12  C   UNL     1      -1.088   2.128  25.469  0.00  0.00    +0.086 A 
ATOM     14  C   UNL     1      -0.113   2.447  24.509  0.00  0.00    +0.077 A 
ATOM     15  C   UNL     1       0.461   1.239  24.212  0.00  0.00    +0.186 A 
BRANCH  15  18
ATOM      6  N   UNL     1       2.709   1.379  23.559  0.00  0.00    -0.252 NA
ATOM     18  C   UNL     1       1.505   0.810  23.328  0.00  0.00    +0.109 A 
ATOM     22  C   UNL     1       1.265  -0.117  22.326  0.00  0.00    +0.031 A 
ATOM     23  C   UNL     1       2.329  -0.483  21.510  0.00  0.00    +0.004 A 
ATOM     24  C   UNL     1       3.720   0.998  22.745  0.00  0.00    +0.111 A 
ATOM     25  C   UNL     1       3.583   0.080  21.717  0.00  0.00    +0.020 A 
ENDBRANCH  15  18
ENDBRANCH  10  12
ENDBRANCH   7  10
TORSDOF 7
ENDMDL
MODEL 4
REMARK VINA RESULT:      -1.8     15.877     18.994
REMARK  Name = 56775692
REMARK  8 active torsions:
REMARK  status: ('A' for Active; 'I' for Inactive)
REMARK    1  A    between atoms: O_3  and  C_21
REMARK    2  A    between atoms: O_3  and  C_26
REMARK    3  A    between atoms: N_4  and  C_7
REMARK    4  A    between atoms: N_4  and  C_11
REMARK    5  A    between atoms: C_7  and  C_10
REMARK    6  A    between atoms: C_10  and  C_12
REMARK    7  A    between atoms: C_11  and  C_13
REMARK    8  A    between atoms: C_15  and  C_18
REMARK                            x       y       z     vdW  Elec       q    Type
REMARK                         _______ _______ _______ _____ _____    ______ ____
ROOT
ATOM      1  O   UNL     1      12.641  -5.861  31.254  0.00  0.00    -0.376 OA
ATOM      7  C   UNL     1      13.660  -7.716  30.977  0.00  0.00    +0.072 C 
ATOM      8  C   UNL     1      13.148  -6.881  32.145  0.00  0.00    +0.184 C 
ATOM      9  C   UNL     1      13.186  -6.556  30.109  0.00  0.00    +0.184 C 
ENDROOT
BRANCH   7   4
ATOM      4  N   UNL     1      12.759  -8.854  30.780  0.00  0.00    -0.302 NA
ATOM     27  H   UNL     1      13.168  -9.650  30.290  0.00  0.00    +0.123 HD
BRANCH   4  11
ATOM     11  C   UNL     1      12.240  -9.286  32.079  0.00  0.00    +0.117 C 
BRANCH  11  13
ATOM     13  C   UNL     1      10.749  -9.300  32.116  0.00  0.00    -0.033 A 
ATOM     16  C   UNL     1      10.054 -10.457  31.767  0.00  0.00    +0.008 A 
ATOM     17  C   UNL     1      10.050  -8.155  32.501  0.00  0.00    +0.008 A 
ATOM     19  C   UNL     1       8.659 -10.471  31.802  0.00  0.00    +0.046 A 
ATOM     20  C   UNL     1       8.656  -8.169  32.535  0.00  0.00    +0.046 A 
ATOM     21  C   UNL     1       7.960  -9.326  32.186  0.00  0.00    +0.120 A 
BRANCH  21   3
ATOM      3  O   UNL     1       6.600  -9.339  32.220  0.00  0.00    -0.495 OA
ATOM     26  C   UNL     1       5.957  -8.236  32.857  0.00  0.00    +0.277 C 
ENDBRANCH  21   3
ENDBRANCH  11  13
ENDBRANCH   4  11
ENDBRANCH   7   4
BRANCH   7  10
ATOM     10  C   UNL     1      15.107  -8.105  30.944  0.00  0.00    +0.085 C 
BRANCH  10  12
ATOM      2  O   UNL     1      16.532  -8.712  27.679  0.00  0.00    -0.353 OA
ATOM      5  N   UNL     1      16.118  -9.131  28.937  0.00  0.00    -0.083 NA
ATOM     12  C   UNL     1      15.652  -8.029  29.533  0.00  0.00    +0.086 A 
ATOM     14  C   UNL     1      15.747  -6.896  28.707  0.00  0.00    +0.077 A 
ATOM     15  C   UNL     1      16.306  -7.378  27.554  0.00  0.00    +0.186 A 
BRANCH  15  18
ATOM      6  N   UNL     1      16.883  -7.692  25.302  0.00  0.00    -0.252 NA
ATOM     18  C   UNL     1      16.683  -6.799  26.298  0.00  0.00    +0.109 A 
ATOM     22  C   UNL     1      16.823  -5.428  26.150  0.00  0.00    +0.031 A 
ATOM     23  C   UNL     1      17.191  -4.943  24.900  0.00  0.00    +0.004 A 
ATOM     24  C   UNL     1      17.240  -7.182  24.102  0.00  0.00    +0.111 A 
ATOM     25  C   UNL     1      17.405  -5.829  23.851  0.00  0.00    +0.020 A 
ENDBRANCH  15  18
ENDBRANCH  10  12
ENDBRANCH   7  10
TORSDOF 7
ENDMDL
MODEL 5
REMARK VINA RESULT:      -1.8      1.970      4.759
REMARK  Name = 56775692
REMARK  8 active torsions:
REMARK  status: ('A' for Active; 'I' for Inactive)
REMARK    1  A    between atoms: O_3  and  C_21
REMARK    2  A    between atoms: O_3  and  C_26
REMARK    3  A    between atoms: N_4  and  C_7
REMARK    4  A    between atoms: N_4  and  C_11
REMARK    5  A    between atoms: C_7  and  C_10
REMARK    6  A    between atoms: C_10  and  C_12
REMARK    7  A    between atoms: C_11  and  C_13
REMARK    8  A    between atoms: C_15  and  C_18
REMARK                            x       y       z     vdW  Elec       q    Type
REMARK                         _______ _______ _______ _____ _____    ______ ____
ROOT
ATOM      1  O   UNL     1      -3.549  -3.121  24.483  0.00  0.00    -0.376 OA
ATOM      7  C   UNL     1      -3.369  -1.003  24.295  0.00  0.00    +0.072 C 
ATOM      8  C   UNL     1      -4.340  -2.091  23.849  0.00  0.00    +0.184 C 
ATOM      9  C   UNL     1      -2.540  -2.154  24.855  0.00  0.00    +0.184 C 
ENDROOT
BRANCH   7   4
ATOM      4  N   UNL     1      -3.967  -0.265  25.410  0.00  0.00    -0.302 NA
ATOM     27  H   UNL     1      -3.306   0.081  26.104  0.00  0.00    +0.123 HD
BRANCH   4  11
ATOM     11  C   UNL     1      -4.757   0.849  24.880  0.00  0.00    +0.117 C 
BRANCH  11  13
ATOM     13  C   UNL     1      -4.014   2.141  24.925  0.00  0.00    -0.033 A 
ATOM     16  C   UNL     1      -3.968   2.959  23.796  0.00  0.00    +0.008 A 
ATOM     17  C   UNL     1      -3.364   2.532  26.096  0.00  0.00    +0.008 A 
ATOM     19  C   UNL     1      -3.273   4.168  23.838  0.00  0.00    +0.046 A 
ATOM     20  C   UNL     1      -2.669   3.740  26.138  0.00  0.00    +0.046 A 
ATOM     21  C   UNL     1      -2.623   4.558  25.009  0.00  0.00    +0.120 A 
BRANCH  21   3
ATOM      3  O   UNL     1      -1.945   5.737  25.051  0.00  0.00    -0.495 OA
ATOM     26  C   UNL     1      -0.560   5.702  24.712  0.00  0.00    +0.277 C 
ENDBRANCH  21   3
ENDBRANCH  11  13
ENDBRANCH   4  11
ENDBRANCH   7   4
BRANCH   7  10
ATOM     10  C   UNL     1      -2.761  -0.105  23.260  0.00  0.00    +0.085 C 
BRANCH  10  12
ATOM      2  O   UNL     1       0.444   0.919  24.578  0.00  0.00    -0.353 OA
ATOM      5  N   UNL     1      -0.945   0.900  24.599  0.00  0.00    -0.083 NA
ATOM     12  C   UNL     1      -1.297   0.142  23.556  0.00  0.00    +0.086 A 
ATOM     14  C   UNL     1      -0.183  -0.340  22.848  0.00  0.00    +0.077 A 
ATOM     15  C   UNL     1       0.886   0.176  23.530  0.00  0.00    +0.186 A 
BRANCH  15  18
ATOM      6  N   UNL     1       2.892   1.234  22.931  0.00  0.00    -0.252 NA
ATOM     18  C   UNL     1       2.310   0.099  23.380  0.00  0.00    +0.109 A 
ATOM     22  C   UNL     1       3.004  -1.062  23.681  0.00  0.00    +0.031 A 
ATOM     23  C   UNL     1       4.384  -1.058  23.509  0.00  0.00    +0.004 A 
ATOM     24  C   UNL     1       4.235   1.199  22.777  0.00  0.00    +0.111 A 
ATOM     25  C   UNL     1       5.019   0.090  23.050  0.00  0.00    +0.020 A 
ENDBRANCH  15  18
ENDBRANCH  10  12
ENDBRANCH   7  10
TORSDOF 7
ENDMDL
MODEL 6
REMARK VINA RESULT:      -1.4      1.979      5.499
REMARK  Name = 56775692
REMARK  8 active torsions:
REMARK  status: ('A' for Active; 'I' for Inactive)
REMARK    1  A    between atoms: O_3  and  C_21
REMARK    2  A    between atoms: O_3  and  C_26
REMARK    3  A    between atoms: N_4  and  C_7
REMARK    4  A    between atoms: N_4  and  C_11
REMARK    5  A    between atoms: C_7  and  C_10
REMARK    6  A    between atoms: C_10  and  C_12
REMARK    7  A    between atoms: C_11  and  C_13
REMARK    8  A    between atoms: C_15  and  C_18
REMARK                            x       y       z     vdW  Elec       q    Type
REMARK                         _______ _______ _______ _____ _____    ______ ____
ROOT
ATOM      1  O   UNL     1      -3.622  -3.984  24.815  0.00  0.00    -0.376 OA
ATOM      7  C   UNL     1      -2.355  -2.293  24.513  0.00  0.00    +0.072 C 
ATOM      8  C   UNL     1      -2.559  -3.669  23.888  0.00  0.00    +0.184 C 
ATOM      9  C   UNL     1      -3.417  -2.735  25.514  0.00  0.00    +0.184 C 
ENDROOT
BRANCH   7   4
ATOM      4  N   UNL     1      -2.933  -1.281  23.626  0.00  0.00    -0.302 NA
ATOM     27  H   UNL     1      -2.940  -1.527  22.636  0.00  0.00    +0.123 HD
BRANCH   4  11
ATOM     11  C   UNL     1      -4.294  -0.975  24.070  0.00  0.00    +0.117 C 
BRANCH  11  13
ATOM     13  C   UNL     1      -4.485   0.477  24.350  0.00  0.00    -0.033 A 
ATOM     16  C   UNL     1      -3.959   1.431  23.478  0.00  0.00    +0.008 A 
ATOM     17  C   UNL     1      -5.190   0.882  25.484  0.00  0.00    +0.008 A 
ATOM     19  C   UNL     1      -4.138   2.790  23.740  0.00  0.00    +0.046 A 
ATOM     20  C   UNL     1      -5.368   2.240  25.746  0.00  0.00    +0.046 A 
ATOM     21  C   UNL     1      -4.842   3.194  24.875  0.00  0.00    +0.120 A 
BRANCH  21   3
ATOM      3  O   UNL     1      -5.017   4.519  25.130  0.00  0.00    -0.495 OA
ATOM     26  C   UNL     1      -6.305   4.927  25.588  0.00  0.00    +0.277 C 
ENDBRANCH  21   3
ENDBRANCH  11  13
ENDBRANCH   4  11
ENDBRANCH   7   4
BRANCH   7  10
ATOM     10  C   UNL     1      -0.993  -1.920  25.015  0.00  0.00    +0.085 C 
BRANCH  10  12
ATOM      2  O   UNL     1       0.285   1.250  23.841  0.00  0.00    -0.353 OA
ATOM      5  N   UNL     1       0.279  -0.139  23.869  0.00  0.00    -0.083 NA
ATOM     12  C   UNL     1      -0.694  -0.464  24.727  0.00  0.00    +0.086 A 
ATOM     14  C   UNL     1      -1.329   0.668  25.265  0.00  0.00    +0.077 A 
ATOM     15  C   UNL     1      -0.678   1.719  24.676  0.00  0.00    +0.186 A 
BRANCH  15  18
ATOM      6  N   UNL     1      -1.652   3.593  25.696  0.00  0.00    -0.252 NA
ATOM     18  C   UNL     1      -0.795   3.146  24.751  0.00  0.00    +0.109 A 
ATOM     22  C   UNL     1      -0.072   3.973  23.906  0.00  0.00    +0.031 A 
ATOM     23  C   UNL     1      -0.240   5.347  24.040  0.00  0.00    +0.004 A 
ATOM     24  C   UNL     1      -1.789   4.934  25.796  0.00  0.00    +0.111 A 
ATOM     25  C   UNL     1      -1.112   5.845  25.001  0.00  0.00    +0.020 A 
ENDBRANCH  15  18
ENDBRANCH  10  12
ENDBRANCH   7  10
TORSDOF 7
ENDMDL
MODEL 7
REMARK VINA RESULT:      -1.3      1.976      6.837
REMARK  Name = 56775692
REMARK  8 active torsions:
REMARK  status: ('A' for Active; 'I' for Inactive)
REMARK    1  A    between atoms: O_3  and  C_21
REMARK    2  A    between atoms: O_3  and  C_26
REMARK    3  A    between atoms: N_4  and  C_7
REMARK    4  A    between atoms: N_4  and  C_11
REMARK    5  A    between atoms: C_7  and  C_10
REMARK    6  A    between atoms: C_10  and  C_12
REMARK    7  A    between atoms: C_11  and  C_13
REMARK    8  A    between atoms: C_15  and  C_18
REMARK                            x       y       z     vdW  Elec       q    Type
REMARK                         _______ _______ _______ _____ _____    ______ ____
ROOT
ATOM      1  O   UNL     1       4.568   0.094  22.781  0.00  0.00    -0.376 OA
ATOM      7  C   UNL     1       2.449   0.218  23.013  0.00  0.00    +0.072 C 
ATOM      8  C   UNL     1       3.578  -0.695  23.481  0.00  0.00    +0.184 C 
ATOM      9  C   UNL     1       3.537   0.942  22.225  0.00  0.00    +0.184 C 
ENDROOT
BRANCH   7   4
ATOM      4  N   UNL     1       2.033   1.065  24.133  0.00  0.00    -0.302 NA
ATOM     27  H   UNL     1       2.769   1.287  24.804  0.00  0.00    +0.123 HD
BRANCH   4  11
ATOM     11  C   UNL     1       1.452   2.302  23.609  0.00  0.00    +0.117 C 
BRANCH  11  13
ATOM     13  C   UNL     1       0.340   2.811  24.462  0.00  0.00    -0.033 A 
ATOM     16  C   UNL     1      -0.463   3.859  24.011  0.00  0.00    +0.008 A 
ATOM     17  C   UNL     1       0.103   2.240  25.713  0.00  0.00    +0.008 A 
ATOM     19  C   UNL     1      -1.503   4.335  24.809  0.00  0.00    +0.046 A 
ATOM     20  C   UNL     1      -0.936   2.716  26.512  0.00  0.00    +0.046 A 
ATOM     21  C   UNL     1      -1.739   3.764  26.060  0.00  0.00    +0.120 A 
BRANCH  21   3
ATOM      3  O   UNL     1      -2.753   4.228  26.839  0.00  0.00    -0.495 OA
ATOM     26  C   UNL     1      -3.987   4.526  26.188  0.00  0.00    +0.277 C 
ENDBRANCH  21   3
ENDBRANCH  11  13
ENDBRANCH   4  11
ENDBRANCH   7   4
BRANCH   7  10
ATOM     10  C   UNL     1       1.292  -0.381  22.273  0.00  0.00    +0.085 C 
BRANCH  10  12
ATOM      2  O   UNL     1      -1.384  -0.697  24.680  0.00  0.00    -0.353 OA
ATOM      5  N   UNL     1      -0.131  -1.033  24.184  0.00  0.00    -0.083 NA
ATOM     12  C   UNL     1       0.021  -0.280  23.090  0.00  0.00    +0.086 A 
ATOM     14  C   UNL     1      -1.093   0.542  22.849  0.00  0.00    +0.077 A 
ATOM     15  C   UNL     1      -1.948   0.242  23.877  0.00  0.00    +0.186 A 
BRANCH  15  18
ATOM      6  N   UNL     1      -3.631   1.866  23.714  0.00  0.00    -0.252 NA
ATOM     18  C   UNL     1      -3.252   0.692  24.267  0.00  0.00    +0.109 A 
ATOM     22  C   UNL     1      -4.035  -0.042  25.143  0.00  0.00    +0.031 A 
ATOM     23  C   UNL     1      -5.289   0.461  25.472  0.00  0.00    +0.004 A 
ATOM     24  C   UNL     1      -4.857   2.323  24.058  0.00  0.00    +0.111 A 
ATOM     25  C   UNL     1      -5.715   1.665  24.924  0.00  0.00    +0.020 A 
ENDBRANCH  15  18
ENDBRANCH  10  12
ENDBRANCH   7  10
TORSDOF 7
ENDMDL
MODEL 8
REMARK VINA RESULT:      -1.2      1.974      3.028
REMARK  Name = 56775692
REMARK  8 active torsions:
REMARK  status: ('A' for Active; 'I' for Inactive)
REMARK    1  A    between atoms: O_3  and  C_21
REMARK    2  A    between atoms: O_3  and  C_26
REMARK    3  A    between atoms: N_4  and  C_7
REMARK    4  A    between atoms: N_4  and  C_11
REMARK    5  A    between atoms: C_7  and  C_10
REMARK    6  A    between atoms: C_10  and  C_12
REMARK    7  A    between atoms: C_11  and  C_13
REMARK    8  A    between atoms: C_15  and  C_18
REMARK                            x       y       z     vdW  Elec       q    Type
REMARK                         _______ _______ _______ _____ _____    ______ ____
ROOT
ATOM      1  O   UNL     1      -0.488   4.530  25.486  0.00  0.00    -0.376 OA
ATOM      7  C   UNL     1      -1.883   3.127  24.684  0.00  0.00    +0.072 C 
ATOM      8  C   UNL     1      -0.677   3.103  25.618  0.00  0.00    +0.184 C 
ATOM      9  C   UNL     1      -1.561   4.609  24.520  0.00  0.00    +0.184 C 
ENDROOT
BRANCH   7   4
ATOM      4  N   UNL     1      -3.102   2.994  25.485  0.00  0.00    -0.302 NA
ATOM     27  H   UNL     1      -3.493   3.871  25.827  0.00  0.00    +0.123 HD
BRANCH   4  11
ATOM     11  C   UNL     1      -4.110   2.273  24.706  0.00  0.00    +0.117 C 
BRANCH  11  13
ATOM     13  C   UNL     1      -3.955   0.793  24.809  0.00  0.00    -0.033 A 
ATOM     16  C   UNL     1      -4.440  -0.032  23.795  0.00  0.00    +0.008 A 
ATOM     17  C   UNL     1      -3.323   0.235  25.922  0.00  0.00    +0.008 A 
ATOM     19  C   UNL     1      -4.294  -1.416  23.892  0.00  0.00    +0.046 A 
ATOM     20  C   UNL     1      -3.178  -1.149  26.019  0.00  0.00    +0.046 A 
ATOM     21  C   UNL     1      -3.664  -1.974  25.005  0.00  0.00    +0.120 A 
BRANCH  21   3
ATOM      3  O   UNL     1      -3.521  -3.324  25.100  0.00  0.00    -0.495 OA
ATOM     26  C   UNL     1      -3.496  -4.061  23.879  0.00  0.00    +0.277 C 
ENDBRANCH  21   3
ENDBRANCH  11  13
ENDBRANCH   4  11
ENDBRANCH   7   4
BRANCH   7  10
ATOM     10  C   UNL     1      -1.879   2.244  23.474  0.00  0.00    +0.085 C 
BRANCH  10  12
ATOM      2  O   UNL     1       0.493  -0.482  23.466  0.00  0.00    -0.353 OA
ATOM      5  N   UNL     1      -0.802   0.021  23.483  0.00  0.00    -0.083 NA
ATOM     12  C   UNL     1      -0.657   1.350  23.463  0.00  0.00    +0.086 A 
ATOM     14  C   UNL     1       0.693   1.739  23.434  0.00  0.00    +0.077 A 
ATOM     15  C   UNL     1       1.375   0.551  23.438  0.00  0.00    +0.186 A 
BRANCH  15  18
ATOM      6  N   UNL     1       3.606   1.194  23.105  0.00  0.00    -0.252 NA
ATOM     18  C   UNL     1       2.761   0.185  23.415  0.00  0.00    +0.109 A 
ATOM     22  C   UNL     1       3.168  -1.109  23.694  0.00  0.00    +0.031 A 
ATOM     23  C   UNL     1       4.531  -1.386  23.653  0.00  0.00    +0.004 A 
ATOM     24  C   UNL     1       4.922   0.887  23.074  0.00  0.00    +0.111 A 
ATOM     25  C   UNL     1       5.431  -0.375  23.338  0.00  0.00    +0.020 A 
ENDBRANCH  15  18
ENDBRANCH  10  12
ENDBRANCH   7  10
TORSDOF 7
ENDMDL
MODEL 9
REMARK VINA RESULT:      -0.5      2.120      6.819
REMARK  Name = 56775692
REMARK  8 active torsions:
REMARK  status: ('A' for Active; 'I' for Inactive)
REMARK    1  A    between atoms: O_3  and  C_21
REMARK    2  A    between atoms: O_3  and  C_26
REMARK    3  A    between atoms: N_4  and  C_7
REMARK    4  A    between atoms: N_4  and  C_11
REMARK    5  A    between atoms: C_7  and  C_10
REMARK    6  A    between atoms: C_10  and  C_12
REMARK    7  A    between atoms: C_11  and  C_13
REMARK    8  A    between atoms: C_15  and  C_18
REMARK                            x       y       z     vdW  Elec       q    Type
REMARK                         _______ _______ _______ _____ _____    ______ ____
ROOT
ATOM      1  O   UNL     1       2.819  -0.193  21.322  0.00  0.00    -0.376 OA
ATOM      7  C   UNL     1       1.268  -0.151  22.788  0.00  0.00    +0.072 C 
ATOM      8  C   UNL     1       2.774   0.090  22.739  0.00  0.00    +0.184 C 
ATOM      9  C   UNL     1       1.413  -0.529  21.318  0.00  0.00    +0.184 C 
ENDROOT
BRANCH   7   4
ATOM      4  N   UNL     1       0.586   1.142  22.879  0.00  0.00    -0.302 NA
ATOM     27  H   UNL     1      -0.432   1.092  22.915  0.00  0.00    +0.123 HD
BRANCH   4  11
ATOM     11  C   UNL     1       1.088   1.867  24.048  0.00  0.00    +0.117 C 
BRANCH  11  13
ATOM     13  C   UNL     1       0.040   2.721  24.678  0.00  0.00    -0.033 A 
ATOM     16  C   UNL     1      -0.491   3.804  23.979  0.00  0.00    +0.008 A 
ATOM     17  C   UNL     1      -0.408   2.435  25.968  0.00  0.00    +0.008 A 
ATOM     19  C   UNL     1      -1.471   4.603  24.569  0.00  0.00    +0.046 A 
ATOM     20  C   UNL     1      -1.388   3.233  26.558  0.00  0.00    +0.046 A 
ATOM     21  C   UNL     1      -1.919   4.317  25.859  0.00  0.00    +0.120 A 
BRANCH  21   3
ATOM      3  O   UNL     1      -2.875   5.095  26.435  0.00  0.00    -0.495 OA
ATOM     26  C   UNL     1      -4.038   4.434  26.931  0.00  0.00    +0.277 C 
ENDBRANCH  21   3
ENDBRANCH  11  13
ENDBRANCH   4  11
ENDBRANCH   7   4
BRANCH   7  10
ATOM     10  C   UNL     1       0.728  -1.166  23.749  0.00  0.00    +0.085 C 
BRANCH  10  12
ATOM      2  O   UNL     1      -2.171  -0.482  25.796  0.00  0.00    -0.353 OA
ATOM      5  N   UNL     1      -0.933  -1.072  25.576  0.00  0.00    -0.083 NA
ATOM     12  C   UNL     1      -0.587  -0.701  24.339  0.00  0.00    +0.086 A 
ATOM     14  C   UNL     1      -1.559   0.116  23.737  0.00  0.00    +0.077 A 
ATOM     15  C   UNL     1      -2.534   0.223  24.693  0.00  0.00    +0.186 A 
BRANCH  15  18
ATOM      6  N   UNL     1      -4.712   0.284  25.561  0.00  0.00    -0.252 NA
ATOM     18  C   UNL     1      -3.798   0.895  24.773  0.00  0.00    +0.109 A 
ATOM     22  C   UNL     1      -4.031   2.074  24.085  0.00  0.00    +0.031 A 
ATOM     23  C   UNL     1      -5.283   2.666  24.214  0.00  0.00    +0.004 A 
ATOM     24  C   UNL     1      -5.917   0.889  25.661  0.00  0.00    +0.111 A 
ATOM     25  C   UNL     1      -6.250   2.069  25.015  0.00  0.00    +0.020 A 
ENDBRANCH  15  18
ENDBRANCH  10  12
ENDBRANCH   7  10
TORSDOF 7
ENDMDL
MODEL 10
REMARK VINA RESULT:      -0.5     15.871     19.165
REMARK  Name = 56775692
REMARK  8 active torsions:
REMARK  status: ('A' for Active; 'I' for Inactive)
REMARK    1  A    between atoms: O_3  and  C_21
REMARK    2  A    between atoms: O_3  and  C_26
REMARK    3  A    between atoms: N_4  and  C_7
REMARK    4  A    between atoms: N_4  and  C_11
REMARK    5  A    between atoms: C_7  and  C_10
REMARK    6  A    between atoms: C_10  and  C_12
REMARK    7  A    between atoms: C_11  and  C_13
REMARK    8  A    between atoms: C_15  and  C_18
REMARK                            x       y       z     vdW  Elec       q    Type
REMARK                         _______ _______ _______ _____ _____    ______ ____
ROOT
ATOM      1  O   UNL     1      12.951  -6.553  29.613  0.00  0.00    -0.376 OA
ATOM      7  C   UNL     1      13.938  -7.680  31.133  0.00  0.00    +0.072 C 
ATOM      8  C   UNL     1      13.193  -6.353  31.024  0.00  0.00    +0.184 C 
ATOM      9  C   UNL     1      13.726  -7.773  29.626  0.00  0.00    +0.184 C 
ENDROOT
BRANCH   7   4
ATOM      4  N   UNL     1      13.068  -8.656  31.794  0.00  0.00    -0.302 NA
ATOM     27  H   UNL     1      13.546  -9.467  32.184  0.00  0.00    +0.123 HD
BRANCH   4  11
ATOM     11  C   UNL     1      12.302  -7.982  32.844  0.00  0.00    +0.117 C 
BRANCH  11  13
ATOM     13  C   UNL     1      10.843  -8.278  32.759  0.00  0.00    -0.033 A 
ATOM     16  C   UNL     1       9.914  -7.241  32.845  0.00  0.00    +0.008 A 
ATOM     17  C   UNL     1      10.407  -9.593  32.594  0.00  0.00    +0.008 A 
ATOM     19  C   UNL     1       8.549  -7.518  32.766  0.00  0.00    +0.046 A 
ATOM     20  C   UNL     1       9.042  -9.871  32.516  0.00  0.00    +0.046 A 
ATOM     21  C   UNL     1       8.113  -8.834  32.602  0.00  0.00    +0.120 A 
BRANCH  21   3
ATOM      3  O   UNL     1       6.782  -9.105  32.524  0.00  0.00    -0.495 OA
ATOM     26  C   UNL     1       5.939  -8.074  32.014  0.00  0.00    +0.277 C 
ENDBRANCH  21   3
ENDBRANCH  11  13
ENDBRANCH   4  11
ENDBRANCH   7   4
BRANCH   7  10
ATOM     10  C   UNL     1      15.336  -7.684  31.673  0.00  0.00    +0.085 C 
BRANCH  10  12
ATOM      2  O   UNL     1      17.405  -4.914  30.622  0.00  0.00    -0.353 OA
ATOM      5  N   UNL     1      17.039  -6.254  30.598  0.00  0.00    -0.083 NA
ATOM     12  C   UNL     1      16.006  -6.346  31.441  0.00  0.00    +0.086 A 
ATOM     14  C   UNL     1      15.679  -5.108  32.020  0.00  0.00    +0.077 A 
ATOM     15  C   UNL     1      16.588  -4.242  31.472  0.00  0.00    +0.186 A 
BRANCH  15  18
ATOM      6  N   UNL     1      17.143  -2.210  30.440  0.00  0.00    -0.252 NA
ATOM     18  C   UNL     1      16.844  -2.836  31.601  0.00  0.00    +0.109 A 
ATOM     22  C   UNL     1      16.783  -2.203  32.831  0.00  0.00    +0.031 A 
ATOM     23  C   UNL     1      17.044  -0.838  32.873  0.00  0.00    +0.004 A 
ATOM     24  C   UNL     1      17.390  -0.883  30.521  0.00  0.00    +0.111 A 
ATOM     25  C   UNL     1      17.354  -0.158  31.701  0.00  0.00    +0.020 A 
ENDBRANCH  15  18
ENDBRANCH  10  12
ENDBRANCH   7  10
TORSDOF 7
ENDMDL
