MODEL 1
REMARK VINA RESULT:       6.8      0.000      0.000
REMARK  Name = 45361052
REMARK  9 active torsions:
REMARK  status: ('A' for Active; 'I' for Inactive)
REMARK    1  A    between atoms: S_1  and  C_27
REMARK    2  A    between atoms: S_1  and  C_29
REMARK    3  A    between atoms: N_6  and  C_17
REMARK    4  A    between atoms: N_7  and  C_19
REMARK    5  A    between atoms: N_9  and  C_28
REMARK    6  A    between atoms: C_14  and  C_18
REMARK    7  A    between atoms: C_17  and  C_21
REMARK    8  A    between atoms: C_18  and  C_20
REMARK    9  A    between atoms: C_20  and  C_24
REMARK                            x       y       z     vdW  Elec       q    Type
REMARK                         _______ _______ _______ _____ _____    ______ ____
ROOT
ATOM      2  O   UNL     1      -0.701   0.574  25.597  0.00  0.00    -0.274 OA
ATOM      6  N   UNL     1      -2.342  -1.411  24.788  0.00  0.00    -0.286 NA
ATOM      7  N   UNL     1      -4.296   1.682  24.682  0.00  0.00    -0.296 NA
ATOM      8  N   UNL     1      -1.503   2.118  24.109  0.00  0.00    -0.312 N 
ATOM     10  C   UNL     1      -3.988   0.296  24.265  0.00  0.00    +0.084 C 
ATOM     11  C   UNL     1      -2.494  -0.114  24.102  0.00  0.00    +0.161 C 
ATOM     12  C   UNL     1      -4.511  -0.781  25.234  0.00  0.00    +0.036 C 
ATOM     13  C   UNL     1      -3.675  -1.996  24.896  0.00  0.00    +0.087 C 
ATOM     14  C   UNL     1      -3.870   2.727  23.711  0.00  0.00    +0.074 C 
ATOM     15  C   UNL     1      -1.487   0.866  24.697  0.00  0.00    +0.232 C 
ATOM     16  C   UNL     1      -2.469   2.518  23.105  0.00  0.00    +0.123 C 
ATOM     19  C   UNL     1      -5.729   1.827  24.993  0.00  0.00    +0.105 C 
ATOM     35  H   UNL     1      -0.812   2.796  24.414  0.00  0.00    +0.149 HD
ENDROOT
BRANCH   6  17
ATOM     17  C   UNL     1      -1.402  -2.307  24.127  0.00  0.00    +0.120 C 
BRANCH  17  21
ATOM     21  C   UNL     1      -0.138  -1.595  23.724  0.00  0.00    -0.033 A 
ATOM     22  C   UNL     1       0.998  -1.681  24.528  0.00  0.00    +0.007 A 
ATOM     23  C   UNL     1      -0.104  -0.849  22.546  0.00  0.00    +0.007 A 
ATOM     25  C   UNL     1       2.169  -1.022  24.154  0.00  0.00    +0.027 A 
ATOM     26  C   UNL     1       1.066  -0.188  22.172  0.00  0.00    +0.027 A 
ATOM     27  C   UNL     1       2.203  -0.275  22.977  0.00  0.00    +0.088 A 
BRANCH  27   1
ATOM      1  S   UNL     1       3.670   0.548  22.508  0.00  0.00    -0.006 S 
ATOM      4  O   UNL     1       3.907   0.316  21.089  0.00  0.00    -0.170 OA
ATOM      5  O   UNL     1       3.601   1.910  23.016  0.00  0.00    -0.170 OA
ATOM     29  C   UNL     1       4.956  -0.303  23.394  0.00  0.00    +0.200 C 
ENDBRANCH  27   1
ENDBRANCH  17  21
ENDBRANCH   6  17
BRANCH  14  18
ATOM     18  C   UNL     1      -3.886   4.120  24.376  0.00  0.00    +0.029 C 
BRANCH  18  20
ATOM     20  C   UNL     1      -3.547   4.043  25.856  0.00  0.00    +0.098 C 
BRANCH  20  24
ATOM      3  O   UNL     1      -1.299   4.858  25.546  0.00  0.00    -0.275 OA
ATOM      9  N   UNL     1      -1.727   3.243  27.196  0.00  0.00    -0.285 N 
ATOM     24  C   UNL     1      -2.054   4.109  26.156  0.00  0.00    +0.217 C 
ATOM     36  H   UNL     1      -2.481   2.696  27.608  0.00  0.00    +0.155 HD
BRANCH   9  28
ATOM     28  C   UNL     1      -0.449   3.020  27.762  0.00  0.00    +0.033 A 
ATOM     30  C   UNL     1       0.671   2.921  26.936  0.00  0.00    +0.023 A 
ATOM     31  C   UNL     1      -0.309   2.900  29.144  0.00  0.00    +0.023 A 
ATOM     32  C   UNL     1       1.931   2.702  27.493  0.00  0.00    +0.002 A 
ATOM     33  C   UNL     1       0.952   2.681  29.701  0.00  0.00    +0.002 A 
ATOM     34  C   UNL     1       2.072   2.582  28.875  0.00  0.00    +0.000 A 
ENDBRANCH   9  28
ENDBRANCH  20  24
ENDBRANCH  18  20
ENDBRANCH  14  18
TORSDOF 7
ENDMDL
MODEL 2
REMARK VINA RESULT:       6.9      2.363      3.490
REMARK  Name = 45361052
REMARK  9 active torsions:
REMARK  status: ('A' for Active; 'I' for Inactive)
REMARK    1  A    between atoms: S_1  and  C_27
REMARK    2  A    between atoms: S_1  and  C_29
REMARK    3  A    between atoms: N_6  and  C_17
REMARK    4  A    between atoms: N_7  and  C_19
REMARK    5  A    between atoms: N_9  and  C_28
REMARK    6  A    between atoms: C_14  and  C_18
REMARK    7  A    between atoms: C_17  and  C_21
REMARK    8  A    between atoms: C_18  and  C_20
REMARK    9  A    between atoms: C_20  and  C_24
REMARK                            x       y       z     vdW  Elec       q    Type
REMARK                         _______ _______ _______ _____ _____    ______ ____
ROOT
ATOM      2  O   UNL     1      -1.738   2.019  22.904  0.00  0.00    -0.274 OA
ATOM      6  N   UNL     1      -0.169  -0.037  23.679  0.00  0.00    -0.286 NA
ATOM      7  N   UNL     1      -3.387  -0.471  25.368  0.00  0.00    -0.296 NA
ATOM      8  N   UNL     1      -3.655   0.775  22.780  0.00  0.00    -0.312 N 
ATOM     10  C   UNL     1      -2.109  -0.964  24.806  0.00  0.00    +0.084 C 
ATOM     11  C   UNL     1      -1.597  -0.343  23.473  0.00  0.00    +0.161 C 
ATOM     12  C   UNL     1      -0.899  -0.765  25.738  0.00  0.00    +0.036 C 
ATOM     13  C   UNL     1       0.286  -0.853  24.800  0.00  0.00    +0.087 C 
ATOM     14  C   UNL     1      -4.578  -0.734  24.514  0.00  0.00    +0.074 C 
ATOM     15  C   UNL     1      -2.307   0.937  23.042  0.00  0.00    +0.232 C 
ATOM     16  C   UNL     1      -4.371  -0.465  23.011  0.00  0.00    +0.123 C 
ATOM     19  C   UNL     1      -3.603  -1.005  26.724  0.00  0.00    +0.105 C 
ATOM     35  H   UNL     1      -4.172   1.573  22.425  0.00  0.00    +0.149 HD
ENDROOT
BRANCH   6  17
ATOM     17  C   UNL     1       0.643  -0.242  22.486  0.00  0.00    +0.120 C 
BRANCH  17  21
ATOM     21  C   UNL     1       2.114  -0.240  22.802  0.00  0.00    -0.033 A 
ATOM     22  C   UNL     1       2.709  -1.370  23.363  0.00  0.00    +0.007 A 
ATOM     23  C   UNL     1       2.883   0.893  22.534  0.00  0.00    +0.007 A 
ATOM     25  C   UNL     1       4.073  -1.367  23.657  0.00  0.00    +0.027 A 
ATOM     26  C   UNL     1       4.247   0.896  22.828  0.00  0.00    +0.027 A 
ATOM     27  C   UNL     1       4.841  -0.235  23.389  0.00  0.00    +0.088 A 
BRANCH  27   1
ATOM      1  S   UNL     1       6.549  -0.234  23.753  0.00  0.00    -0.006 S 
ATOM      4  O   UNL     1       6.781  -1.062  24.929  0.00  0.00    -0.170 OA
ATOM      5  O   UNL     1       7.270  -0.513  22.520  0.00  0.00    -0.170 OA
ATOM     29  C   UNL     1       6.901   1.445  24.225  0.00  0.00    +0.200 C 
ENDBRANCH  27   1
ENDBRANCH  17  21
ENDBRANCH   6  17
BRANCH  14  18
ATOM     18  C   UNL     1      -5.775   0.122  24.979  0.00  0.00    +0.029 C 
BRANCH  18  20
ATOM     20  C   UNL     1      -5.343   1.234  25.920  0.00  0.00    +0.098 C 
BRANCH  20  24
ATOM      3  O   UNL     1      -4.984   2.971  24.286  0.00  0.00    -0.275 OA
ATOM      9  N   UNL     1      -3.324   2.528  25.887  0.00  0.00    -0.285 N 
ATOM     24  C   UNL     1      -4.546   2.345  25.246  0.00  0.00    +0.217 C 
ATOM     36  H   UNL     1      -3.118   1.929  26.685  0.00  0.00    +0.155 HD
BRANCH   9  28
ATOM     28  C   UNL     1      -2.310   3.459  25.561  0.00  0.00    +0.033 A 
ATOM     30  C   UNL     1      -0.975   3.056  25.541  0.00  0.00    +0.023 A 
ATOM     31  C   UNL     1      -2.645   4.779  25.259  0.00  0.00    +0.023 A 
ATOM     32  C   UNL     1       0.026   3.974  25.218  0.00  0.00    +0.002 A 
ATOM     33  C   UNL     1      -1.644   5.696  24.937  0.00  0.00    +0.002 A 
ATOM     34  C   UNL     1      -0.309   5.293  24.917  0.00  0.00    +0.000 A 
ENDBRANCH   9  28
ENDBRANCH  20  24
ENDBRANCH  18  20
ENDBRANCH  14  18
TORSDOF 7
ENDMDL
MODEL 3
REMARK VINA RESULT:       8.1      1.683      2.234
REMARK  Name = 45361052
REMARK  9 active torsions:
REMARK  status: ('A' for Active; 'I' for Inactive)
REMARK    1  A    between atoms: S_1  and  C_27
REMARK    2  A    between atoms: S_1  and  C_29
REMARK    3  A    between atoms: N_6  and  C_17
REMARK    4  A    between atoms: N_7  and  C_19
REMARK    5  A    between atoms: N_9  and  C_28
REMARK    6  A    between atoms: C_14  and  C_18
REMARK    7  A    between atoms: C_17  and  C_21
REMARK    8  A    between atoms: C_18  and  C_20
REMARK    9  A    between atoms: C_20  and  C_24
REMARK                            x       y       z     vdW  Elec       q    Type
REMARK                         _______ _______ _______ _____ _____    ______ ____
ROOT
ATOM      2  O   UNL     1      -2.228   1.946  23.721  0.00  0.00    -0.274 OA
ATOM      6  N   UNL     1      -2.495  -0.569  24.665  0.00  0.00    -0.286 NA
ATOM      7  N   UNL     1      -5.436   1.296  25.789  0.00  0.00    -0.296 NA
ATOM      8  N   UNL     1      -4.450   2.218  23.240  0.00  0.00    -0.312 N 
ATOM     10  C   UNL     1      -4.714   0.057  25.426  0.00  0.00    +0.084 C 
ATOM     11  C   UNL     1      -3.732   0.098  24.217  0.00  0.00    +0.161 C 
ATOM     12  C   UNL     1      -3.816  -0.496  26.549  0.00  0.00    +0.036 C 
ATOM     13  C   UNL     1      -2.846  -1.397  25.814  0.00  0.00    +0.087 C 
ATOM     14  C   UNL     1      -6.372   1.793  24.743  0.00  0.00    +0.074 C 
ATOM     15  C   UNL     1      -3.374   1.497  23.724  0.00  0.00    +0.232 C 
ATOM     16  C   UNL     1      -5.820   1.750  23.305  0.00  0.00    +0.123 C 
ATOM     19  C   UNL     1      -6.143   1.133  27.071  0.00  0.00    +0.105 C 
ATOM     35  H   UNL     1      -4.269   3.131  22.835  0.00  0.00    +0.149 HD
ENDROOT
BRANCH   6  17
ATOM     17  C   UNL     1      -1.842  -1.339  23.614  0.00  0.00    +0.120 C 
BRANCH  17  21
ATOM     21  C   UNL     1      -0.458  -0.825  23.320  0.00  0.00    -0.033 A 
ATOM     22  C   UNL     1       0.237  -0.099  24.288  0.00  0.00    +0.007 A 
ATOM     23  C   UNL     1       0.130  -1.075  22.080  0.00  0.00    +0.007 A 
ATOM     25  C   UNL     1       1.519   0.377  24.015  0.00  0.00    +0.027 A 
ATOM     26  C   UNL     1       1.412  -0.597  21.807  0.00  0.00    +0.027 A 
ATOM     27  C   UNL     1       2.106   0.128  22.775  0.00  0.00    +0.088 A 
BRANCH  27   1
ATOM      1  S   UNL     1       3.713   0.722  22.436  0.00  0.00    -0.006 S 
ATOM      4  O   UNL     1       4.053   0.401  21.056  0.00  0.00    -0.170 OA
ATOM      5  O   UNL     1       3.787   2.101  22.896  0.00  0.00    -0.170 OA
ATOM     29  C   UNL     1       4.775  -0.258  23.473  0.00  0.00    +0.200 C 
ENDBRANCH  27   1
ENDBRANCH  17  21
ENDBRANCH   6  17
BRANCH  14  18
ATOM     18  C   UNL     1      -6.785   3.251  25.038  0.00  0.00    +0.029 C 
BRANCH  18  20
ATOM     20  C   UNL     1      -5.803   3.939  25.972  0.00  0.00    +0.098 C 
BRANCH  20  24
ATOM      3  O   UNL     1      -4.290   4.804  24.306  0.00  0.00    -0.275 OA
ATOM      9  N   UNL     1      -3.431   3.653  26.162  0.00  0.00    -0.285 N 
ATOM     24  C   UNL     1      -4.432   4.189  25.357  0.00  0.00    +0.217 C 
ATOM     36  H   UNL     1      -3.718   3.180  27.018  0.00  0.00    +0.155 HD
BRANCH   9  28
ATOM     28  C   UNL     1      -2.034   3.679  25.934  0.00  0.00    +0.033 A 
ATOM     30  C   UNL     1      -1.479   4.674  25.129  0.00  0.00    +0.023 A 
ATOM     31  C   UNL     1      -1.213   2.713  26.514  0.00  0.00    +0.023 A 
ATOM     32  C   UNL     1      -0.103   4.702  24.904  0.00  0.00    +0.002 A 
ATOM     33  C   UNL     1       0.163   2.741  26.289  0.00  0.00    +0.002 A 
ATOM     34  C   UNL     1       0.718   3.736  25.483  0.00  0.00    +0.000 A 
ENDBRANCH   9  28
ENDBRANCH  20  24
ENDBRANCH  18  20
ENDBRANCH  14  18
TORSDOF 7
ENDMDL
