MODEL 1
REMARK VINA RESULT:       4.7      0.000      0.000
REMARK  Name = 51137930
REMARK  5 active torsions:
REMARK  status: ('A' for Active; 'I' for Inactive)
REMARK    1  A    between atoms: O_2  and  C_16
REMARK    2  A    between atoms: O_2  and  C_25
REMARK    3  A    between atoms: C_8  and  C_12
REMARK    4  A    between atoms: C_14  and  C_15
REMARK    5  A    between atoms: C_23  and  C_24
REMARK                            x       y       z     vdW  Elec       q    Type
REMARK                         _______ _______ _______ _____ _____    ______ ____
ROOT
ATOM      3  N   UNL     1      -4.121   0.366  24.418  0.00  0.00    -0.299 N 
ATOM      5  N   UNL     1      -4.213   2.659  24.092  0.00  0.00    -0.179 NA
ATOM      6  N   UNL     1      -5.309   1.615  25.967  0.00  0.00    -0.223 NA
ATOM      8  C   UNL     1      -2.825  -1.302  23.331  0.00  0.00    +0.095 C 
ATOM      9  C   UNL     1      -3.961  -1.964  24.117  0.00  0.00    +0.033 C 
ATOM     10  C   UNL     1      -3.310   0.156  23.218  0.00  0.00    +0.121 C 
ATOM     11  C   UNL     1      -4.407  -0.888  25.107  0.00  0.00    +0.109 C 
ATOM     13  C   UNL     1      -4.566   1.599  24.844  0.00  0.00    +0.221 A 
ATOM     16  C   UNL     1      -4.666   3.849  24.538  0.00  0.00    +0.219 A 
ATOM     17  C   UNL     1      -5.730   2.837  26.355  0.00  0.00    +0.119 A 
ATOM     18  C   UNL     1      -5.435   4.001  25.674  0.00  0.00    +0.087 A 
ENDROOT
BRANCH   8  12
ATOM      1  O   UNL     1      -0.392  -0.974  23.393  0.00  0.00    -0.420 OA
ATOM      4  N   UNL     1      -1.190  -2.172  25.104  0.00  0.00    -0.112 NA
ATOM      7  N   UNL     1       0.179  -2.064  25.261  0.00  0.00    -0.107 NA
ATOM     12  C   UNL     1      -1.479  -1.521  24.002  0.00  0.00    +0.222 A 
ATOM     14  C   UNL     1       0.603  -1.357  24.239  0.00  0.00    +0.248 A 
BRANCH  14  15
ATOM     15  C   UNL     1       1.926  -0.934  23.885  0.00  0.00    +0.038 A 
ATOM     19  C   UNL     1       3.022  -1.745  24.186  0.00  0.00    +0.013 A 
ATOM     20  C   UNL     1       2.120   0.287  23.238  0.00  0.00    +0.013 A 
ATOM     21  C   UNL     1       4.310  -1.334  23.840  0.00  0.00    +0.004 A 
ATOM     22  C   UNL     1       3.407   0.697  22.894  0.00  0.00    +0.004 A 
ATOM     23  C   UNL     1       4.502  -0.113  23.195  0.00  0.00    -0.050 A 
ATOM     24  C   UNL     1       5.879   0.326  22.827  0.00  0.00    +0.044 C 
ENDBRANCH  14  15
ENDBRANCH   8  12
BRANCH  16   2
ATOM      2  O   UNL     1      -4.331   4.957  23.806  0.00  0.00    -0.480 OA
ATOM     25  C   UNL     1      -2.979   5.395  23.889  0.00  0.00    +0.279 C 
ENDBRANCH  16   2
TORSDOF 3
ENDMDL
MODEL 2
REMARK VINA RESULT:       5.2      1.991      2.404
REMARK  Name = 51137930
REMARK  5 active torsions:
REMARK  status: ('A' for Active; 'I' for Inactive)
REMARK    1  A    between atoms: O_2  and  C_16
REMARK    2  A    between atoms: O_2  and  C_25
REMARK    3  A    between atoms: C_8  and  C_12
REMARK    4  A    between atoms: C_14  and  C_15
REMARK    5  A    between atoms: C_23  and  C_24
REMARK                            x       y       z     vdW  Elec       q    Type
REMARK                         _______ _______ _______ _____ _____    ______ ____
ROOT
ATOM      3  N   UNL     1      -2.006   1.004  25.386  0.00  0.00    -0.299 N 
ATOM      5  N   UNL     1      -3.487   2.704  24.849  0.00  0.00    -0.179 NA
ATOM      6  N   UNL     1      -2.021   2.875  26.753  0.00  0.00    -0.223 NA
ATOM      8  C   UNL     1      -1.384  -0.947  24.181  0.00  0.00    +0.095 C 
ATOM      9  C   UNL     1      -0.939  -1.080  25.641  0.00  0.00    +0.033 C 
ATOM     10  C   UNL     1      -2.438   0.174  24.260  0.00  0.00    +0.121 C 
ATOM     11  C   UNL     1      -0.961   0.354  26.171  0.00  0.00    +0.109 C 
ATOM     13  C   UNL     1      -2.527   2.247  25.674  0.00  0.00    +0.221 A 
ATOM     16  C   UNL     1      -3.974   3.923  25.161  0.00  0.00    +0.219 A 
ATOM     17  C   UNL     1      -2.554   4.088  27.008  0.00  0.00    +0.119 A 
ATOM     18  C   UNL     1      -3.541   4.669  26.238  0.00  0.00    +0.087 A 
ENDROOT
BRANCH   8  12
ATOM      1  O   UNL     1       1.028  -0.642  23.835  0.00  0.00    -0.420 OA
ATOM      4  N   UNL     1      -0.179  -0.548  21.954  0.00  0.00    -0.112 NA
ATOM      7  N   UNL     1       1.150  -0.363  21.618  0.00  0.00    -0.107 NA
ATOM     12  C   UNL     1      -0.202  -0.707  23.256  0.00  0.00    +0.222 A 
ATOM     14  C   UNL     1       1.817  -0.425  22.747  0.00  0.00    +0.248 A 
BRANCH  14  15
ATOM     15  C   UNL     1       3.222  -0.302  23.005  0.00  0.00    +0.038 A 
ATOM     19  C   UNL     1       3.915  -1.351  23.611  0.00  0.00    +0.013 A 
ATOM     20  C   UNL     1       3.898   0.866  22.651  0.00  0.00    +0.013 A 
ATOM     21  C   UNL     1       5.282  -1.232  23.862  0.00  0.00    +0.004 A 
ATOM     22  C   UNL     1       5.264   0.985  22.902  0.00  0.00    +0.004 A 
ATOM     23  C   UNL     1       5.956  -0.063  23.508  0.00  0.00    -0.050 A 
ATOM     24  C   UNL     1       7.418   0.064  23.777  0.00  0.00    +0.044 C 
ENDBRANCH  14  15
ENDBRANCH   8  12
BRANCH  16   2
ATOM      2  O   UNL     1      -4.953   4.430  24.348  0.00  0.00    -0.480 OA
ATOM     25  C   UNL     1      -6.090   4.995  24.990  0.00  0.00    +0.279 C 
ENDBRANCH  16   2
TORSDOF 3
ENDMDL
MODEL 3
REMARK VINA RESULT:       5.3      2.109      7.175
REMARK  Name = 51137930
REMARK  5 active torsions:
REMARK  status: ('A' for Active; 'I' for Inactive)
REMARK    1  A    between atoms: O_2  and  C_16
REMARK    2  A    between atoms: O_2  and  C_25
REMARK    3  A    between atoms: C_8  and  C_12
REMARK    4  A    between atoms: C_14  and  C_15
REMARK    5  A    between atoms: C_23  and  C_24
REMARK                            x       y       z     vdW  Elec       q    Type
REMARK                         _______ _______ _______ _____ _____    ______ ____
ROOT
ATOM      3  N   UNL     1       0.164  -1.186  23.603  0.00  0.00    -0.299 N 
ATOM      5  N   UNL     1       2.252  -0.199  23.793  0.00  0.00    -0.179 NA
ATOM      6  N   UNL     1       1.317  -0.745  21.641  0.00  0.00    -0.223 NA
ATOM      8  C   UNL     1      -1.524  -1.567  25.230  0.00  0.00    +0.095 C 
ATOM      9  C   UNL     1      -1.810  -2.411  23.984  0.00  0.00    +0.033 C 
ATOM     10  C   UNL     1      -0.035  -1.214  25.052  0.00  0.00    +0.121 C 
ATOM     11  C   UNL     1      -0.974  -1.754  22.887  0.00  0.00    +0.109 C 
ATOM     13  C   UNL     1       1.292  -0.689  22.987  0.00  0.00    +0.221 A 
ATOM     16  C   UNL     1       3.342   0.279  23.157  0.00  0.00    +0.219 A 
ATOM     17  C   UNL     1       2.435  -0.252  21.071  0.00  0.00    +0.119 A 
ATOM     18  C   UNL     1       3.490   0.279  21.785  0.00  0.00    +0.087 A 
ENDROOT
BRANCH   8  12
ATOM      1  O   UNL     1      -1.991   0.841  25.099  0.00  0.00    -0.420 OA
ATOM      4  N   UNL     1      -3.764  -0.399  25.664  0.00  0.00    -0.112 NA
ATOM      7  N   UNL     1      -4.163   0.925  25.626  0.00  0.00    -0.107 NA
ATOM     12  C   UNL     1      -2.491  -0.400  25.349  0.00  0.00    +0.222 A 
ATOM     14  C   UNL     1      -3.095   1.612  25.293  0.00  0.00    +0.248 A 
BRANCH  14  15
ATOM     15  C   UNL     1      -2.917   3.022  25.104  0.00  0.00    +0.038 A 
ATOM     19  C   UNL     1      -1.727   3.634  25.500  0.00  0.00    +0.013 A 
ATOM     20  C   UNL     1      -3.934   3.783  24.526  0.00  0.00    +0.013 A 
ATOM     21  C   UNL     1      -1.554   5.006  25.316  0.00  0.00    +0.004 A 
ATOM     22  C   UNL     1      -3.761   5.154  24.344  0.00  0.00    +0.004 A 
ATOM     23  C   UNL     1      -2.571   5.766  24.738  0.00  0.00    -0.050 A 
ATOM     24  C   UNL     1      -2.386   7.233  24.543  0.00  0.00    +0.044 C 
ENDBRANCH  14  15
ENDBRANCH   8  12
BRANCH  16   2
ATOM      2  O   UNL     1       4.346   0.789  23.937  0.00  0.00    -0.480 OA
ATOM     25  C   UNL     1       5.574   0.070  23.950  0.00  0.00    +0.279 C 
ENDBRANCH  16   2
TORSDOF 3
ENDMDL
MODEL 4
REMARK VINA RESULT:       5.8      2.011      7.188
REMARK  Name = 51137930
REMARK  5 active torsions:
REMARK  status: ('A' for Active; 'I' for Inactive)
REMARK    1  A    between atoms: O_2  and  C_16
REMARK    2  A    between atoms: O_2  and  C_25
REMARK    3  A    between atoms: C_8  and  C_12
REMARK    4  A    between atoms: C_14  and  C_15
REMARK    5  A    between atoms: C_23  and  C_24
REMARK                            x       y       z     vdW  Elec       q    Type
REMARK                         _______ _______ _______ _____ _____    ______ ____
ROOT
ATOM      3  N   UNL     1      -0.045  -1.295  23.723  0.00  0.00    -0.299 N 
ATOM      5  N   UNL     1       1.974  -0.159  23.762  0.00  0.00    -0.179 NA
ATOM      6  N   UNL     1       1.027  -0.958  21.696  0.00  0.00    -0.223 NA
ATOM      8  C   UNL     1      -1.663  -1.639  25.428  0.00  0.00    +0.095 C 
ATOM      9  C   UNL     1      -1.921  -2.609  24.271  0.00  0.00    +0.033 C 
ATOM     10  C   UNL     1      -0.207  -1.205  25.174  0.00  0.00    +0.121 C 
ATOM     11  C   UNL     1      -1.158  -2.000  23.094  0.00  0.00    +0.109 C 
ATOM     13  C   UNL     1       1.031  -0.782  23.031  0.00  0.00    +0.221 A 
ATOM     16  C   UNL     1       3.013   0.331  23.053  0.00  0.00    +0.219 A 
ATOM     17  C   UNL     1       2.095  -0.445  21.051  0.00  0.00    +0.119 A 
ATOM     18  C   UNL     1       3.128   0.217  21.683  0.00  0.00    +0.087 A 
ENDROOT
BRANCH   8  12
ATOM      1  O   UNL     1      -2.328   0.686  24.996  0.00  0.00    -0.420 OA
ATOM      4  N   UNL     1      -3.942  -0.566  25.908  0.00  0.00    -0.112 NA
ATOM      7  N   UNL     1      -4.446   0.707  25.719  0.00  0.00    -0.107 NA
ATOM     12  C   UNL     1      -2.705  -0.533  25.472  0.00  0.00    +0.222 A 
ATOM     14  C   UNL     1      -3.469   1.404  25.185  0.00  0.00    +0.248 A 
BRANCH  14  15
ATOM     15  C   UNL     1      -3.421   2.778  24.778  0.00  0.00    +0.038 A 
ATOM     19  C   UNL     1      -4.070   3.183  23.611  0.00  0.00    +0.013 A 
ATOM     20  C   UNL     1      -2.725   3.710  25.548  0.00  0.00    +0.013 A 
ATOM     21  C   UNL     1      -4.024   4.520  23.216  0.00  0.00    +0.004 A 
ATOM     22  C   UNL     1      -2.677   5.046  25.152  0.00  0.00    +0.004 A 
ATOM     23  C   UNL     1      -3.327   5.451  23.986  0.00  0.00    -0.050 A 
ATOM     24  C   UNL     1      -3.276   6.880  23.562  0.00  0.00    +0.044 C 
ENDBRANCH  14  15
ENDBRANCH   8  12
BRANCH  16   2
ATOM      2  O   UNL     1       3.998   0.974  23.755  0.00  0.00    -0.480 OA
ATOM     25  C   UNL     1       5.318   0.458  23.627  0.00  0.00    +0.279 C 
ENDBRANCH  16   2
TORSDOF 3
ENDMDL
MODEL 5
REMARK VINA RESULT:       7.0      1.535      1.987
REMARK  Name = 51137930
REMARK  5 active torsions:
REMARK  status: ('A' for Active; 'I' for Inactive)
REMARK    1  A    between atoms: O_2  and  C_16
REMARK    2  A    between atoms: O_2  and  C_25
REMARK    3  A    between atoms: C_8  and  C_12
REMARK    4  A    between atoms: C_14  and  C_15
REMARK    5  A    between atoms: C_23  and  C_24
REMARK                            x       y       z     vdW  Elec       q    Type
REMARK                         _______ _______ _______ _____ _____    ______ ____
ROOT
ATOM      3  N   UNL     1      -2.952   1.917  24.363  0.00  0.00    -0.299 N 
ATOM      5  N   UNL     1      -2.398   4.155  24.601  0.00  0.00    -0.179 NA
ATOM      6  N   UNL     1      -3.792   3.031  26.214  0.00  0.00    -0.223 NA
ATOM      8  C   UNL     1      -2.137   0.271  22.856  0.00  0.00    +0.095 C 
ATOM      9  C   UNL     1      -3.434  -0.223  23.506  0.00  0.00    +0.033 C 
ATOM     10  C   UNL     1      -2.198   1.788  23.116  0.00  0.00    +0.121 C 
ATOM     11  C   UNL     1      -3.593   0.662  24.743  0.00  0.00    +0.109 C 
ATOM     13  C   UNL     1      -3.051   3.084  25.090  0.00  0.00    +0.221 A 
ATOM     16  C   UNL     1      -2.516   5.279  25.337  0.00  0.00    +0.219 A 
ATOM     17  C   UNL     1      -3.869   4.190  26.899  0.00  0.00    +0.119 A 
ATOM     18  C   UNL     1      -3.246   5.357  26.506  0.00  0.00    +0.087 A 
ENDROOT
BRANCH   8  12
ATOM      1  O   UNL     1       0.298   0.033  23.064  0.00  0.00    -0.420 OA
ATOM      4  N   UNL     1      -0.864  -1.532  24.160  0.00  0.00    -0.112 NA
ATOM      7  N   UNL     1       0.480  -1.782  24.360  0.00  0.00    -0.107 NA
ATOM     12  C   UNL     1      -0.924  -0.465  23.400  0.00  0.00    +0.222 A 
ATOM     14  C   UNL     1       1.121  -0.844  23.701  0.00  0.00    +0.248 A 
BRANCH  14  15
ATOM     15  C   UNL     1       2.527  -0.606  23.553  0.00  0.00    +0.038 A 
ATOM     19  C   UNL     1       2.978   0.602  23.019  0.00  0.00    +0.013 A 
ATOM     20  C   UNL     1       3.445  -1.581  23.943  0.00  0.00    +0.013 A 
ATOM     21  C   UNL     1       4.347   0.834  22.876  0.00  0.00    +0.004 A 
ATOM     22  C   UNL     1       4.813  -1.350  23.799  0.00  0.00    +0.004 A 
ATOM     23  C   UNL     1       5.263  -0.143  23.265  0.00  0.00    -0.050 A 
ATOM     24  C   UNL     1       6.726   0.105  23.111  0.00  0.00    +0.044 C 
ENDBRANCH  14  15
ENDBRANCH   8  12
BRANCH  16   2
ATOM      2  O   UNL     1      -1.868   6.396  24.879  0.00  0.00    -0.480 OA
ATOM     25  C   UNL     1      -2.340   6.955  23.659  0.00  0.00    +0.279 C 
ENDBRANCH  16   2
TORSDOF 3
ENDMDL
MODEL 6
REMARK VINA RESULT:       7.2      2.559      3.527
REMARK  Name = 51137930
REMARK  5 active torsions:
REMARK  status: ('A' for Active; 'I' for Inactive)
REMARK    1  A    between atoms: O_2  and  C_16
REMARK    2  A    between atoms: O_2  and  C_25
REMARK    3  A    between atoms: C_8  and  C_12
REMARK    4  A    between atoms: C_14  and  C_15
REMARK    5  A    between atoms: C_23  and  C_24
REMARK                            x       y       z     vdW  Elec       q    Type
REMARK                         _______ _______ _______ _____ _____    ______ ____
ROOT
ATOM      3  N   UNL     1      -2.646   2.902  24.760  0.00  0.00    -0.299 N 
ATOM      5  N   UNL     1      -4.422   1.804  25.766  0.00  0.00    -0.179 NA
ATOM      6  N   UNL     1      -4.739   3.157  23.798  0.00  0.00    -0.223 NA
ATOM      8  C   UNL     1      -0.307   2.742  25.146  0.00  0.00    +0.095 C 
ATOM      9  C   UNL     1      -0.610   4.002  24.328  0.00  0.00    +0.033 C 
ATOM     10  C   UNL     1      -1.685   2.402  25.744  0.00  0.00    +0.121 C 
ATOM     11  C   UNL     1      -2.008   3.755  23.762  0.00  0.00    +0.109 C 
ATOM     13  C   UNL     1      -3.992   2.608  24.776  0.00  0.00    +0.221 A 
ATOM     16  C   UNL     1      -5.745   1.538  25.751  0.00  0.00    +0.219 A 
ATOM     17  C   UNL     1      -6.052   2.851  23.844  0.00  0.00    +0.119 A 
ATOM     18  C   UNL     1      -6.617   2.038  24.806  0.00  0.00    +0.087 A 
ENDROOT
BRANCH   8  12
ATOM      1  O   UNL     1       1.706   1.569  24.371  0.00  0.00    -0.420 OA
ATOM      4  N   UNL     1      -0.194   0.800  23.477  0.00  0.00    -0.112 NA
ATOM      7  N   UNL     1       0.851   0.057  22.961  0.00  0.00    -0.107 NA
ATOM     12  C   UNL     1       0.351   1.668  24.295  0.00  0.00    +0.222 A 
ATOM     14  C   UNL     1       1.941   0.541  23.510  0.00  0.00    +0.248 A 
BRANCH  14  15
ATOM     15  C   UNL     1       3.314   0.161  23.346  0.00  0.00    +0.038 A 
ATOM     19  C   UNL     1       3.760  -1.070  23.828  0.00  0.00    +0.013 A 
ATOM     20  C   UNL     1       4.204   1.022  22.703  0.00  0.00    +0.013 A 
ATOM     21  C   UNL     1       5.095  -1.440  23.667  0.00  0.00    +0.004 A 
ATOM     22  C   UNL     1       5.539   0.652  22.544  0.00  0.00    +0.004 A 
ATOM     23  C   UNL     1       5.985  -0.578  23.025  0.00  0.00    -0.050 A 
ATOM     24  C   UNL     1       7.413  -0.974  22.855  0.00  0.00    +0.044 C 
ENDBRANCH  14  15
ENDBRANCH   8  12
BRANCH  16   2
ATOM      2  O   UNL     1      -6.228   0.722  26.740  0.00  0.00    -0.480 OA
ATOM     25  C   UNL     1      -7.049   1.333  27.729  0.00  0.00    +0.279 C 
ENDBRANCH  16   2
TORSDOF 3
ENDMDL
MODEL 7
REMARK VINA RESULT:       7.8      2.366      8.105
REMARK  Name = 51137930
REMARK  5 active torsions:
REMARK  status: ('A' for Active; 'I' for Inactive)
REMARK    1  A    between atoms: O_2  and  C_16
REMARK    2  A    between atoms: O_2  and  C_25
REMARK    3  A    between atoms: C_8  and  C_12
REMARK    4  A    between atoms: C_14  and  C_15
REMARK    5  A    between atoms: C_23  and  C_24
REMARK                            x       y       z     vdW  Elec       q    Type
REMARK                         _______ _______ _______ _____ _____    ______ ____
ROOT
ATOM      3  N   UNL     1       1.447  -0.470  22.928  0.00  0.00    -0.299 N 
ATOM      5  N   UNL     1       3.567  -0.823  23.795  0.00  0.00    -0.179 NA
ATOM      6  N   UNL     1       3.099   1.052  22.356  0.00  0.00    -0.223 NA
ATOM      8  C   UNL     1      -0.624  -1.523  23.423  0.00  0.00    +0.095 C 
ATOM      9  C   UNL     1      -0.744  -0.742  22.110  0.00  0.00    +0.033 C 
ATOM     10  C   UNL     1       0.902  -1.659  23.584  0.00  0.00    +0.121 C 
ATOM     11  C   UNL     1       0.435   0.231  22.144  0.00  0.00    +0.109 C 
ATOM     13  C   UNL     1       2.760  -0.064  23.031  0.00  0.00    +0.221 A 
ATOM     16  C   UNL     1       4.845  -0.396  23.874  0.00  0.00    +0.219 A 
ATOM     17  C   UNL     1       4.391   1.420  22.477  0.00  0.00    +0.119 A 
ATOM     18  C   UNL     1       5.318   0.729  23.230  0.00  0.00    +0.087 A 
ENDROOT
BRANCH   8  12
ATOM      1  O   UNL     1      -2.166   0.217  24.215  0.00  0.00    -0.420 OA
ATOM      4  N   UNL     1      -1.371  -1.100  25.838  0.00  0.00    -0.112 NA
ATOM      7  N   UNL     1      -2.218  -0.174  26.417  0.00  0.00    -0.107 NA
ATOM     12  C   UNL     1      -1.371  -0.835  24.553  0.00  0.00    +0.222 A 
ATOM     14  C   UNL     1      -2.658   0.574  25.432  0.00  0.00    +0.248 A 
BRANCH  14  15
ATOM     15  C   UNL     1      -3.562   1.688  25.441  0.00  0.00    +0.038 A 
ATOM     19  C   UNL     1      -4.937   1.472  25.341  0.00  0.00    +0.013 A 
ATOM     20  C   UNL     1      -3.066   2.987  25.552  0.00  0.00    +0.013 A 
ATOM     21  C   UNL     1      -5.816   2.555  25.350  0.00  0.00    +0.004 A 
ATOM     22  C   UNL     1      -3.945   4.070  25.560  0.00  0.00    +0.004 A 
ATOM     23  C   UNL     1      -5.319   3.854  25.460  0.00  0.00    -0.050 A 
ATOM     24  C   UNL     1      -6.259   5.012  25.469  0.00  0.00    +0.044 C 
ENDBRANCH  14  15
ENDBRANCH   8  12
BRANCH  16   2
ATOM      2  O   UNL     1       5.704  -1.138  24.641  0.00  0.00    -0.480 OA
ATOM     25  C   UNL     1       7.090  -1.033  24.334  0.00  0.00    +0.279 C 
ENDBRANCH  16   2
TORSDOF 3
ENDMDL
