MODEL 1
REMARK VINA RESULT:      16.3      0.000      0.000
REMARK  Name = 7134871
REMARK  11 active torsions:
REMARK  status: ('A' for Active; 'I' for Inactive)
REMARK    1  A    between atoms: O_3  and  C_15
REMARK    2  A    between atoms: O_4  and  C_20
REMARK    3  A    between atoms: N_8  and  C_26
REMARK    4  A    between atoms: C_10  and  C_18
REMARK    5  A    between atoms: C_12  and  C_20
REMARK    6  A    between atoms: C_12  and  C_21
REMARK    7  A    between atoms: C_13  and  C_23
REMARK    8  A    between atoms: C_23  and  C_24
REMARK    9  A    between atoms: C_26  and  C_28
REMARK   10  A    between atoms: C_26  and  C_29
REMARK   11  A    between atoms: C_27  and  C_30
REMARK                            x       y       z     vdW  Elec       q    Type
REMARK                         _______ _______ _______ _____ _____    ______ ____
ROOT
ATOM      1  S   UNL     1       0.166   2.243  25.945  0.00  0.00    -0.057 S 
ATOM      6  O   UNL     1       1.710   0.281  22.015  0.00  0.00    -0.270 OA
ATOM      7  N   UNL     1      -0.483   1.555  23.537  0.00  0.00    -0.229 NA
ATOM      9  N   UNL     1       1.776   1.083  24.231  0.00  0.00    -0.261 N 
ATOM     10  C   UNL     1      -4.107   2.583  24.359  0.00  0.00    -0.019 C 
ATOM     11  C   UNL     1      -3.638   3.713  25.380  0.00  0.00    +0.011 C 
ATOM     12  C   UNL     1      -4.768   4.463  26.185  0.00  0.00    +0.021 C 
ATOM     13  C   UNL     1      -2.893   2.282  23.365  0.00  0.00    +0.054 C 
ATOM     14  C   UNL     1      -5.304   3.107  23.524  0.00  0.00    +0.010 C 
ATOM     15  C   UNL     1      -5.905   4.877  25.209  0.00  0.00    +0.123 C 
ATOM     16  C   UNL     1      -2.456   3.223  26.266  0.00  0.00    +0.049 C 
ATOM     17  C   UNL     1      -6.419   3.719  24.360  0.00  0.00    +0.032 C 
ATOM     18  C   UNL     1      -4.531   1.273  25.066  0.00  0.00    +0.012 C 
ATOM     19  C   UNL     1      -1.599   2.122  24.123  0.00  0.00    +0.058 A 
ATOM     21  C   UNL     1      -4.178   5.769  26.788  0.00  0.00    +0.016 C 
ATOM     22  C   UNL     1      -1.419   2.568  25.416  0.00  0.00    +0.015 A 
ATOM     25  C   UNL     1       0.504   1.559  24.406  0.00  0.00    +0.165 A 
ATOM     27  C   UNL     1       2.298   0.484  23.072  0.00  0.00    +0.250 C 
ATOM     44  H   UNL     1       2.380   1.235  25.033  0.00  0.00    +0.157 HD
ENDROOT
BRANCH  27  30
ATOM      2  F   UNL     1       7.701  -1.016  23.371  0.00  0.00    -0.205 F 
ATOM     30  C   UNL     1       3.728   0.086  23.150  0.00  0.00    +0.037 A 
ATOM     33  C   UNL     1       4.723   0.976  22.742  0.00  0.00    +0.016 A 
ATOM     34  C   UNL     1       4.076  -1.175  23.633  0.00  0.00    +0.016 A 
ATOM     38  C   UNL     1       6.065   0.602  22.816  0.00  0.00    +0.039 A 
ATOM     39  C   UNL     1       5.418  -1.548  23.708  0.00  0.00    +0.039 A 
ATOM     40  C   UNL     1       6.413  -0.660  23.299  0.00  0.00    +0.123 A 
ENDBRANCH  27  30
BRANCH  15   3
ATOM      3  O   UNL     1      -7.002   5.444  25.925  0.00  0.00    -0.391 OA
ATOM     41  H   UNL     1      -6.661   5.766  26.777  0.00  0.00    +0.210 HD
ENDBRANCH  15   3
BRANCH  12  20
ATOM     20  C   UNL     1      -5.334   3.671  27.385  0.00  0.00    +0.165 C 
BRANCH  20   4
ATOM      4  O   UNL     1      -6.244   2.719  26.884  0.00  0.00    -0.394 OA
ATOM     42  H   UNL     1      -5.980   1.852  27.236  0.00  0.00    +0.209 HD
ENDBRANCH  20   4
ENDBRANCH  12  20
BRANCH  13  23
ATOM     23  C   UNL     1      -3.130   1.108  22.406  0.00  0.00    +0.106 C 
BRANCH  23  24
ATOM      5  O   UNL     1      -1.655  -0.765  22.820  0.00  0.00    -0.276 OA
ATOM      8  N   UNL     1      -3.748  -0.708  23.831  0.00  0.00    -0.309 N 
ATOM     24  C   UNL     1      -2.735  -0.215  23.022  0.00  0.00    +0.214 C 
ATOM     43  H   UNL     1      -4.601  -0.171  23.949  0.00  0.00    +0.149 HD
BRANCH   8  26
ATOM     26  C   UNL     1      -3.647  -1.959  24.546  0.00  0.00    +0.100 C 
ATOM     28  C   UNL     1      -4.141  -3.115  23.679  0.00  0.00    +0.033 C 
BRANCH  26  29
ATOM     29  C   UNL     1      -2.244  -2.184  25.065  0.00  0.00    -0.027 A 
ATOM     31  C   UNL     1      -1.682  -1.283  25.971  0.00  0.00    +0.005 A 
ATOM     32  C   UNL     1      -1.509  -3.290  24.639  0.00  0.00    +0.005 A 
ATOM     35  C   UNL     1      -0.388  -1.489  26.449  0.00  0.00    +0.000 A 
ATOM     36  C   UNL     1      -0.215  -3.497  25.117  0.00  0.00    +0.000 A 
ATOM     37  C   UNL     1       0.345  -2.596  26.022  0.00  0.00    +0.000 A 
ENDBRANCH  26  29
ENDBRANCH   8  26
ENDBRANCH  23  24
ENDBRANCH  13  23
TORSDOF 8
ENDMDL
MODEL 2
REMARK VINA RESULT:      17.9      2.319      5.357
REMARK  Name = 7134871
REMARK  11 active torsions:
REMARK  status: ('A' for Active; 'I' for Inactive)
REMARK    1  A    between atoms: O_3  and  C_15
REMARK    2  A    between atoms: O_4  and  C_20
REMARK    3  A    between atoms: N_8  and  C_26
REMARK    4  A    between atoms: C_10  and  C_18
REMARK    5  A    between atoms: C_12  and  C_20
REMARK    6  A    between atoms: C_12  and  C_21
REMARK    7  A    between atoms: C_13  and  C_23
REMARK    8  A    between atoms: C_23  and  C_24
REMARK    9  A    between atoms: C_26  and  C_28
REMARK   10  A    between atoms: C_26  and  C_29
REMARK   11  A    between atoms: C_27  and  C_30
REMARK                            x       y       z     vdW  Elec       q    Type
REMARK                         _______ _______ _______ _____ _____    ______ ____
ROOT
ATOM      1  S   UNL     1       1.885  -1.727  23.523  0.00  0.00    -0.057 S 
ATOM      6  O   UNL     1       4.814   1.891  23.465  0.00  0.00    -0.270 OA
ATOM      7  N   UNL     1       2.053   0.851  23.666  0.00  0.00    -0.229 NA
ATOM      9  N   UNL     1       4.119  -0.360  23.390  0.00  0.00    -0.261 N 
ATOM     10  C   UNL     1      -1.801   0.973  23.640  0.00  0.00    -0.019 C 
ATOM     11  C   UNL     1      -1.928  -0.432  24.379  0.00  0.00    +0.011 C 
ATOM     12  C   UNL     1      -3.383  -1.016  24.560  0.00  0.00    +0.021 C 
ATOM     13  C   UNL     1      -0.349   1.564  23.953  0.00  0.00    +0.054 C 
ATOM     14  C   UNL     1      -2.860   1.953  24.209  0.00  0.00    +0.010 C 
ATOM     15  C   UNL     1      -4.322   0.104  25.091  0.00  0.00    +0.123 C 
ATOM     16  C   UNL     1      -0.904  -1.463  23.821  0.00  0.00    +0.049 C 
ATOM     17  C   UNL     1      -4.269   1.378  24.255  0.00  0.00    +0.032 C 
ATOM     18  C   UNL     1      -1.994   0.867  22.108  0.00  0.00    +0.012 C 
ATOM     19  C   UNL     1       0.716   0.515  23.763  0.00  0.00    +0.058 A 
ATOM     21  C   UNL     1      -3.348  -2.138  25.636  0.00  0.00    +0.016 C 
ATOM     22  C   UNL     1       0.447  -0.838  23.726  0.00  0.00    +0.015 A 
ATOM     25  C   UNL     1       2.761  -0.249  23.529  0.00  0.00    +0.165 A 
ATOM     27  C   UNL     1       5.050   0.692  23.367  0.00  0.00    +0.250 C 
ATOM     44  H   UNL     1       4.445  -1.320  23.343  0.00  0.00    +0.157 HD
ENDROOT
BRANCH  27  30
ATOM      2  F   UNL     1      10.423  -0.864  22.865  0.00  0.00    -0.205 F 
ATOM     30  C   UNL     1       6.473   0.279  23.235  0.00  0.00    +0.037 A 
ATOM     33  C   UNL     1       6.800  -0.883  22.535  0.00  0.00    +0.016 A 
ATOM     34  C   UNL     1       7.479   1.055  23.809  0.00  0.00    +0.016 A 
ATOM     38  C   UNL     1       8.135  -1.269  22.411  0.00  0.00    +0.039 A 
ATOM     39  C   UNL     1       8.814   0.669  23.684  0.00  0.00    +0.039 A 
ATOM     40  C   UNL     1       9.142  -0.493  22.986  0.00  0.00    +0.123 A 
ENDBRANCH  27  30
BRANCH  15   3
ATOM      3  O   UNL     1      -5.672  -0.355  25.144  0.00  0.00    -0.391 OA
ATOM     41  H   UNL     1      -5.904  -0.479  26.080  0.00  0.00    +0.210 HD
ENDBRANCH  15   3
BRANCH  12  20
ATOM     20  C   UNL     1      -3.972  -1.674  23.293  0.00  0.00    +0.165 C 
BRANCH  20   4
ATOM      4  O   UNL     1      -4.595  -2.877  23.682  0.00  0.00    -0.394 OA
ATOM     42  H   UNL     1      -4.912  -3.314  22.873  0.00  0.00    +0.209 HD
ENDBRANCH  20   4
ENDBRANCH  12  20
BRANCH  13  23
ATOM     23  C   UNL     1      -0.009   2.854  23.194  0.00  0.00    +0.106 C 
BRANCH  23  24
ATOM      5  O   UNL     1      -0.309   5.230  23.541  0.00  0.00    -0.276 OA
ATOM      8  N   UNL     1      -1.426   3.720  24.911  0.00  0.00    -0.309 N 
ATOM     24  C   UNL     1      -0.577   4.078  23.875  0.00  0.00    +0.214 C 
ATOM     43  H   UNL     1      -1.599   2.738  25.101  0.00  0.00    +0.149 HD
BRANCH   8  26
ATOM     26  C   UNL     1      -2.111   4.686  25.740  0.00  0.00    +0.100 C 
ATOM     28  C   UNL     1      -1.839   6.106  25.245  0.00  0.00    +0.033 C 
BRANCH  26  29
ATOM     29  C   UNL     1      -3.590   4.379  25.833  0.00  0.00    -0.027 A 
ATOM     31  C   UNL     1      -4.052   3.451  26.767  0.00  0.00    +0.005 A 
ATOM     32  C   UNL     1      -4.492   5.023  24.987  0.00  0.00    +0.005 A 
ATOM     35  C   UNL     1      -5.415   3.167  26.853  0.00  0.00    +0.000 A 
ATOM     36  C   UNL     1      -5.855   4.740  25.073  0.00  0.00    +0.000 A 
ATOM     37  C   UNL     1      -6.316   3.812  26.006  0.00  0.00    +0.000 A 
ENDBRANCH  26  29
ENDBRANCH   8  26
ENDBRANCH  23  24
ENDBRANCH  13  23
TORSDOF 8
ENDMDL
