MODEL 1
REMARK VINA RESULT:      -6.4      0.000      0.000
REMARK  Name = 71693844
REMARK  6 active torsions:
REMARK  status: ('A' for Active; 'I' for Inactive)
REMARK    1  A    between atoms: O_1  and  C_8
REMARK    2  A    between atoms: O_2  and  C_10
REMARK    3  A    between atoms: N_4  and  C_7
REMARK    4  A    between atoms: C_6  and  C_11
REMARK    5  A    between atoms: C_14  and  C_18
REMARK    6  A    between atoms: C_15  and  C_19
REMARK                            x       y       z     vdW  Elec       q    Type
REMARK                         _______ _______ _______ _____ _____    ______ ____
ROOT
ATOM      6  C   UNL     1      -1.787  -0.007  25.430  0.00  0.00    +0.044 C 
ATOM      7  C   UNL     1      -1.124  -0.795  24.278  0.00  0.00    +0.112 C 
ATOM      8  C   UNL     1      -1.470  -2.250  24.597  0.00  0.00    +0.164 C 
ATOM      9  C   UNL     1      -2.919  -0.918  25.970  0.00  0.00    +0.044 C 
ATOM     10  C   UNL     1      -2.912  -2.162  25.083  0.00  0.00    +0.145 C 
ENDROOT
BRANCH   6  11
ATOM     11  C   UNL     1      -2.244   1.376  25.014  0.00  0.00    -0.042 A 
ATOM     12  C   UNL     1      -1.413   2.477  25.220  0.00  0.00    +0.007 A 
ATOM     13  C   UNL     1      -3.496   1.548  24.423  0.00  0.00    +0.004 A 
ATOM     15  C   UNL     1      -1.834   3.750  24.836  0.00  0.00    -0.050 A 
ATOM     16  C   UNL     1      -3.917   2.821  24.040  0.00  0.00    +0.001 A 
ATOM     17  C   UNL     1      -3.086   3.923  24.246  0.00  0.00    +0.003 A 
ATOM     19  C   UNL     1      -0.946   4.928  25.057  0.00  0.00    +0.044 C 
ENDBRANCH   6  11
BRANCH   7   4
ATOM      3  O   UNL     1       0.459  -0.363  21.922  0.00  0.00    -0.270 OA
ATOM      4  N   UNL     1       0.300  -0.581  24.226  0.00  0.00    -0.305 N 
ATOM     14  C   UNL     1       0.983  -0.380  23.033  0.00  0.00    +0.246 C 
ATOM     24  H   UNL     1       0.801  -0.598  25.107  0.00  0.00    +0.149 HD
BRANCH  14  18
ATOM      5  N   UNL     1       4.603  -1.110  23.771  0.00  0.00    -0.263 NA
ATOM     18  C   UNL     1       2.452  -0.200  23.146  0.00  0.00    +0.055 A 
ATOM     20  C   UNL     1       3.061   0.987  22.755  0.00  0.00    +0.016 A 
ATOM     21  C   UNL     1       3.261  -1.210  23.644  0.00  0.00    +0.123 A 
ATOM     22  C   UNL     1       4.440   1.127  22.870  0.00  0.00    +0.020 A 
ATOM     23  C   UNL     1       5.158   0.058  23.380  0.00  0.00    +0.111 A 
ENDBRANCH  14  18
ENDBRANCH   7   4
BRANCH   8   1
ATOM      1  O   UNL     1      -1.364  -3.088  23.463  0.00  0.00    -0.387 OA
ATOM     25  H   UNL     1      -0.427  -3.325  23.362  0.00  0.00    +0.210 HD
ENDBRANCH   8   1
BRANCH  10   2
ATOM      2  O   UNL     1      -3.806  -1.953  23.995  0.00  0.00    -0.389 OA
ATOM     26  H   UNL     1      -3.765  -1.011  23.759  0.00  0.00    +0.210 HD
ENDBRANCH  10   2
TORSDOF 5
ENDMDL
MODEL 2
REMARK VINA RESULT:      -5.8      0.546      1.412
REMARK  Name = 71693844
REMARK  6 active torsions:
REMARK  status: ('A' for Active; 'I' for Inactive)
REMARK    1  A    between atoms: O_1  and  C_8
REMARK    2  A    between atoms: O_2  and  C_10
REMARK    3  A    between atoms: N_4  and  C_7
REMARK    4  A    between atoms: C_6  and  C_11
REMARK    5  A    between atoms: C_14  and  C_18
REMARK    6  A    between atoms: C_15  and  C_19
REMARK                            x       y       z     vdW  Elec       q    Type
REMARK                         _______ _______ _______ _____ _____    ______ ____
ROOT
ATOM      6  C   UNL     1      -1.478  -0.020  25.643  0.00  0.00    +0.044 C 
ATOM      7  C   UNL     1      -0.905  -0.713  24.386  0.00  0.00    +0.112 C 
ATOM      8  C   UNL     1      -1.368  -2.162  24.537  0.00  0.00    +0.164 C 
ATOM      9  C   UNL     1      -2.674  -0.895  26.100  0.00  0.00    +0.044 C 
ATOM     10  C   UNL     1      -2.788  -2.017  25.070  0.00  0.00    +0.145 C 
ENDROOT
BRANCH   6  11
ATOM     11  C   UNL     1      -1.823   1.436  25.410  0.00  0.00    -0.042 A 
ATOM     12  C   UNL     1      -3.116   1.795  25.031  0.00  0.00    +0.007 A 
ATOM     13  C   UNL     1      -0.846   2.419  25.573  0.00  0.00    +0.004 A 
ATOM     15  C   UNL     1      -3.434   3.136  24.818  0.00  0.00    -0.050 A 
ATOM     16  C   UNL     1      -1.164   3.760  25.358  0.00  0.00    +0.001 A 
ATOM     17  C   UNL     1      -2.458   4.119  24.981  0.00  0.00    +0.003 A 
ATOM     19  C   UNL     1      -4.817   3.520  24.413  0.00  0.00    +0.044 C 
ENDBRANCH   6  11
BRANCH   7   4
ATOM      3  O   UNL     1       0.668  -0.129  22.056  0.00  0.00    -0.270 OA
ATOM      4  N   UNL     1       0.531  -0.612  24.320  0.00  0.00    -0.305 N 
ATOM     14  C   UNL     1       1.207  -0.325  23.142  0.00  0.00    +0.246 C 
ATOM     24  H   UNL     1       1.045  -0.777  25.179  0.00  0.00    +0.149 HD
BRANCH  14  18
ATOM      5  N   UNL     1       4.755  -1.388  23.826  0.00  0.00    -0.263 NA
ATOM     18  C   UNL     1       2.689  -0.281  23.235  0.00  0.00    +0.055 A 
ATOM     20  C   UNL     1       3.399   0.847  22.838  0.00  0.00    +0.016 A 
ATOM     21  C   UNL     1       3.407  -1.363  23.717  0.00  0.00    +0.123 A 
ATOM     22  C   UNL     1       4.786   0.859  22.935  0.00  0.00    +0.020 A 
ATOM     23  C   UNL     1       5.410  -0.274  23.431  0.00  0.00    +0.111 A 
ENDBRANCH  14  18
ENDBRANCH   7   4
BRANCH   8   1
ATOM      1  O   UNL     1      -1.353  -2.861  23.306  0.00  0.00    -0.387 OA
ATOM     25  H   UNL     1      -0.423  -3.001  23.061  0.00  0.00    +0.210 HD
ENDBRANCH   8   1
BRANCH  10   2
ATOM      2  O   UNL     1      -3.681  -1.602  24.040  0.00  0.00    -0.389 OA
ATOM     26  H   UNL     1      -3.146  -1.387  23.258  0.00  0.00    +0.210 HD
ENDBRANCH  10   2
TORSDOF 5
ENDMDL
MODEL 3
REMARK VINA RESULT:      -4.2      2.368      4.465
REMARK  Name = 71693844
REMARK  6 active torsions:
REMARK  status: ('A' for Active; 'I' for Inactive)
REMARK    1  A    between atoms: O_1  and  C_8
REMARK    2  A    between atoms: O_2  and  C_10
REMARK    3  A    between atoms: N_4  and  C_7
REMARK    4  A    between atoms: C_6  and  C_11
REMARK    5  A    between atoms: C_14  and  C_18
REMARK    6  A    between atoms: C_15  and  C_19
REMARK                            x       y       z     vdW  Elec       q    Type
REMARK                         _______ _______ _______ _____ _____    ______ ____
ROOT
ATOM      6  C   UNL     1      -3.003   1.552  23.840  0.00  0.00    +0.044 C 
ATOM      7  C   UNL     1      -1.785   2.242  24.495  0.00  0.00    +0.112 C 
ATOM      8  C   UNL     1      -2.143   3.727  24.433  0.00  0.00    +0.164 C 
ATOM      9  C   UNL     1      -4.183   2.547  23.987  0.00  0.00    +0.044 C 
ATOM     10  C   UNL     1      -3.630   3.739  24.766  0.00  0.00    +0.145 C 
ENDROOT
BRANCH   6  11
ATOM     11  C   UNL     1      -3.276   0.173  24.404  0.00  0.00    -0.042 A 
ATOM     12  C   UNL     1      -3.760  -0.838  23.574  0.00  0.00    +0.007 A 
ATOM     13  C   UNL     1      -3.042  -0.086  25.755  0.00  0.00    +0.004 A 
ATOM     15  C   UNL     1      -4.010  -2.108  24.093  0.00  0.00    -0.050 A 
ATOM     16  C   UNL     1      -3.294  -1.356  26.274  0.00  0.00    +0.001 A 
ATOM     17  C   UNL     1      -3.778  -2.367  25.444  0.00  0.00    +0.003 A 
ATOM     19  C   UNL     1      -4.528  -3.188  23.205  0.00  0.00    +0.044 C 
ENDBRANCH   6  11
BRANCH   7   4
ATOM      3  O   UNL     1      -0.246  -0.177  24.656  0.00  0.00    -0.270 OA
ATOM      4  N   UNL     1      -0.560   1.954  23.795  0.00  0.00    -0.305 N 
ATOM     14  C   UNL     1       0.118   0.751  23.937  0.00  0.00    +0.246 C 
ATOM     24  H   UNL     1      -0.191   2.682  23.193  0.00  0.00    +0.149 HD
BRANCH  14  18
ATOM      5  N   UNL     1       2.562  -0.326  21.281  0.00  0.00    -0.263 NA
ATOM     18  C   UNL     1       1.381   0.619  23.167  0.00  0.00    +0.055 A 
ATOM     20  C   UNL     1       2.537   1.281  23.568  0.00  0.00    +0.016 A 
ATOM     21  C   UNL     1       1.445  -0.166  22.027  0.00  0.00    +0.123 A 
ATOM     22  C   UNL     1       3.705   1.141  22.826  0.00  0.00    +0.020 A 
ATOM     23  C   UNL     1       3.664   0.333  21.702  0.00  0.00    +0.111 A 
ENDBRANCH  14  18
ENDBRANCH   7   4
BRANCH   8   1
ATOM      1  O   UNL     1      -1.405   4.496  25.364  0.00  0.00    -0.387 OA
ATOM     25  H   UNL     1      -2.038   4.874  25.998  0.00  0.00    +0.210 HD
ENDBRANCH   8   1
BRANCH  10   2
ATOM      2  O   UNL     1      -3.844   3.514  26.156  0.00  0.00    -0.389 OA
ATOM     26  H   UNL     1      -4.722   3.110  26.255  0.00  0.00    +0.210 HD
ENDBRANCH  10   2
TORSDOF 5
ENDMDL
MODEL 4
REMARK VINA RESULT:      -3.6      2.347      4.284
REMARK  Name = 71693844
REMARK  6 active torsions:
REMARK  status: ('A' for Active; 'I' for Inactive)
REMARK    1  A    between atoms: O_1  and  C_8
REMARK    2  A    between atoms: O_2  and  C_10
REMARK    3  A    between atoms: N_4  and  C_7
REMARK    4  A    between atoms: C_6  and  C_11
REMARK    5  A    between atoms: C_14  and  C_18
REMARK    6  A    between atoms: C_15  and  C_19
REMARK                            x       y       z     vdW  Elec       q    Type
REMARK                         _______ _______ _______ _____ _____    ______ ____
ROOT
ATOM      6  C   UNL     1      -3.023   1.632  23.688  0.00  0.00    +0.044 C 
ATOM      7  C   UNL     1      -1.825   2.251  24.443  0.00  0.00    +0.112 C 
ATOM      8  C   UNL     1      -2.143   3.746  24.451  0.00  0.00    +0.164 C 
ATOM      9  C   UNL     1      -4.185   2.648  23.835  0.00  0.00    +0.044 C 
ATOM     10  C   UNL     1      -3.645   3.777  24.710  0.00  0.00    +0.145 C 
ENDROOT
BRANCH   6  11
ATOM     11  C   UNL     1      -3.356   0.231  24.155  0.00  0.00    -0.042 A 
ATOM     12  C   UNL     1      -3.091  -0.148  25.471  0.00  0.00    +0.007 A 
ATOM     13  C   UNL     1      -3.928  -0.682  23.268  0.00  0.00    +0.004 A 
ATOM     15  C   UNL     1      -3.399  -1.439  25.901  0.00  0.00    -0.050 A 
ATOM     16  C   UNL     1      -4.234  -1.973  23.698  0.00  0.00    +0.001 A 
ATOM     17  C   UNL     1      -3.970  -2.352  25.015  0.00  0.00    +0.003 A 
ATOM     19  C   UNL     1      -3.116  -1.843  27.309  0.00  0.00    +0.044 C 
ENDBRANCH   6  11
BRANCH   7   4
ATOM      3  O   UNL     1      -0.245  -0.132  24.707  0.00  0.00    -0.270 OA
ATOM      4  N   UNL     1      -0.572   1.972  23.788  0.00  0.00    -0.305 N 
ATOM     14  C   UNL     1       0.124   0.786  23.979  0.00  0.00    +0.246 C 
ATOM     24  H   UNL     1      -0.198   2.694  23.182  0.00  0.00    +0.149 HD
BRANCH  14  18
ATOM      5  N   UNL     1       3.730   1.316  23.030  0.00  0.00    -0.263 NA
ATOM     18  C   UNL     1       1.413   0.663  23.252  0.00  0.00    +0.055 A 
ATOM     20  C   UNL     1       1.539  -0.182  22.154  0.00  0.00    +0.016 A 
ATOM     21  C   UNL     1       2.529   1.383  23.647  0.00  0.00    +0.123 A 
ATOM     22  C   UNL     1       2.759  -0.278  21.494  0.00  0.00    +0.020 A 
ATOM     23  C   UNL     1       3.814   0.484  21.968  0.00  0.00    +0.111 A 
ENDBRANCH  14  18
ENDBRANCH   7   4
BRANCH   8   1
ATOM      1  O   UNL     1      -1.436   4.440  25.462  0.00  0.00    -0.387 OA
ATOM     25  H   UNL     1      -2.092   4.815  26.072  0.00  0.00    +0.210 HD
ENDBRANCH   8   1
BRANCH  10   2
ATOM      2  O   UNL     1      -3.935   3.478  26.072  0.00  0.00    -0.389 OA
ATOM     26  H   UNL     1      -4.047   2.516  26.144  0.00  0.00    +0.210 HD
ENDBRANCH  10   2
TORSDOF 5
ENDMDL
MODEL 5
REMARK VINA RESULT:      -3.3      2.039      4.196
REMARK  Name = 71693844
REMARK  6 active torsions:
REMARK  status: ('A' for Active; 'I' for Inactive)
REMARK    1  A    between atoms: O_1  and  C_8
REMARK    2  A    between atoms: O_2  and  C_10
REMARK    3  A    between atoms: N_4  and  C_7
REMARK    4  A    between atoms: C_6  and  C_11
REMARK    5  A    between atoms: C_14  and  C_18
REMARK    6  A    between atoms: C_15  and  C_19
REMARK                            x       y       z     vdW  Elec       q    Type
REMARK                         _______ _______ _______ _____ _____    ______ ____
ROOT
ATOM      6  C   UNL     1      -1.824   1.234  23.780  0.00  0.00    +0.044 C 
ATOM      7  C   UNL     1      -0.824   1.990  24.683  0.00  0.00    +0.112 C 
ATOM      8  C   UNL     1      -1.033   3.454  24.297  0.00  0.00    +0.164 C 
ATOM      9  C   UNL     1      -2.915   2.268  23.399  0.00  0.00    +0.044 C 
ATOM     10  C   UNL     1      -2.545   3.555  24.134  0.00  0.00    +0.145 C 
ENDROOT
BRANCH   6  11
ATOM     11  C   UNL     1      -2.360  -0.030  24.420  0.00  0.00    -0.042 A 
ATOM     12  C   UNL     1      -3.253  -0.842  23.722  0.00  0.00    +0.007 A 
ATOM     13  C   UNL     1      -1.959  -0.383  25.709  0.00  0.00    +0.004 A 
ATOM     15  C   UNL     1      -3.745  -2.006  24.311  0.00  0.00    -0.050 A 
ATOM     16  C   UNL     1      -2.452  -1.546  26.298  0.00  0.00    +0.001 A 
ATOM     17  C   UNL     1      -3.345  -2.359  25.599  0.00  0.00    +0.003 A 
ATOM     19  C   UNL     1      -4.702  -2.874  23.564  0.00  0.00    +0.044 C 
ENDBRANCH   6  11
BRANCH   7   4
ATOM      3  O   UNL     1       0.112   0.283  22.572  0.00  0.00    -0.270 OA
ATOM      4  N   UNL     1       0.534   1.564  24.459  0.00  0.00    -0.305 N 
ATOM     14  C   UNL     1       0.893   0.733  23.406  0.00  0.00    +0.246 C 
ATOM     24  H   UNL     1       1.234   1.886  25.119  0.00  0.00    +0.149 HD
BRANCH  14  18
ATOM      5  N   UNL     1       4.047  -1.319  23.574  0.00  0.00    -0.263 NA
ATOM     18  C   UNL     1       2.330   0.365  23.327  0.00  0.00    +0.055 A 
ATOM     20  C   UNL     1       3.289   1.297  22.948  0.00  0.00    +0.016 A 
ATOM     21  C   UNL     1       2.757  -0.919  23.627  0.00  0.00    +0.123 A 
ATOM     22  C   UNL     1       4.627   0.924  22.882  0.00  0.00    +0.020 A 
ATOM     23  C   UNL     1       4.950  -0.385  23.201  0.00  0.00    +0.111 A 
ENDBRANCH  14  18
ENDBRANCH   7   4
BRANCH   8   1
ATOM      1  O   UNL     1      -0.567   4.344  25.294  0.00  0.00    -0.387 OA
ATOM     25  H   UNL     1      -0.756   5.247  24.991  0.00  0.00    +0.210 HD
ENDBRANCH   8   1
BRANCH  10   2
ATOM      2  O   UNL     1      -3.197   3.561  25.400  0.00  0.00    -0.389 OA
ATOM     26  H   UNL     1      -3.846   2.837  25.399  0.00  0.00    +0.210 HD
ENDBRANCH  10   2
TORSDOF 5
ENDMDL
