MODEL 1
REMARK VINA RESULT:       0.3      0.000      0.000
REMARK  Name = 28960717
REMARK  13 active torsions:
REMARK  status: ('A' for Active; 'I' for Inactive)
REMARK    1  A    between atoms: O_6  and  C_26
REMARK    2  A    between atoms: O_8  and  C_32
REMARK    3  A    between atoms: O_8  and  C_33
REMARK    4  A    between atoms: N_9  and  C_19
REMARK    5  A    between atoms: N_10  and  C_13
REMARK    6  A    between atoms: C_14  and  C_17
REMARK    7  A    between atoms: C_18  and  C_20
REMARK    8  A    between atoms: C_18  and  C_22
REMARK    9  A    between atoms: C_18  and  C_23
REMARK   10  A    between atoms: C_18  and  C_24
REMARK   11  A    between atoms: C_20  and  C_21
REMARK   12  A    between atoms: C_22  and  C_26
REMARK   13  A    between atoms: C_25  and  C_27
REMARK                            x       y       z     vdW  Elec       q    Type
REMARK                         _______ _______ _______ _____ _____    ______ ____
ROOT
ATOM      9  N   UNL     1      -3.982  -0.226  25.922  0.00  0.00    -0.293 NA
ATOM     13  C   UNL     1      -5.126   1.201  24.477  0.00  0.00    +0.089 C 
ATOM     14  C   UNL     1      -3.782  -0.836  24.594  0.00  0.00    +0.147 C 
ATOM     15  C   UNL     1      -4.401   0.174  23.608  0.00  0.00    +0.052 C 
ATOM     16  C   UNL     1      -5.238   0.525  25.835  0.00  0.00    +0.107 C 
ATOM     19  C   UNL     1      -4.006  -1.203  27.005  0.00  0.00    +0.105 C 
ENDROOT
BRANCH  14  17
ATOM      4  O   UNL     1      -1.992  -2.455  24.209  0.00  0.00    -0.336 OA
ATOM     11  N   UNL     1      -1.339  -0.317  24.067  0.00  0.00    -0.190 NA
ATOM     12  N   UNL     1      -0.623  -2.485  23.915  0.00  0.00    -0.056 NA
ATOM     17  C   UNL     1      -2.333  -1.141  24.281  0.00  0.00    +0.245 A 
ATOM     25  C   UNL     1      -0.311  -1.187  23.846  0.00  0.00    +0.202 A 
BRANCH  25  27
ATOM     27  C   UNL     1       1.017  -0.727  23.559  0.00  0.00    +0.023 A 
ATOM     28  C   UNL     1       1.223   0.578  23.112  0.00  0.00    +0.015 A 
ATOM     29  C   UNL     1       2.103  -1.586  23.728  0.00  0.00    +0.015 A 
ATOM     30  C   UNL     1       2.514   1.023  22.831  0.00  0.00    +0.046 A 
ATOM     31  C   UNL     1       3.395  -1.140  23.449  0.00  0.00    +0.046 A 
ATOM     32  C   UNL     1       3.600   0.164  23.000  0.00  0.00    +0.130 A 
BRANCH  32   8
ATOM      8  O   UNL     1       4.862   0.599  22.727  0.00  0.00    -0.406 OA
BRANCH   8  33
ATOM      1  F   UNL     1       6.228   1.381  24.344  0.00  0.00    -0.133 F 
ATOM      2  F   UNL     1       5.493  -0.668  24.524  0.00  0.00    -0.133 F 
ATOM      3  F   UNL     1       7.004  -0.154  22.996  0.00  0.00    -0.133 F 
ATOM     33  C   UNL     1       5.900   0.271  23.645  0.00  0.00    +0.575 C 
ENDBRANCH   8  33
ENDBRANCH  32   8
ENDBRANCH  25  27
ENDBRANCH  14  17
BRANCH  13  10
ATOM      5  O   UNL     1      -3.173   2.180  22.604  0.00  0.00    -0.276 OA
ATOM     10  N   UNL     1      -4.385   2.437  24.566  0.00  0.00    -0.311 N 
ATOM     21  C   UNL     1      -3.461   2.825  23.610  0.00  0.00    +0.214 C 
ATOM     34  H   UNL     1      -4.557   3.035  25.366  0.00  0.00    +0.149 HD
BRANCH  21  20
ATOM     20  C   UNL     1      -2.812   4.165  23.915  0.00  0.00    +0.102 C 
BRANCH  20  18
ATOM     18  C   UNL     1      -1.700   4.120  24.994  0.00  0.00    -0.017 C 
ATOM     23  C   UNL     1      -0.928   5.456  25.027  0.00  0.00    +0.012 C 
ATOM     24  C   UNL     1      -2.380   3.947  26.370  0.00  0.00    +0.012 C 
BRANCH  18  22
ATOM     22  C   UNL     1      -0.679   2.983  24.758  0.00  0.00    +0.127 C 
BRANCH  22  26
ATOM      7  O   UNL     1       0.776   2.912  26.692  0.00  0.00    -0.251 OA
ATOM     26  C   UNL     1      -0.096   2.381  26.018  0.00  0.00    +0.305 C 
BRANCH  26   6
ATOM      6  O   UNL     1      -0.637   1.175  26.325  0.00  0.00    -0.481 OA
ATOM     35  H   UNL     1      -0.761   0.616  25.528  0.00  0.00    +0.295 HD
ENDBRANCH  26   6
ENDBRANCH  22  26
ENDBRANCH  18  22
ENDBRANCH  20  18
ENDBRANCH  21  20
ENDBRANCH  13  10
TORSDOF 10
ENDMDL
MODEL 2
REMARK VINA RESULT:       1.1      1.890      4.410
REMARK  Name = 28960717
REMARK  13 active torsions:
REMARK  status: ('A' for Active; 'I' for Inactive)
REMARK    1  A    between atoms: O_6  and  C_26
REMARK    2  A    between atoms: O_8  and  C_32
REMARK    3  A    between atoms: O_8  and  C_33
REMARK    4  A    between atoms: N_9  and  C_19
REMARK    5  A    between atoms: N_10  and  C_13
REMARK    6  A    between atoms: C_14  and  C_17
REMARK    7  A    between atoms: C_18  and  C_20
REMARK    8  A    between atoms: C_18  and  C_22
REMARK    9  A    between atoms: C_18  and  C_23
REMARK   10  A    between atoms: C_18  and  C_24
REMARK   11  A    between atoms: C_20  and  C_21
REMARK   12  A    between atoms: C_22  and  C_26
REMARK   13  A    between atoms: C_25  and  C_27
REMARK                            x       y       z     vdW  Elec       q    Type
REMARK                         _______ _______ _______ _____ _____    ______ ____
ROOT
ATOM      9  N   UNL     1      -4.346   4.023  24.219  0.00  0.00    -0.293 NA
ATOM     13  C   UNL     1      -5.271   2.576  25.795  0.00  0.00    +0.089 C 
ATOM     14  C   UNL     1      -3.351   4.006  25.309  0.00  0.00    +0.147 C 
ATOM     15  C   UNL     1      -3.872   2.939  26.291  0.00  0.00    +0.052 C 
ATOM     16  C   UNL     1      -5.633   3.707  24.845  0.00  0.00    +0.107 C 
ATOM     19  C   UNL     1      -4.387   5.289  23.498  0.00  0.00    +0.105 C 
ENDROOT
BRANCH  14  17
ATOM      4  O   UNL     1      -1.134   4.803  24.659  0.00  0.00    -0.336 OA
ATOM     11  N   UNL     1      -1.371   2.578  24.565  0.00  0.00    -0.190 NA
ATOM     12  N   UNL     1       0.098   4.298  24.225  0.00  0.00    -0.056 NA
ATOM     17  C   UNL     1      -1.942   3.723  24.836  0.00  0.00    +0.245 A 
ATOM     25  C   UNL     1      -0.121   2.980  24.195  0.00  0.00    +0.202 A 
BRANCH  25  27
ATOM     27  C   UNL     1       0.887   2.040  23.800  0.00  0.00    +0.023 A 
ATOM     28  C   UNL     1       0.596   0.676  23.766  0.00  0.00    +0.015 A 
ATOM     29  C   UNL     1       2.160   2.489  23.448  0.00  0.00    +0.015 A 
ATOM     30  C   UNL     1       1.578  -0.238  23.384  0.00  0.00    +0.046 A 
ATOM     31  C   UNL     1       3.142   1.575  23.065  0.00  0.00    +0.046 A 
ATOM     32  C   UNL     1       2.850   0.212  23.033  0.00  0.00    +0.130 A 
BRANCH  32   8
ATOM      8  O   UNL     1       3.809  -0.679  22.658  0.00  0.00    -0.406 OA
BRANCH   8  33
ATOM      1  F   UNL     1       5.205  -2.019  23.820  0.00  0.00    -0.133 F 
ATOM      2  F   UNL     1       6.075  -0.364  22.690  0.00  0.00    -0.133 F 
ATOM      3  F   UNL     1       4.916   0.027  24.530  0.00  0.00    -0.133 F 
ATOM     33  C   UNL     1       5.007  -0.741  23.424  0.00  0.00    +0.575 C 
ENDBRANCH   8  33
ENDBRANCH  32   8
ENDBRANCH  25  27
ENDBRANCH  14  17
BRANCH  13  10
ATOM      5  O   UNL     1      -3.061   0.753  25.524  0.00  0.00    -0.276 OA
ATOM     10  N   UNL     1      -5.280   1.300  25.119  0.00  0.00    -0.311 N 
ATOM     21  C   UNL     1      -4.160   0.489  25.041  0.00  0.00    +0.214 C 
ATOM     34  H   UNL     1      -6.146   0.999  24.688  0.00  0.00    +0.149 HD
BRANCH  21  20
ATOM     20  C   UNL     1      -4.411  -0.806  24.286  0.00  0.00    +0.102 C 
BRANCH  20  18
ATOM     18  C   UNL     1      -3.438  -1.962  24.634  0.00  0.00    -0.017 C 
ATOM     23  C   UNL     1      -3.436  -2.224  26.155  0.00  0.00    +0.012 C 
ATOM     24  C   UNL     1      -3.958  -3.244  23.947  0.00  0.00    +0.012 C 
BRANCH  18  22
ATOM     22  C   UNL     1      -1.983  -1.676  24.197  0.00  0.00    +0.127 C 
BRANCH  22  26
ATOM      7  O   UNL     1      -0.206  -2.801  25.396  0.00  0.00    -0.251 OA
ATOM     26  C   UNL     1      -0.948  -1.834  25.288  0.00  0.00    +0.305 C 
BRANCH  26   6
ATOM      6  O   UNL     1      -0.929  -0.788  26.152  0.00  0.00    -0.481 OA
ATOM     35  H   UNL     1      -0.186  -0.852  26.789  0.00  0.00    +0.295 HD
ENDBRANCH  26   6
ENDBRANCH  22  26
ENDBRANCH  18  22
ENDBRANCH  20  18
ENDBRANCH  21  20
ENDBRANCH  13  10
TORSDOF 10
ENDMDL
MODEL 3
REMARK VINA RESULT:       2.7      1.483      2.092
REMARK  Name = 28960717
REMARK  13 active torsions:
REMARK  status: ('A' for Active; 'I' for Inactive)
REMARK    1  A    between atoms: O_6  and  C_26
REMARK    2  A    between atoms: O_8  and  C_32
REMARK    3  A    between atoms: O_8  and  C_33
REMARK    4  A    between atoms: N_9  and  C_19
REMARK    5  A    between atoms: N_10  and  C_13
REMARK    6  A    between atoms: C_14  and  C_17
REMARK    7  A    between atoms: C_18  and  C_20
REMARK    8  A    between atoms: C_18  and  C_22
REMARK    9  A    between atoms: C_18  and  C_23
REMARK   10  A    between atoms: C_18  and  C_24
REMARK   11  A    between atoms: C_20  and  C_21
REMARK   12  A    between atoms: C_22  and  C_26
REMARK   13  A    between atoms: C_25  and  C_27
REMARK                            x       y       z     vdW  Elec       q    Type
REMARK                         _______ _______ _______ _____ _____    ______ ____
ROOT
ATOM      9  N   UNL     1      -2.517  -0.728  25.564  0.00  0.00    -0.293 NA
ATOM     13  C   UNL     1      -4.371   0.257  24.552  0.00  0.00    +0.089 C 
ATOM     14  C   UNL     1      -2.315  -0.993  24.127  0.00  0.00    +0.147 C 
ATOM     15  C   UNL     1      -3.451  -0.219  23.428  0.00  0.00    +0.052 C 
ATOM     16  C   UNL     1      -3.965  -0.590  25.748  0.00  0.00    +0.107 C 
ATOM     19  C   UNL     1      -1.956  -1.764  26.423  0.00  0.00    +0.105 C 
ENDROOT
BRANCH  14  17
ATOM      4  O   UNL     1      -0.909   0.166  22.498  0.00  0.00    -0.336 OA
ATOM     11  N   UNL     1       0.234  -0.872  24.121  0.00  0.00    -0.190 NA
ATOM     12  N   UNL     1       0.446   0.405  22.235  0.00  0.00    -0.056 NA
ATOM     17  C   UNL     1      -0.945  -0.593  23.626  0.00  0.00    +0.245 A 
ATOM     25  C   UNL     1       1.055  -0.238  23.235  0.00  0.00    +0.202 A 
BRANCH  25  27
ATOM     27  C   UNL     1       2.482  -0.267  23.376  0.00  0.00    +0.023 A 
ATOM     28  C   UNL     1       3.120  -1.437  23.788  0.00  0.00    +0.015 A 
ATOM     29  C   UNL     1       3.233   0.877  23.102  0.00  0.00    +0.015 A 
ATOM     30  C   UNL     1       4.508  -1.464  23.926  0.00  0.00    +0.046 A 
ATOM     31  C   UNL     1       4.621   0.850  23.240  0.00  0.00    +0.046 A 
ATOM     32  C   UNL     1       5.258  -0.320  23.652  0.00  0.00    +0.130 A 
BRANCH  32   8
ATOM      8  O   UNL     1       6.613  -0.345  23.787  0.00  0.00    -0.406 OA
BRANCH   8  33
ATOM      1  F   UNL     1       7.514  -2.043  22.604  0.00  0.00    -0.133 F 
ATOM      2  F   UNL     1       6.803  -0.292  21.508  0.00  0.00    -0.133 F 
ATOM      3  F   UNL     1       8.636  -0.173  22.736  0.00  0.00    -0.133 F 
ATOM     33  C   UNL     1       7.395  -0.697  22.651  0.00  0.00    +0.575 C 
ENDBRANCH   8  33
ENDBRANCH  32   8
ENDBRANCH  25  27
ENDBRANCH  14  17
BRANCH  13  10
ATOM      5  O   UNL     1      -3.177   2.210  22.808  0.00  0.00    -0.276 OA
ATOM     10  N   UNL     1      -4.196   1.664  24.821  0.00  0.00    -0.311 N 
ATOM     21  C   UNL     1      -3.607   2.530  23.914  0.00  0.00    +0.214 C 
ATOM     34  H   UNL     1      -4.520   2.019  25.713  0.00  0.00    +0.149 HD
BRANCH  21  20
ATOM     20  C   UNL     1      -3.537   3.964  24.416  0.00  0.00    +0.102 C 
BRANCH  20  18
ATOM     18  C   UNL     1      -2.496   4.210  25.539  0.00  0.00    -0.017 C 
ATOM     23  C   UNL     1      -1.524   5.338  25.133  0.00  0.00    +0.012 C 
ATOM     24  C   UNL     1      -3.257   4.687  26.795  0.00  0.00    +0.012 C 
BRANCH  18  22
ATOM     22  C   UNL     1      -1.658   2.953  25.869  0.00  0.00    +0.127 C 
BRANCH  22  26
ATOM      7  O   UNL     1      -0.252   3.242  23.919  0.00  0.00    -0.251 OA
ATOM     26  C   UNL     1      -0.395   2.798  25.051  0.00  0.00    +0.305 C 
BRANCH  26   6
ATOM      6  O   UNL     1       0.572   2.104  25.701  0.00  0.00    -0.481 OA
ATOM     35  H   UNL     1       0.209   1.582  26.448  0.00  0.00    +0.295 HD
ENDBRANCH  26   6
ENDBRANCH  22  26
ENDBRANCH  18  22
ENDBRANCH  20  18
ENDBRANCH  21  20
ENDBRANCH  13  10
TORSDOF 10
ENDMDL
MODEL 4
REMARK VINA RESULT:       3.1      1.611      2.308
REMARK  Name = 28960717
REMARK  13 active torsions:
REMARK  status: ('A' for Active; 'I' for Inactive)
REMARK    1  A    between atoms: O_6  and  C_26
REMARK    2  A    between atoms: O_8  and  C_32
REMARK    3  A    between atoms: O_8  and  C_33
REMARK    4  A    between atoms: N_9  and  C_19
REMARK    5  A    between atoms: N_10  and  C_13
REMARK    6  A    between atoms: C_14  and  C_17
REMARK    7  A    between atoms: C_18  and  C_20
REMARK    8  A    between atoms: C_18  and  C_22
REMARK    9  A    between atoms: C_18  and  C_23
REMARK   10  A    between atoms: C_18  and  C_24
REMARK   11  A    between atoms: C_20  and  C_21
REMARK   12  A    between atoms: C_22  and  C_26
REMARK   13  A    between atoms: C_25  and  C_27
REMARK                            x       y       z     vdW  Elec       q    Type
REMARK                         _______ _______ _______ _____ _____    ______ ____
ROOT
ATOM      9  N   UNL     1      -5.491   1.186  26.383  0.00  0.00    -0.293 NA
ATOM     13  C   UNL     1      -6.033   2.998  25.022  0.00  0.00    +0.089 C 
ATOM     14  C   UNL     1      -5.459   0.623  25.019  0.00  0.00    +0.147 C 
ATOM     15  C   UNL     1      -5.665   1.839  24.095  0.00  0.00    +0.052 C 
ATOM     16  C   UNL     1      -6.417   2.320  26.329  0.00  0.00    +0.107 C 
ATOM     19  C   UNL     1      -5.882   0.212  27.396  0.00  0.00    +0.105 C 
ENDROOT
BRANCH  14  17
ATOM      4  O   UNL     1      -4.289  -1.489  24.638  0.00  0.00    -0.336 OA
ATOM     11  N   UNL     1      -2.979   0.322  24.494  0.00  0.00    -0.190 NA
ATOM     12  N   UNL     1      -3.004  -1.960  24.345  0.00  0.00    -0.056 NA
ATOM     17  C   UNL     1      -4.186  -0.135  24.709  0.00  0.00    +0.245 A 
ATOM     25  C   UNL     1      -2.288  -0.833  24.275  0.00  0.00    +0.202 A 
BRANCH  25  27
ATOM     27  C   UNL     1      -0.883  -0.829  23.989  0.00  0.00    +0.023 A 
ATOM     28  C   UNL     1      -0.026  -1.681  24.685  0.00  0.00    +0.015 A 
ATOM     29  C   UNL     1      -0.373   0.028  23.014  0.00  0.00    +0.015 A 
ATOM     30  C   UNL     1       1.341  -1.675  24.408  0.00  0.00    +0.046 A 
ATOM     31  C   UNL     1       0.994   0.033  22.735  0.00  0.00    +0.046 A 
ATOM     32  C   UNL     1       1.850  -0.818  23.432  0.00  0.00    +0.130 A 
BRANCH  32   8
ATOM      8  O   UNL     1       3.185  -0.812  23.160  0.00  0.00    -0.406 OA
BRANCH   8  33
ATOM      1  F   UNL     1       3.208   1.443  23.254  0.00  0.00    -0.133 F 
ATOM      2  F   UNL     1       5.090   0.413  22.843  0.00  0.00    -0.133 F 
ATOM      3  F   UNL     1       3.502   0.493  21.309  0.00  0.00    -0.133 F 
ATOM     33  C   UNL     1       3.758   0.377  22.629  0.00  0.00    +0.575 C 
ENDBRANCH   8  33
ENDBRANCH  32   8
ENDBRANCH  25  27
ENDBRANCH  14  17
BRANCH  13  10
ATOM      5  O   UNL     1      -3.705   3.234  23.347  0.00  0.00    -0.276 OA
ATOM     10  N   UNL     1      -4.924   3.903  25.206  0.00  0.00    -0.311 N 
ATOM     21  C   UNL     1      -3.842   3.944  24.341  0.00  0.00    +0.214 C 
ATOM     34  H   UNL     1      -4.950   4.527  26.004  0.00  0.00    +0.149 HD
BRANCH  21  20
ATOM     20  C   UNL     1      -2.802   4.980  24.735  0.00  0.00    +0.102 C 
BRANCH  20  18
ATOM     18  C   UNL     1      -1.388   4.408  25.016  0.00  0.00    -0.017 C 
ATOM     23  C   UNL     1      -0.977   3.420  23.904  0.00  0.00    +0.012 C 
ATOM     24  C   UNL     1      -0.386   5.582  24.982  0.00  0.00    +0.012 C 
BRANCH  18  22
ATOM     22  C   UNL     1      -1.296   3.669  26.371  0.00  0.00    +0.127 C 
BRANCH  22  26
ATOM      7  O   UNL     1      -0.679   1.333  26.215  0.00  0.00    -0.251 OA
ATOM     26  C   UNL     1      -0.341   2.496  26.392  0.00  0.00    +0.305 C 
BRANCH  26   6
ATOM      6  O   UNL     1       0.941   2.865  26.636  0.00  0.00    -0.481 OA
ATOM     35  H   UNL     1       1.565   2.116  26.520  0.00  0.00    +0.295 HD
ENDBRANCH  26   6
ENDBRANCH  22  26
ENDBRANCH  18  22
ENDBRANCH  20  18
ENDBRANCH  21  20
ENDBRANCH  13  10
TORSDOF 10
ENDMDL
