MODEL 1
REMARK VINA RESULT:      -4.0      0.000      0.000
REMARK  Name = 28962225
REMARK  12 active torsions:
REMARK  status: ('A' for Active; 'I' for Inactive)
REMARK    1  A    between atoms: O_3  and  C_9
REMARK    2  A    between atoms: O_4  and  C_12
REMARK    3  A    between atoms: N_5  and  C_7
REMARK    4  A    between atoms: N_5  and  C_13
REMARK    5  A    between atoms: N_5  and  C_14
REMARK    6  A    between atoms: N_6  and  C_11
REMARK    7  A    between atoms: N_6  and  C_16
REMARK    8  A    between atoms: C_8  and  C_11
REMARK    9  A    between atoms: C_10  and  C_12
REMARK   10  A    between atoms: C_13  and  C_15
REMARK   11  A    between atoms: C_15  and  C_17
REMARK   12  A    between atoms: C_16  and  C_18
REMARK                            x       y       z     vdW  Elec       q    Type
REMARK                         _______ _______ _______ _____ _____    ______ ____
ROOT
ATOM      2  O   UNL     1      -3.166   3.645  23.809  0.00  0.00    -0.366 OA
ATOM      7  C   UNL     1      -1.031   2.599  23.920  0.00  0.00    +0.118 C 
ATOM      8  C   UNL     1      -2.412   2.544  23.256  0.00  0.00    +0.152 C 
ATOM      9  C   UNL     1      -1.314   3.298  25.241  0.00  0.00    +0.165 C 
ATOM     10  C   UNL     1      -2.364   4.311  24.804  0.00  0.00    +0.174 C 
ENDROOT
BRANCH   9   3
ATOM      3  O   UNL     1      -1.859   2.400  26.198  0.00  0.00    -0.388 OA
ATOM     29  H   UNL     1      -2.475   1.810  25.732  0.00  0.00    +0.210 HD
ENDBRANCH   9   3
BRANCH   7   5
ATOM      5  N   UNL     1      -0.319   1.338  24.026  0.00  0.00    -0.297 NA
ATOM     14  C   UNL     1       0.454   1.278  25.271  0.00  0.00    +0.105 C 
BRANCH   5  13
ATOM     13  C   UNL     1       0.567   1.141  22.874  0.00  0.00    +0.089 C 
BRANCH  13  15
ATOM     15  C   UNL     1       1.174  -0.263  22.886  0.00  0.00    +0.050 C 
BRANCH  15  17
ATOM     17  C   UNL     1       2.667  -0.218  23.099  0.00  0.00    -0.046 A 
ATOM     19  C   UNL     1       3.388   0.920  22.739  0.00  0.00    +0.003 A 
ATOM     20  C   UNL     1       3.325  -1.315  23.655  0.00  0.00    +0.003 A 
ATOM     23  C   UNL     1       4.769   0.962  22.936  0.00  0.00    +0.000 A 
ATOM     24  C   UNL     1       4.705  -1.273  23.851  0.00  0.00    +0.000 A 
ATOM     25  C   UNL     1       5.427  -0.135  23.492  0.00  0.00    +0.000 A 
ENDBRANCH  15  17
ENDBRANCH  13  15
ENDBRANCH   5  13
ENDBRANCH   7   5
BRANCH   8  11
ATOM     11  C   UNL     1      -3.230   1.277  23.483  0.00  0.00    +0.114 C 
BRANCH  11   6
ATOM      6  N   UNL     1      -4.398   1.551  24.309  0.00  0.00    -0.310 NA
ATOM     30  H   UNL     1      -5.218   1.652  23.711  0.00  0.00    +0.122 HD
BRANCH   6  16
ATOM     16  C   UNL     1      -4.621   0.479  25.269  0.00  0.00    +0.116 C 
BRANCH  16  18
ATOM      1 CL   UNL     1      -0.136  -2.150  25.633  0.00  0.00    -0.084 Cl
ATOM     18  C   UNL     1      -3.817  -0.750  24.935  0.00  0.00    -0.032 A 
ATOM     21  C   UNL     1      -2.502  -0.866  25.386  0.00  0.00    +0.025 A 
ATOM     22  C   UNL     1      -4.387  -1.770  24.174  0.00  0.00    +0.005 A 
ATOM     26  C   UNL     1      -1.758  -2.005  25.077  0.00  0.00    +0.041 A 
ATOM     27  C   UNL     1      -3.642  -2.908  23.865  0.00  0.00    +0.002 A 
ATOM     28  C   UNL     1      -2.328  -3.026  24.316  0.00  0.00    +0.020 A 
ENDBRANCH  16  18
ENDBRANCH   6  16
ENDBRANCH  11   6
ENDBRANCH   8  11
BRANCH  10  12
ATOM     12  C   UNL     1      -3.267   4.834  25.906  0.00  0.00    +0.190 C 
BRANCH  12   4
ATOM      4  O   UNL     1      -4.304   3.893  26.136  0.00  0.00    -0.392 OA
ATOM     31  H   UNL     1      -4.467   3.874  27.095  0.00  0.00    +0.210 HD
ENDBRANCH  12   4
ENDBRANCH  10  12
TORSDOF 11
ENDMDL
MODEL 2
REMARK VINA RESULT:      -3.9      2.701      6.057
REMARK  Name = 28962225
REMARK  12 active torsions:
REMARK  status: ('A' for Active; 'I' for Inactive)
REMARK    1  A    between atoms: O_3  and  C_9
REMARK    2  A    between atoms: O_4  and  C_12
REMARK    3  A    between atoms: N_5  and  C_7
REMARK    4  A    between atoms: N_5  and  C_13
REMARK    5  A    between atoms: N_5  and  C_14
REMARK    6  A    between atoms: N_6  and  C_11
REMARK    7  A    between atoms: N_6  and  C_16
REMARK    8  A    between atoms: C_8  and  C_11
REMARK    9  A    between atoms: C_10  and  C_12
REMARK   10  A    between atoms: C_13  and  C_15
REMARK   11  A    between atoms: C_15  and  C_17
REMARK   12  A    between atoms: C_16  and  C_18
REMARK                            x       y       z     vdW  Elec       q    Type
REMARK                         _______ _______ _______ _____ _____    ______ ____
ROOT
ATOM      2  O   UNL     1       0.513  -0.148  22.227  0.00  0.00    -0.366 OA
ATOM      7  C   UNL     1      -0.004   0.614  24.422  0.00  0.00    +0.118 C 
ATOM      8  C   UNL     1      -0.586   0.334  23.031  0.00  0.00    +0.152 C 
ATOM      9  C   UNL     1       1.463   0.892  24.130  0.00  0.00    +0.165 C 
ATOM     10  C   UNL     1       1.722  -0.110  23.011  0.00  0.00    +0.174 C 
ENDROOT
BRANCH   9   3
ATOM      3  O   UNL     1       1.658   2.219  23.660  0.00  0.00    -0.388 OA
ATOM     29  H   UNL     1       2.615   2.391  23.650  0.00  0.00    +0.210 HD
ENDBRANCH   9   3
BRANCH   7   5
ATOM      5  N   UNL     1      -0.682   1.629  25.209  0.00  0.00    -0.297 NA
ATOM     14  C   UNL     1       0.278   2.394  26.012  0.00  0.00    +0.105 C 
BRANCH   5  13
ATOM     13  C   UNL     1      -1.695   1.023  26.079  0.00  0.00    +0.089 C 
BRANCH  13  15
ATOM     15  C   UNL     1      -1.516  -0.494  26.151  0.00  0.00    +0.050 C 
BRANCH  15  17
ATOM     17  C   UNL     1      -2.535  -1.212  25.301  0.00  0.00    -0.046 A 
ATOM     19  C   UNL     1      -2.298  -2.522  24.887  0.00  0.00    +0.003 A 
ATOM     20  C   UNL     1      -3.713  -0.564  24.929  0.00  0.00    +0.003 A 
ATOM     23  C   UNL     1      -3.240  -3.186  24.100  0.00  0.00    +0.000 A 
ATOM     24  C   UNL     1      -4.654  -1.228  24.142  0.00  0.00    +0.000 A 
ATOM     25  C   UNL     1      -4.418  -2.539  23.728  0.00  0.00    +0.000 A 
ENDBRANCH  15  17
ENDBRANCH  13  15
ENDBRANCH   5  13
ENDBRANCH   7   5
BRANCH   8  11
ATOM     11  C   UNL     1      -1.199   1.520  22.295  0.00  0.00    +0.114 C 
BRANCH  11   6
ATOM      6  N   UNL     1      -2.652   1.494  22.381  0.00  0.00    -0.310 NA
ATOM     30  H   UNL     1      -2.933   0.941  23.192  0.00  0.00    +0.122 HD
BRANCH   6  16
ATOM     16  C   UNL     1      -3.192   2.842  22.498  0.00  0.00    +0.116 C 
BRANCH  16  18
ATOM      1 CL   UNL     1      -6.491   2.073  26.459  0.00  0.00    -0.084 Cl
ATOM     18  C   UNL     1      -3.605   3.160  23.911  0.00  0.00    -0.032 A 
ATOM     21  C   UNL     1      -4.726   2.542  24.465  0.00  0.00    +0.025 A 
ATOM     22  C   UNL     1      -2.867   4.072  24.665  0.00  0.00    +0.005 A 
ATOM     26  C   UNL     1      -5.109   2.835  25.774  0.00  0.00    +0.041 A 
ATOM     27  C   UNL     1      -3.250   4.366  25.973  0.00  0.00    +0.002 A 
ATOM     28  C   UNL     1      -4.370   3.748  26.528  0.00  0.00    +0.020 A 
ENDBRANCH  16  18
ENDBRANCH   6  16
ENDBRANCH  11   6
ENDBRANCH   8  11
BRANCH  10  12
ATOM     12  C   UNL     1       2.897   0.210  22.106  0.00  0.00    +0.190 C 
BRANCH  12   4
ATOM      4  O   UNL     1       3.945   0.757  22.890  0.00  0.00    -0.392 OA
ATOM     31  H   UNL     1       4.700   0.146  22.825  0.00  0.00    +0.210 HD
ENDBRANCH  12   4
ENDBRANCH  10  12
TORSDOF 11
ENDMDL
MODEL 3
REMARK VINA RESULT:      -3.8      1.494      2.000
REMARK  Name = 28962225
REMARK  12 active torsions:
REMARK  status: ('A' for Active; 'I' for Inactive)
REMARK    1  A    between atoms: O_3  and  C_9
REMARK    2  A    between atoms: O_4  and  C_12
REMARK    3  A    between atoms: N_5  and  C_7
REMARK    4  A    between atoms: N_5  and  C_13
REMARK    5  A    between atoms: N_5  and  C_14
REMARK    6  A    between atoms: N_6  and  C_11
REMARK    7  A    between atoms: N_6  and  C_16
REMARK    8  A    between atoms: C_8  and  C_11
REMARK    9  A    between atoms: C_10  and  C_12
REMARK   10  A    between atoms: C_13  and  C_15
REMARK   11  A    between atoms: C_15  and  C_17
REMARK   12  A    between atoms: C_16  and  C_18
REMARK                            x       y       z     vdW  Elec       q    Type
REMARK                         _______ _______ _______ _____ _____    ______ ____
ROOT
ATOM      2  O   UNL     1      -1.666   3.365  23.375  0.00  0.00    -0.366 OA
ATOM      7  C   UNL     1      -0.448   1.355  23.755  0.00  0.00    +0.118 C 
ATOM      8  C   UNL     1      -1.618   1.975  22.981  0.00  0.00    +0.152 C 
ATOM      9  C   UNL     1      -0.341   2.244  24.985  0.00  0.00    +0.165 C 
ATOM     10  C   UNL     1      -0.658   3.605  24.376  0.00  0.00    +0.174 C 
ENDROOT
BRANCH   9   3
ATOM      3  O   UNL     1      -1.313   1.900  25.962  0.00  0.00    -0.388 OA
ATOM     29  H   UNL     1      -0.911   1.247  26.560  0.00  0.00    +0.210 HD
ENDBRANCH   9   3
BRANCH   7   5
ATOM      5  N   UNL     1      -0.541  -0.069  24.026  0.00  0.00    -0.297 NA
ATOM     14  C   UNL     1      -0.473  -0.331  25.467  0.00  0.00    +0.105 C 
BRANCH   5  13
ATOM     13  C   UNL     1       0.523  -0.802  23.332  0.00  0.00    +0.089 C 
BRANCH  13  15
ATOM     15  C   UNL     1       1.449   0.158  22.583  0.00  0.00    +0.050 C 
BRANCH  15  17
ATOM     17  C   UNL     1       2.887  -0.024  22.999  0.00  0.00    -0.046 A 
ATOM     19  C   UNL     1       3.313  -1.244  23.522  0.00  0.00    +0.003 A 
ATOM     20  C   UNL     1       3.791   1.029  22.861  0.00  0.00    +0.003 A 
ATOM     23  C   UNL     1       4.643  -1.413  23.908  0.00  0.00    +0.000 A 
ATOM     24  C   UNL     1       5.121   0.861  23.247  0.00  0.00    +0.000 A 
ATOM     25  C   UNL     1       5.547  -0.360  23.770  0.00  0.00    +0.000 A 
ENDBRANCH  15  17
ENDBRANCH  13  15
ENDBRANCH   5  13
ENDBRANCH   7   5
BRANCH   8  11
ATOM     11  C   UNL     1      -2.999   1.385  23.242  0.00  0.00    +0.114 C 
BRANCH  11   6
ATOM      6  N   UNL     1      -3.702   2.136  24.272  0.00  0.00    -0.310 NA
ATOM     30  H   UNL     1      -4.155   2.946  23.850  0.00  0.00    +0.122 HD
BRANCH   6  16
ATOM     16  C   UNL     1      -4.700   1.306  24.933  0.00  0.00    +0.116 C 
BRANCH  16  18
ATOM      1 CL   UNL     1      -4.423  -3.413  22.739  0.00  0.00    -0.084 Cl
ATOM     18  C   UNL     1      -4.263  -0.133  25.022  0.00  0.00    -0.032 A 
ATOM     21  C   UNL     1      -4.517  -1.005  23.963  0.00  0.00    +0.025 A 
ATOM     22  C   UNL     1      -3.605  -0.592  26.163  0.00  0.00    +0.005 A 
ATOM     26  C   UNL     1      -4.112  -2.337  24.045  0.00  0.00    +0.041 A 
ATOM     27  C   UNL     1      -3.201  -1.925  26.244  0.00  0.00    +0.002 A 
ATOM     28  C   UNL     1      -3.454  -2.797  25.186  0.00  0.00    +0.020 A 
ENDBRANCH  16  18
ENDBRANCH   6  16
ENDBRANCH  11   6
ENDBRANCH   8  11
BRANCH  10  12
ATOM     12  C   UNL     1      -1.160   4.655  25.350  0.00  0.00    +0.190 C 
BRANCH  12   4
ATOM      4  O   UNL     1      -2.511   4.370  25.677  0.00  0.00    -0.392 OA
ATOM     31  H   UNL     1      -3.053   5.094  25.316  0.00  0.00    +0.210 HD
ENDBRANCH  12   4
ENDBRANCH  10  12
TORSDOF 11
ENDMDL
MODEL 4
REMARK VINA RESULT:      -3.6      1.884      6.202
REMARK  Name = 28962225
REMARK  12 active torsions:
REMARK  status: ('A' for Active; 'I' for Inactive)
REMARK    1  A    between atoms: O_3  and  C_9
REMARK    2  A    between atoms: O_4  and  C_12
REMARK    3  A    between atoms: N_5  and  C_7
REMARK    4  A    between atoms: N_5  and  C_13
REMARK    5  A    between atoms: N_5  and  C_14
REMARK    6  A    between atoms: N_6  and  C_11
REMARK    7  A    between atoms: N_6  and  C_16
REMARK    8  A    between atoms: C_8  and  C_11
REMARK    9  A    between atoms: C_10  and  C_12
REMARK   10  A    between atoms: C_13  and  C_15
REMARK   11  A    between atoms: C_15  and  C_17
REMARK   12  A    between atoms: C_16  and  C_18
REMARK                            x       y       z     vdW  Elec       q    Type
REMARK                         _______ _______ _______ _____ _____    ______ ____
ROOT
ATOM      2  O   UNL     1      -0.236   1.169  26.108  0.00  0.00    -0.366 OA
ATOM      7  C   UNL     1      -2.146   2.312  25.265  0.00  0.00    +0.118 C 
ATOM      8  C   UNL     1      -1.266   1.068  25.099  0.00  0.00    +0.152 C 
ATOM      9  C   UNL     1      -1.198   3.321  25.896  0.00  0.00    +0.165 C 
ATOM     10  C   UNL     1      -0.394   2.413  26.818  0.00  0.00    +0.174 C 
ENDROOT
BRANCH   9   3
ATOM      3  O   UNL     1      -0.350   3.917  24.923  0.00  0.00    -0.388 OA
ATOM     29  H   UNL     1      -0.902   4.164  24.162  0.00  0.00    +0.210 HD
ENDBRANCH   9   3
BRANCH   7   5
ATOM      5  N   UNL     1      -2.838   2.773  24.074  0.00  0.00    -0.297 NA
ATOM     14  C   UNL     1      -3.632   3.971  24.363  0.00  0.00    +0.105 C 
BRANCH   5  13
ATOM     13  C   UNL     1      -3.700   1.718  23.532  0.00  0.00    +0.089 C 
BRANCH  13  15
ATOM     15  C   UNL     1      -4.463   1.007  24.650  0.00  0.00    +0.050 C 
BRANCH  15  17
ATOM     17  C   UNL     1      -4.116  -0.460  24.710  0.00  0.00    -0.046 A 
ATOM     19  C   UNL     1      -4.378  -1.284  23.615  0.00  0.00    +0.003 A 
ATOM     20  C   UNL     1      -3.535  -0.992  25.860  0.00  0.00    +0.003 A 
ATOM     23  C   UNL     1      -4.057  -2.641  23.670  0.00  0.00    +0.000 A 
ATOM     24  C   UNL     1      -3.215  -2.349  25.916  0.00  0.00    +0.000 A 
ATOM     25  C   UNL     1      -3.476  -3.173  24.821  0.00  0.00    +0.000 A 
ENDBRANCH  15  17
ENDBRANCH  13  15
ENDBRANCH   5  13
ENDBRANCH   7   5
BRANCH   8  11
ATOM     11  C   UNL     1      -0.566   0.900  23.755  0.00  0.00    +0.114 C 
BRANCH  11   6
ATOM      6  N   UNL     1       0.282  -0.284  23.753  0.00  0.00    -0.310 NA
ATOM     30  H   UNL     1      -0.302  -1.119  23.808  0.00  0.00    +0.122 HD
BRANCH   6  16
ATOM     16  C   UNL     1       1.100  -0.338  22.548  0.00  0.00    +0.116 C 
BRANCH  16  18
ATOM      1 CL   UNL     1       5.705  -2.011  24.324  0.00  0.00    -0.084 Cl
ATOM     18  C   UNL     1       2.549  -0.052  22.841  0.00  0.00    -0.032 A 
ATOM     21  C   UNL     1       3.360  -1.048  23.385  0.00  0.00    +0.025 A 
ATOM     22  C   UNL     1       3.079   1.209  22.569  0.00  0.00    +0.005 A 
ATOM     26  C   UNL     1       4.703  -0.783  23.655  0.00  0.00    +0.041 A 
ATOM     27  C   UNL     1       4.422   1.474  22.840  0.00  0.00    +0.002 A 
ATOM     28  C   UNL     1       5.234   0.479  23.383  0.00  0.00    +0.020 A 
ENDBRANCH  16  18
ENDBRANCH   6  16
ENDBRANCH  11   6
ENDBRANCH   8  11
BRANCH  10  12
ATOM     12  C   UNL     1       0.973   2.936  27.221  0.00  0.00    +0.190 C 
BRANCH  12   4
ATOM      4  O   UNL     1       1.279   2.464  28.523  0.00  0.00    -0.392 OA
ATOM     31  H   UNL     1       1.556   3.235  29.049  0.00  0.00    +0.210 HD
ENDBRANCH  12   4
ENDBRANCH  10  12
TORSDOF 11
ENDMDL
MODEL 5
REMARK VINA RESULT:      -3.1      2.482      4.323
REMARK  Name = 28962225
REMARK  12 active torsions:
REMARK  status: ('A' for Active; 'I' for Inactive)
REMARK    1  A    between atoms: O_3  and  C_9
REMARK    2  A    between atoms: O_4  and  C_12
REMARK    3  A    between atoms: N_5  and  C_7
REMARK    4  A    between atoms: N_5  and  C_13
REMARK    5  A    between atoms: N_5  and  C_14
REMARK    6  A    between atoms: N_6  and  C_11
REMARK    7  A    between atoms: N_6  and  C_16
REMARK    8  A    between atoms: C_8  and  C_11
REMARK    9  A    between atoms: C_10  and  C_12
REMARK   10  A    between atoms: C_13  and  C_15
REMARK   11  A    between atoms: C_15  and  C_17
REMARK   12  A    between atoms: C_16  and  C_18
REMARK                            x       y       z     vdW  Elec       q    Type
REMARK                         _______ _______ _______ _____ _____    ______ ____
ROOT
ATOM      2  O   UNL     1      -3.297  -0.270  24.789  0.00  0.00    -0.366 OA
ATOM      7  C   UNL     1      -0.975   0.103  25.156  0.00  0.00    +0.118 C 
ATOM      8  C   UNL     1      -2.223   0.631  24.438  0.00  0.00    +0.152 C 
ATOM      9  C   UNL     1      -1.274  -1.379  25.319  0.00  0.00    +0.165 C 
ATOM     10  C   UNL     1      -2.770  -1.334  25.604  0.00  0.00    +0.174 C 
ENDROOT
BRANCH   9   3
ATOM      3  O   UNL     1      -1.020  -2.096  24.118  0.00  0.00    -0.388 OA
ATOM     29  H   UNL     1      -0.188  -1.761  23.745  0.00  0.00    +0.210 HD
ENDBRANCH   9   3
BRANCH   7   5
ATOM      5  N   UNL     1       0.302   0.413  24.536  0.00  0.00    -0.297 NA
ATOM     14  C   UNL     1       0.399   1.844  24.230  0.00  0.00    +0.105 C 
BRANCH   5  13
ATOM     13  C   UNL     1       0.495  -0.376  23.316  0.00  0.00    +0.089 C 
BRANCH  13  15
ATOM     15  C   UNL     1       1.557   0.258  22.417  0.00  0.00    +0.050 C 
BRANCH  15  17
ATOM     17  C   UNL     1       2.949  -0.005  22.936  0.00  0.00    -0.046 A 
ATOM     19  C   UNL     1       3.910   1.005  22.898  0.00  0.00    +0.003 A 
ATOM     20  C   UNL     1       3.275  -1.259  23.452  0.00  0.00    +0.003 A 
ATOM     23  C   UNL     1       5.198   0.761  23.378  0.00  0.00    +0.000 A 
ATOM     24  C   UNL     1       4.562  -1.503  23.930  0.00  0.00    +0.000 A 
ATOM     25  C   UNL     1       5.523  -0.493  23.894  0.00  0.00    +0.000 A 
ENDBRANCH  15  17
ENDBRANCH  13  15
ENDBRANCH   5  13
ENDBRANCH   7   5
BRANCH   8  11
ATOM     11  C   UNL     1      -2.162   0.690  22.916  0.00  0.00    +0.114 C 
BRANCH  11   6
ATOM      6  N   UNL     1      -2.032   2.064  22.451  0.00  0.00    -0.310 NA
ATOM     30  H   UNL     1      -1.685   2.065  21.492  0.00  0.00    +0.122 HD
BRANCH   6  16
ATOM     16  C   UNL     1      -3.311   2.759  22.511  0.00  0.00    +0.116 C 
BRANCH  16  18
ATOM      1 CL   UNL     1      -6.588   2.164  26.519  0.00  0.00    -0.084 Cl
ATOM     18  C   UNL     1      -3.694   3.108  23.925  0.00  0.00    -0.032 A 
ATOM     21  C   UNL     1      -4.831   2.541  24.500  0.00  0.00    +0.025 A 
ATOM     22  C   UNL     1      -2.910   3.998  24.660  0.00  0.00    +0.005 A 
ATOM     26  C   UNL     1      -5.185   2.863  25.809  0.00  0.00    +0.041 A 
ATOM     27  C   UNL     1      -3.265   4.321  25.969  0.00  0.00    +0.002 A 
ATOM     28  C   UNL     1      -4.402   3.754  26.545  0.00  0.00    +0.020 A 
ENDBRANCH  16  18
ENDBRANCH   6  16
ENDBRANCH  11   6
ENDBRANCH   8  11
BRANCH  10  12
ATOM     12  C   UNL     1      -3.530  -2.614  25.310  0.00  0.00    +0.190 C 
BRANCH  12   4
ATOM      4  O   UNL     1      -3.944  -2.600  23.953  0.00  0.00    -0.392 OA
ATOM     31  H   UNL     1      -4.469  -3.406  23.804  0.00  0.00    +0.210 HD
ENDBRANCH  12   4
ENDBRANCH  10  12
TORSDOF 11
ENDMDL
MODEL 6
REMARK VINA RESULT:      -3.0      1.270      2.042
REMARK  Name = 28962225
REMARK  12 active torsions:
REMARK  status: ('A' for Active; 'I' for Inactive)
REMARK    1  A    between atoms: O_3  and  C_9
REMARK    2  A    between atoms: O_4  and  C_12
REMARK    3  A    between atoms: N_5  and  C_7
REMARK    4  A    between atoms: N_5  and  C_13
REMARK    5  A    between atoms: N_5  and  C_14
REMARK    6  A    between atoms: N_6  and  C_11
REMARK    7  A    between atoms: N_6  and  C_16
REMARK    8  A    between atoms: C_8  and  C_11
REMARK    9  A    between atoms: C_10  and  C_12
REMARK   10  A    between atoms: C_13  and  C_15
REMARK   11  A    between atoms: C_15  and  C_17
REMARK   12  A    between atoms: C_16  and  C_18
REMARK                            x       y       z     vdW  Elec       q    Type
REMARK                         _______ _______ _______ _____ _____    ______ ____
ROOT
ATOM      2  O   UNL     1      -4.770   3.547  23.890  0.00  0.00    -0.366 OA
ATOM      7  C   UNL     1      -2.523   3.933  24.572  0.00  0.00    +0.118 C 
ATOM      8  C   UNL     1      -3.419   3.092  23.655  0.00  0.00    +0.152 C 
ATOM      9  C   UNL     1      -3.462   4.329  25.701  0.00  0.00    +0.165 C 
ATOM     10  C   UNL     1      -4.755   4.548  24.926  0.00  0.00    +0.174 C 
ENDROOT
BRANCH   9   3
ATOM      3  O   UNL     1      -3.620   3.275  26.641  0.00  0.00    -0.388 OA
ATOM     29  H   UNL     1      -3.759   3.677  27.515  0.00  0.00    +0.210 HD
ENDBRANCH   9   3
BRANCH   7   5
ATOM      5  N   UNL     1      -1.275   3.318  24.990  0.00  0.00    -0.297 NA
ATOM     14  C   UNL     1      -0.198   4.311  25.049  0.00  0.00    +0.105 C 
BRANCH   5  13
ATOM     13  C   UNL     1      -0.903   2.226  24.085  0.00  0.00    +0.089 C 
BRANCH  13  15
ATOM     15  C   UNL     1       0.218   1.376  24.686  0.00  0.00    +0.050 C 
BRANCH  15  17
ATOM     17  C   UNL     1       1.152   0.860  23.619  0.00  0.00    -0.046 A 
ATOM     19  C   UNL     1       0.696  -0.068  22.683  0.00  0.00    +0.003 A 
ATOM     20  C   UNL     1       2.471   1.309  23.571  0.00  0.00    +0.003 A 
ATOM     23  C   UNL     1       1.560  -0.546  21.697  0.00  0.00    +0.000 A 
ATOM     24  C   UNL     1       3.335   0.830  22.586  0.00  0.00    +0.000 A 
ATOM     25  C   UNL     1       2.878  -0.097  21.648  0.00  0.00    +0.000 A 
ENDBRANCH  15  17
ENDBRANCH  13  15
ENDBRANCH   5  13
ENDBRANCH   7   5
BRANCH   8  11
ATOM     11  C   UNL     1      -3.406   1.584  23.882  0.00  0.00    +0.114 C 
BRANCH  11   6
ATOM      6  N   UNL     1      -4.661   1.133  24.467  0.00  0.00    -0.310 NA
ATOM     30  H   UNL     1      -5.236   0.703  23.741  0.00  0.00    +0.122 HD
BRANCH   6  16
ATOM     16  C   UNL     1      -4.424   0.173  25.536  0.00  0.00    +0.116 C 
BRANCH  16  18
ATOM      1 CL   UNL     1       0.212  -2.207  25.489  0.00  0.00    -0.084 Cl
ATOM     18  C   UNL     1      -3.572  -0.980  25.075  0.00  0.00    -0.032 A 
ATOM     21  C   UNL     1      -2.231  -1.050  25.451  0.00  0.00    +0.025 A 
ATOM     22  C   UNL     1      -4.126  -1.978  24.272  0.00  0.00    +0.005 A 
ATOM     26  C   UNL     1      -1.442  -2.119  25.025  0.00  0.00    +0.041 A 
ATOM     27  C   UNL     1      -3.336  -3.046  23.846  0.00  0.00    +0.002 A 
ATOM     28  C   UNL     1      -1.995  -3.117  24.222  0.00  0.00    +0.020 A 
ENDBRANCH  16  18
ENDBRANCH   6  16
ENDBRANCH  11   6
ENDBRANCH   8  11
BRANCH  10  12
ATOM     12  C   UNL     1      -6.031   4.443  25.742  0.00  0.00    +0.190 C 
BRANCH  12   4
ATOM      4  O   UNL     1      -6.277   3.077  26.035  0.00  0.00    -0.392 OA
ATOM     31  H   UNL     1      -7.072   3.042  26.596  0.00  0.00    +0.210 HD
ENDBRANCH  12   4
ENDBRANCH  10  12
TORSDOF 11
ENDMDL
MODEL 7
REMARK VINA RESULT:      -3.0      2.390      4.741
REMARK  Name = 28962225
REMARK  12 active torsions:
REMARK  status: ('A' for Active; 'I' for Inactive)
REMARK    1  A    between atoms: O_3  and  C_9
REMARK    2  A    between atoms: O_4  and  C_12
REMARK    3  A    between atoms: N_5  and  C_7
REMARK    4  A    between atoms: N_5  and  C_13
REMARK    5  A    between atoms: N_5  and  C_14
REMARK    6  A    between atoms: N_6  and  C_11
REMARK    7  A    between atoms: N_6  and  C_16
REMARK    8  A    between atoms: C_8  and  C_11
REMARK    9  A    between atoms: C_10  and  C_12
REMARK   10  A    between atoms: C_13  and  C_15
REMARK   11  A    between atoms: C_15  and  C_17
REMARK   12  A    between atoms: C_16  and  C_18
REMARK                            x       y       z     vdW  Elec       q    Type
REMARK                         _______ _______ _______ _____ _____    ______ ____
ROOT
ATOM      2  O   UNL     1      -1.404  -1.893  25.620  0.00  0.00    -0.366 OA
ATOM      7  C   UNL     1      -0.867  -0.354  23.886  0.00  0.00    +0.118 C 
ATOM      8  C   UNL     1      -0.570  -0.748  25.338  0.00  0.00    +0.152 C 
ATOM      9  C   UNL     1      -2.280  -0.874  23.672  0.00  0.00    +0.165 C 
ATOM     10  C   UNL     1      -2.227  -2.170  24.470  0.00  0.00    +0.174 C 
ENDROOT
BRANCH   9   3
ATOM      3  O   UNL     1      -3.248   0.008  24.224  0.00  0.00    -0.388 OA
ATOM     29  H   UNL     1      -3.391  -0.253  25.149  0.00  0.00    +0.210 HD
ENDBRANCH   9   3
BRANCH   7   5
ATOM      5  N   UNL     1      -0.662   1.043  23.545  0.00  0.00    -0.297 NA
ATOM     14  C   UNL     1      -1.538   1.444  22.440  0.00  0.00    +0.105 C 
BRANCH   5  13
ATOM     13  C   UNL     1       0.739   1.293  23.191  0.00  0.00    +0.089 C 
BRANCH  13  15
ATOM     15  C   UNL     1       1.385   0.041  22.596  0.00  0.00    +0.050 C 
BRANCH  15  17
ATOM     17  C   UNL     1       2.836  -0.073  22.990  0.00  0.00    -0.046 A 
ATOM     19  C   UNL     1       3.318  -1.260  23.542  0.00  0.00    +0.003 A 
ATOM     20  C   UNL     1       3.696   1.008  22.803  0.00  0.00    +0.003 A 
ATOM     23  C   UNL     1       4.660  -1.366  23.906  0.00  0.00    +0.000 A 
ATOM     24  C   UNL     1       5.038   0.903  23.169  0.00  0.00    +0.000 A 
ATOM     25  C   UNL     1       5.520  -0.284  23.720  0.00  0.00    +0.000 A 
ENDBRANCH  15  17
ENDBRANCH  13  15
ENDBRANCH   5  13
ENDBRANCH   7   5
BRANCH   8  11
ATOM     11  C   UNL     1      -0.867   0.300  26.405  0.00  0.00    +0.114 C 
BRANCH  11   6
ATOM      6  N   UNL     1      -0.003   1.463  26.250  0.00  0.00    -0.310 NA
ATOM     30  H   UNL     1       0.162   1.631  25.257  0.00  0.00    +0.122 HD
BRANCH   6  16
ATOM     16  C   UNL     1      -0.604   2.644  26.854  0.00  0.00    +0.116 C 
BRANCH  16  18
ATOM      1 CL   UNL     1      -5.512   2.668  25.099  0.00  0.00    -0.084 Cl
ATOM     18  C   UNL     1      -1.651   3.258  25.962  0.00  0.00    -0.032 A 
ATOM     21  C   UNL     1      -2.946   2.738  25.945  0.00  0.00    +0.025 A 
ATOM     22  C   UNL     1      -1.325   4.347  25.153  0.00  0.00    +0.005 A 
ATOM     26  C   UNL     1      -3.915   3.308  25.120  0.00  0.00    +0.041 A 
ATOM     27  C   UNL     1      -2.295   4.915  24.327  0.00  0.00    +0.002 A 
ATOM     28  C   UNL     1      -3.589   4.397  24.310  0.00  0.00    +0.020 A 
ENDBRANCH  16  18
ENDBRANCH   6  16
ENDBRANCH  11   6
ENDBRANCH   8  11
BRANCH  10  12
ATOM     12  C   UNL     1      -3.568  -2.709  24.932  0.00  0.00    +0.190 C 
BRANCH  12   4
ATOM      4  O   UNL     1      -4.515  -2.541  23.889  0.00  0.00    -0.392 OA
ATOM     31  H   UNL     1      -4.779  -3.430  23.595  0.00  0.00    +0.210 HD
ENDBRANCH  12   4
ENDBRANCH  10  12
TORSDOF 11
ENDMDL
MODEL 8
REMARK VINA RESULT:      -2.8      2.669      6.863
REMARK  Name = 28962225
REMARK  12 active torsions:
REMARK  status: ('A' for Active; 'I' for Inactive)
REMARK    1  A    between atoms: O_3  and  C_9
REMARK    2  A    between atoms: O_4  and  C_12
REMARK    3  A    between atoms: N_5  and  C_7
REMARK    4  A    between atoms: N_5  and  C_13
REMARK    5  A    between atoms: N_5  and  C_14
REMARK    6  A    between atoms: N_6  and  C_11
REMARK    7  A    between atoms: N_6  and  C_16
REMARK    8  A    between atoms: C_8  and  C_11
REMARK    9  A    between atoms: C_10  and  C_12
REMARK   10  A    between atoms: C_13  and  C_15
REMARK   11  A    between atoms: C_15  and  C_17
REMARK   12  A    between atoms: C_16  and  C_18
REMARK                            x       y       z     vdW  Elec       q    Type
REMARK                         _______ _______ _______ _____ _____    ______ ____
ROOT
ATOM      2  O   UNL     1       0.324   0.890  23.594  0.00  0.00    -0.366 OA
ATOM      7  C   UNL     1      -1.115  -0.952  24.038  0.00  0.00    +0.118 C 
ATOM      8  C   UNL     1      -0.852   0.526  24.349  0.00  0.00    +0.152 C 
ATOM      9  C   UNL     1       0.263  -1.475  23.663  0.00  0.00    +0.165 C 
ATOM     10  C   UNL     1       0.823  -0.276  22.909  0.00  0.00    +0.174 C 
ENDROOT
BRANCH   9   3
ATOM      3  O   UNL     1       1.048  -1.745  24.817  0.00  0.00    -0.388 OA
ATOM     29  H   UNL     1       1.862  -2.189  24.523  0.00  0.00    +0.210 HD
ENDBRANCH   9   3
BRANCH   7   5
ATOM      5  N   UNL     1      -1.808  -1.711  25.064  0.00  0.00    -0.297 NA
ATOM     14  C   UNL     1      -2.446  -2.901  24.492  0.00  0.00    +0.105 C 
BRANCH   5  13
ATOM     13  C   UNL     1      -2.810  -0.881  25.740  0.00  0.00    +0.089 C 
BRANCH  13  15
ATOM     15  C   UNL     1      -4.060  -0.719  24.874  0.00  0.00    +0.050 C 
BRANCH  15  17
ATOM     17  C   UNL     1      -4.398   0.735  24.658  0.00  0.00    -0.046 A 
ATOM     19  C   UNL     1      -3.696   1.480  23.711  0.00  0.00    +0.003 A 
ATOM     20  C   UNL     1      -5.412   1.333  25.405  0.00  0.00    +0.003 A 
ATOM     23  C   UNL     1      -4.008   2.826  23.511  0.00  0.00    +0.000 A 
ATOM     24  C   UNL     1      -5.724   2.678  25.205  0.00  0.00    +0.000 A 
ATOM     25  C   UNL     1      -5.022   3.424  24.258  0.00  0.00    +0.000 A 
ENDBRANCH  15  17
ENDBRANCH  13  15
ENDBRANCH   5  13
ENDBRANCH   7   5
BRANCH   8  11
ATOM     11  C   UNL     1      -0.578   0.879  25.807  0.00  0.00    +0.114 C 
BRANCH  11   6
ATOM      6  N   UNL     1       0.528   1.819  25.918  0.00  0.00    -0.310 NA
ATOM     30  H   UNL     1       1.410   1.318  25.810  0.00  0.00    +0.122 HD
BRANCH   6  16
ATOM     16  C   UNL     1       0.430   2.862  24.906  0.00  0.00    +0.116 C 
BRANCH  16  18
ATOM      1 CL   UNL     1      -3.876   4.008  27.609  0.00  0.00    -0.084 Cl
ATOM     18  C   UNL     1      -0.686   3.829  25.204  0.00  0.00    -0.032 A 
ATOM     21  C   UNL     1      -1.652   3.507  26.157  0.00  0.00    +0.025 A 
ATOM     22  C   UNL     1      -0.752   5.046  24.526  0.00  0.00    +0.005 A 
ATOM     26  C   UNL     1      -2.685   4.403  26.433  0.00  0.00    +0.041 A 
ATOM     27  C   UNL     1      -1.786   5.942  24.802  0.00  0.00    +0.002 A 
ATOM     28  C   UNL     1      -2.752   5.621  25.755  0.00  0.00    +0.020 A 
ENDBRANCH  16  18
ENDBRANCH   6  16
ENDBRANCH  11   6
ENDBRANCH   8  11
BRANCH  10  12
ATOM     12  C   UNL     1       2.338  -0.201  22.832  0.00  0.00    +0.190 C 
BRANCH  12   4
ATOM      4  O   UNL     1       2.752   1.104  23.203  0.00  0.00    -0.392 OA
ATOM     31  H   UNL     1       1.950   1.649  23.279  0.00  0.00    +0.210 HD
ENDBRANCH  12   4
ENDBRANCH  10  12
TORSDOF 11
ENDMDL
MODEL 9
REMARK VINA RESULT:      -2.8      2.286      5.898
REMARK  Name = 28962225
REMARK  12 active torsions:
REMARK  status: ('A' for Active; 'I' for Inactive)
REMARK    1  A    between atoms: O_3  and  C_9
REMARK    2  A    between atoms: O_4  and  C_12
REMARK    3  A    between atoms: N_5  and  C_7
REMARK    4  A    between atoms: N_5  and  C_13
REMARK    5  A    between atoms: N_5  and  C_14
REMARK    6  A    between atoms: N_6  and  C_11
REMARK    7  A    between atoms: N_6  and  C_16
REMARK    8  A    between atoms: C_8  and  C_11
REMARK    9  A    between atoms: C_10  and  C_12
REMARK   10  A    between atoms: C_13  and  C_15
REMARK   11  A    between atoms: C_15  and  C_17
REMARK   12  A    between atoms: C_16  and  C_18
REMARK                            x       y       z     vdW  Elec       q    Type
REMARK                         _______ _______ _______ _____ _____    ______ ____
ROOT
ATOM      2  O   UNL     1      -3.535  -0.819  23.101  0.00  0.00    -0.366 OA
ATOM      7  C   UNL     1      -4.834   0.572  24.529  0.00  0.00    +0.118 C 
ATOM      8  C   UNL     1      -3.791   0.570  23.406  0.00  0.00    +0.152 C 
ATOM      9  C   UNL     1      -4.609  -0.770  25.209  0.00  0.00    +0.165 C 
ATOM     10  C   UNL     1      -4.294  -1.646  24.004  0.00  0.00    +0.174 C 
ENDROOT
BRANCH   9   3
ATOM      3  O   UNL     1      -3.497  -0.725  26.093  0.00  0.00    -0.388 OA
ATOM     29  H   UNL     1      -3.348   0.206  26.333  0.00  0.00    +0.210 HD
ENDBRANCH   9   3
BRANCH   7   5
ATOM      5  N   UNL     1      -4.824   1.725  25.413  0.00  0.00    -0.297 NA
ATOM     14  C   UNL     1      -5.979   1.701  26.315  0.00  0.00    +0.105 C 
BRANCH   5  13
ATOM     13  C   UNL     1      -4.813   2.973  24.643  0.00  0.00    +0.089 C 
BRANCH  13  15
ATOM     15  C   UNL     1      -4.230   4.120  25.469  0.00  0.00    +0.050 C 
BRANCH  15  17
ATOM     17  C   UNL     1      -2.722   4.080  25.483  0.00  0.00    -0.046 A 
ATOM     19  C   UNL     1      -1.994   4.938  24.658  0.00  0.00    +0.003 A 
ATOM     20  C   UNL     1      -2.056   3.186  26.320  0.00  0.00    +0.003 A 
ATOM     23  C   UNL     1      -0.599   4.901  24.671  0.00  0.00    +0.000 A 
ATOM     24  C   UNL     1      -0.662   3.148  26.332  0.00  0.00    +0.000 A 
ATOM     25  C   UNL     1       0.066   4.007  25.508  0.00  0.00    +0.000 A 
ENDBRANCH  15  17
ENDBRANCH  13  15
ENDBRANCH   5  13
ENDBRANCH   7   5
BRANCH   8  11
ATOM     11  C   UNL     1      -2.447   1.218  23.720  0.00  0.00    +0.114 C 
BRANCH  11   6
ATOM      6  N   UNL     1      -1.490   0.230  24.198  0.00  0.00    -0.310 NA
ATOM     30  H   UNL     1      -1.360  -0.488  23.484  0.00  0.00    +0.122 HD
BRANCH   6  16
ATOM     16  C   UNL     1      -0.209   0.851  24.506  0.00  0.00    +0.116 C 
BRANCH  16  18
ATOM      1 CL   UNL     1       4.778   1.036  23.004  0.00  0.00    -0.084 Cl
ATOM     18  C   UNL     1       0.846   0.491  23.493  0.00  0.00    -0.032 A 
ATOM     21  C   UNL     1       2.169   0.886  23.694  0.00  0.00    +0.025 A 
ATOM     22  C   UNL     1       0.500  -0.236  22.355  0.00  0.00    +0.005 A 
ATOM     26  C   UNL     1       3.146   0.552  22.757  0.00  0.00    +0.041 A 
ATOM     27  C   UNL     1       1.477  -0.568  21.417  0.00  0.00    +0.002 A 
ATOM     28  C   UNL     1       2.800  -0.176  21.617  0.00  0.00    +0.020 A 
ENDBRANCH  16  18
ENDBRANCH   6  16
ENDBRANCH  11   6
ENDBRANCH   8  11
BRANCH  10  12
ATOM     12  C   UNL     1      -3.510  -2.911  24.303  0.00  0.00    +0.190 C 
BRANCH  12   4
ATOM      4  O   UNL     1      -2.125  -2.604  24.301  0.00  0.00    -0.392 OA
ATOM     31  H   UNL     1      -2.004  -1.822  24.866  0.00  0.00    +0.210 HD
ENDBRANCH  12   4
ENDBRANCH  10  12
TORSDOF 11
ENDMDL
MODEL 10
REMARK VINA RESULT:      -2.8      2.773      6.942
REMARK  Name = 28962225
REMARK  12 active torsions:
REMARK  status: ('A' for Active; 'I' for Inactive)
REMARK    1  A    between atoms: O_3  and  C_9
REMARK    2  A    between atoms: O_4  and  C_12
REMARK    3  A    between atoms: N_5  and  C_7
REMARK    4  A    between atoms: N_5  and  C_13
REMARK    5  A    between atoms: N_5  and  C_14
REMARK    6  A    between atoms: N_6  and  C_11
REMARK    7  A    between atoms: N_6  and  C_16
REMARK    8  A    between atoms: C_8  and  C_11
REMARK    9  A    between atoms: C_10  and  C_12
REMARK   10  A    between atoms: C_13  and  C_15
REMARK   11  A    between atoms: C_15  and  C_17
REMARK   12  A    between atoms: C_16  and  C_18
REMARK                            x       y       z     vdW  Elec       q    Type
REMARK                         _______ _______ _______ _____ _____    ______ ____
ROOT
ATOM      2  O   UNL     1      -0.396   0.869  23.711  0.00  0.00    -0.366 OA
ATOM      7  C   UNL     1      -1.723  -1.079  24.036  0.00  0.00    +0.118 C 
ATOM      8  C   UNL     1      -1.592   0.410  24.378  0.00  0.00    +0.152 C 
ATOM      9  C   UNL     1      -0.287  -1.495  23.755  0.00  0.00    +0.165 C 
ATOM     10  C   UNL     1       0.234  -0.248  23.053  0.00  0.00    +0.174 C 
ENDROOT
BRANCH   9   3
ATOM      3  O   UNL     1       0.433  -1.723  24.959  0.00  0.00    -0.388 OA
ATOM     29  H   UNL     1       1.069  -0.996  25.064  0.00  0.00    +0.210 HD
ENDBRANCH   9   3
BRANCH   7   5
ATOM      5  N   UNL     1      -2.429  -1.900  25.004  0.00  0.00    -0.297 NA
ATOM     14  C   UNL     1      -2.816  -3.185  24.414  0.00  0.00    +0.105 C 
BRANCH   5  13
ATOM     13  C   UNL     1      -3.614  -1.204  25.514  0.00  0.00    +0.089 C 
BRANCH  13  15
ATOM     15  C   UNL     1      -4.401  -0.557  24.373  0.00  0.00    +0.050 C 
BRANCH  15  17
ATOM     17  C   UNL     1      -4.784   0.865  24.702  0.00  0.00    -0.046 A 
ATOM     19  C   UNL     1      -5.627   1.127  25.781  0.00  0.00    +0.003 A 
ATOM     20  C   UNL     1      -4.295   1.915  23.926  0.00  0.00    +0.003 A 
ATOM     23  C   UNL     1      -5.982   2.442  26.085  0.00  0.00    +0.000 A 
ATOM     24  C   UNL     1      -4.650   3.230  24.230  0.00  0.00    +0.000 A 
ATOM     25  C   UNL     1      -5.493   3.493  25.310  0.00  0.00    +0.000 A 
ENDBRANCH  15  17
ENDBRANCH  13  15
ENDBRANCH   5  13
ENDBRANCH   7   5
BRANCH   8  11
ATOM     11  C   UNL     1      -1.448   0.762  25.855  0.00  0.00    +0.114 C 
BRANCH  11   6
ATOM      6  N   UNL     1      -0.066   1.086  26.182  0.00  0.00    -0.310 NA
ATOM     30  H   UNL     1       0.493   1.082  25.328  0.00  0.00    +0.122 HD
BRANCH   6  16
ATOM     16  C   UNL     1       0.026   2.391  26.822  0.00  0.00    +0.116 C 
BRANCH  16  18
ATOM      1 CL   UNL     1       0.319   5.477  22.633  0.00  0.00    -0.084 Cl
ATOM     18  C   UNL     1      -0.586   3.475  25.974  0.00  0.00    -0.032 A 
ATOM     21  C   UNL     1       0.074   3.922  24.830  0.00  0.00    +0.025 A 
ATOM     22  C   UNL     1      -1.813   4.031  26.335  0.00  0.00    +0.005 A 
ATOM     26  C   UNL     1      -0.494   4.925  24.045  0.00  0.00    +0.041 A 
ATOM     27  C   UNL     1      -2.380   5.036  25.550  0.00  0.00    +0.002 A 
ATOM     28  C   UNL     1      -1.721   5.483  24.405  0.00  0.00    +0.020 A 
ENDBRANCH  16  18
ENDBRANCH   6  16
ENDBRANCH  11   6
ENDBRANCH   8  11
BRANCH  10  12
ATOM     12  C   UNL     1       1.740  -0.062  23.083  0.00  0.00    +0.190 C 
BRANCH  12   4
ATOM      4  O   UNL     1       2.033   1.243  23.557  0.00  0.00    -0.392 OA
ATOM     31  H   UNL     1       2.224   1.166  24.508  0.00  0.00    +0.210 HD
ENDBRANCH  12   4
ENDBRANCH  10  12
TORSDOF 11
ENDMDL
