MODEL 1
REMARK VINA RESULT:      -2.1      0.000      0.000
REMARK  Name = 38027434
REMARK  14 active torsions:
REMARK  status: ('A' for Active; 'I' for Inactive)
REMARK    1  A    between atoms: N_3  and  C_14
REMARK    2  A    between atoms: N_4  and  C_21
REMARK    3  A    between atoms: N_5  and  C_23
REMARK    4  A    between atoms: N_6  and  C_22
REMARK    5  A    between atoms: N_6  and  C_24
REMARK    6  A    between atoms: N_6  and  C_25
REMARK    7  A    between atoms: C_7  and  C_11
REMARK    8  A    between atoms: C_8  and  C_14
REMARK    9  A    between atoms: C_10  and  C_15
REMARK   10  A    between atoms: C_11  and  C_16
REMARK   11  A    between atoms: C_11  and  C_17
REMARK   12  A    between atoms: C_12  and  C_18
REMARK   13  A    between atoms: C_15  and  C_19
REMARK   14  A    between atoms: C_21  and  C_22
REMARK                            x       y       z     vdW  Elec       q    Type
REMARK                         _______ _______ _______ _____ _____    ______ ____
ROOT
ATOM      7  C   UNL     1      -4.209  -0.260  24.943  0.00  0.00    +0.000 C 
ATOM      8  C   UNL     1      -2.971   0.259  24.171  0.00  0.00    +0.032 C 
ATOM      9  C   UNL     1      -5.502   0.176  24.237  0.00  0.00    +0.012 C 
ATOM     10  C   UNL     1      -5.611   1.708  24.115  0.00  0.00    +0.023 C 
ATOM     12  C   UNL     1      -4.323   2.325  23.608  0.00  0.00    -0.073 C 
ATOM     13  C   UNL     1      -3.155   1.658  23.629  0.00  0.00    -0.022 C 
ATOM     18  C   UNL     1      -4.416   3.711  23.035  0.00  0.00    +0.039 C 
ENDROOT
BRANCH   7  11
ATOM     11  C   UNL     1      -4.188  -1.785  25.091  0.00  0.00    -0.013 C 
ATOM     16  C   UNL     1      -3.995  -2.449  23.732  0.00  0.00    +0.007 C 
ATOM     17  C   UNL     1      -3.089  -2.210  26.061  0.00  0.00    +0.007 C 
ENDBRANCH   7  11
BRANCH   8  14
ATOM     14  C   UNL     1      -1.713   0.213  25.047  0.00  0.00    +0.113 C 
BRANCH  14   3
ATOM      2  O   UNL     1       0.977   1.195  25.025  0.00  0.00    -0.253 OA
ATOM      3  N   UNL     1      -0.610  -0.335  24.320  0.00  0.00    -0.299 N 
ATOM      5  N   UNL     1       1.558  -0.539  23.552  0.00  0.00    -0.269 N 
ATOM     20  C   UNL     1       0.690   0.203  24.357  0.00  0.00    +0.304 C 
ATOM     31  H   UNL     1      -0.751  -1.196  23.802  0.00  0.00    +0.150 HD
ATOM     33  H   UNL     1       1.156  -1.336  23.063  0.00  0.00    +0.156 HD
BRANCH   5  23
ATOM     23  C   UNL     1       2.937  -0.319  23.328  0.00  0.00    +0.035 A 
ATOM     26  C   UNL     1       3.357   0.805  22.617  0.00  0.00    +0.023 A 
ATOM     27  C   UNL     1       3.876  -1.224  23.820  0.00  0.00    +0.023 A 
ATOM     28  C   UNL     1       4.717   1.023  22.396  0.00  0.00    +0.002 A 
ATOM     29  C   UNL     1       5.236  -1.006  23.600  0.00  0.00    +0.002 A 
ATOM     30  C   UNL     1       5.657   0.116  22.888  0.00  0.00    +0.000 A 
ENDBRANCH   5  23
ENDBRANCH  14   3
ENDBRANCH   8  14
BRANCH  10  15
ATOM     15  C   UNL     1      -6.036   2.339  25.445  0.00  0.00    +0.103 C 
BRANCH  15  19
ATOM      1  O   UNL     1      -5.608   4.699  25.771  0.00  0.00    -0.276 OA
ATOM      4  N   UNL     1      -3.905   3.164  26.146  0.00  0.00    -0.314 N 
ATOM     19  C   UNL     1      -5.193   3.543  25.797  0.00  0.00    +0.214 C 
ATOM     32  H   UNL     1      -3.660   2.177  26.145  0.00  0.00    +0.149 HD
BRANCH   4  21
ATOM     21  C   UNL     1      -2.879   4.107  26.528  0.00  0.00    +0.119 C 
BRANCH  21  22
ATOM     22  C   UNL     1      -1.492   3.575  26.201  0.00  0.00    +0.102 C 
BRANCH  22   6
ATOM      6  N   UNL     1      -0.824   4.454  25.249  0.00  0.00    -0.307 NA
ATOM     24  C   UNL     1      -1.638   5.643  24.985  0.00  0.00    +0.104 C 
ATOM     25  C   UNL     1      -0.544   3.744  24.000  0.00  0.00    +0.104 C 
ENDBRANCH  22   6
ENDBRANCH  21  22
ENDBRANCH   4  21
ENDBRANCH  15  19
ENDBRANCH  10  15
TORSDOF 9
ENDMDL
MODEL 2
REMARK VINA RESULT:      -1.9      1.928      3.969
REMARK  Name = 38027434
REMARK  14 active torsions:
REMARK  status: ('A' for Active; 'I' for Inactive)
REMARK    1  A    between atoms: N_3  and  C_14
REMARK    2  A    between atoms: N_4  and  C_21
REMARK    3  A    between atoms: N_5  and  C_23
REMARK    4  A    between atoms: N_6  and  C_22
REMARK    5  A    between atoms: N_6  and  C_24
REMARK    6  A    between atoms: N_6  and  C_25
REMARK    7  A    between atoms: C_7  and  C_11
REMARK    8  A    between atoms: C_8  and  C_14
REMARK    9  A    between atoms: C_10  and  C_15
REMARK   10  A    between atoms: C_11  and  C_16
REMARK   11  A    between atoms: C_11  and  C_17
REMARK   12  A    between atoms: C_12  and  C_18
REMARK   13  A    between atoms: C_15  and  C_19
REMARK   14  A    between atoms: C_21  and  C_22
REMARK                            x       y       z     vdW  Elec       q    Type
REMARK                         _______ _______ _______ _____ _____    ______ ____
ROOT
ATOM      7  C   UNL     1      -3.371   2.121  24.563  0.00  0.00    +0.000 C 
ATOM      8  C   UNL     1      -2.608   2.297  23.227  0.00  0.00    +0.032 C 
ATOM      9  C   UNL     1      -3.505   3.470  25.285  0.00  0.00    +0.012 C 
ATOM     10  C   UNL     1      -2.136   4.109  25.586  0.00  0.00    +0.023 C 
ATOM     12  C   UNL     1      -1.222   4.077  24.377  0.00  0.00    -0.073 C 
ATOM     13  C   UNL     1      -1.456   3.270  23.327  0.00  0.00    -0.022 C 
ATOM     18  C   UNL     1      -0.057   5.026  24.384  0.00  0.00    +0.039 C 
ENDROOT
BRANCH   7  11
ATOM     11  C   UNL     1      -4.758   1.507  24.349  0.00  0.00    -0.013 C 
ATOM     16  C   UNL     1      -4.808   0.093  24.919  0.00  0.00    +0.007 C 
ATOM     17  C   UNL     1      -5.832   2.384  24.985  0.00  0.00    +0.007 C 
ENDBRANCH   7  11
BRANCH   8  14
ATOM     14  C   UNL     1      -2.095   0.951  22.702  0.00  0.00    +0.113 C 
BRANCH  14   3
ATOM      2  O   UNL     1       0.128  -0.223  24.074  0.00  0.00    -0.253 OA
ATOM      3  N   UNL     1      -0.717   1.043  22.332  0.00  0.00    -0.299 N 
ATOM      5  N   UNL     1       1.562   0.698  22.460  0.00  0.00    -0.269 N 
ATOM     20  C   UNL     1       0.326   0.438  23.057  0.00  0.00    +0.304 C 
ATOM     31  H   UNL     1      -0.479   1.513  21.464  0.00  0.00    +0.150 HD
ATOM     33  H   UNL     1       1.550   1.267  21.617  0.00  0.00    +0.156 HD
BRANCH   5  23
ATOM     23  C   UNL     1       2.840   0.267  22.886  0.00  0.00    +0.035 A 
ATOM     26  C   UNL     1       3.918   1.152  22.867  0.00  0.00    +0.023 A 
ATOM     27  C   UNL     1       3.022  -1.044  23.327  0.00  0.00    +0.023 A 
ATOM     28  C   UNL     1       5.178   0.726  23.287  0.00  0.00    +0.002 A 
ATOM     29  C   UNL     1       4.282  -1.469  23.748  0.00  0.00    +0.002 A 
ATOM     30  C   UNL     1       5.359  -0.585  23.728  0.00  0.00    +0.000 A 
ENDBRANCH   5  23
ENDBRANCH  14   3
ENDBRANCH   8  14
BRANCH  10  15
ATOM     15  C   UNL     1      -1.470   3.445  26.795  0.00  0.00    +0.103 C 
BRANCH  15  19
ATOM      1  O   UNL     1       0.505   2.217  26.128  0.00  0.00    -0.276 OA
ATOM      4  N   UNL     1      -1.504   1.086  26.409  0.00  0.00    -0.314 N 
ATOM     19  C   UNL     1      -0.691   2.209  26.407  0.00  0.00    +0.214 C 
ATOM     32  H   UNL     1      -2.484   1.182  26.663  0.00  0.00    +0.149 HD
BRANCH   4  21
ATOM     21  C   UNL     1      -1.028  -0.236  26.074  0.00  0.00    +0.119 C 
BRANCH  21  22
ATOM     22  C   UNL     1      -2.144  -1.265  26.170  0.00  0.00    +0.102 C 
BRANCH  22   6
ATOM      6  N   UNL     1      -2.307  -1.955  24.896  0.00  0.00    -0.307 NA
ATOM     24  C   UNL     1      -3.465  -2.852  24.940  0.00  0.00    +0.104 C 
ATOM     25  C   UNL     1      -1.098  -2.706  24.558  0.00  0.00    +0.104 C 
ENDBRANCH  22   6
ENDBRANCH  21  22
ENDBRANCH   4  21
ENDBRANCH  15  19
ENDBRANCH  10  15
TORSDOF 9
ENDMDL
MODEL 3
REMARK VINA RESULT:      -1.2      1.861      5.907
REMARK  Name = 38027434
REMARK  14 active torsions:
REMARK  status: ('A' for Active; 'I' for Inactive)
REMARK    1  A    between atoms: N_3  and  C_14
REMARK    2  A    between atoms: N_4  and  C_21
REMARK    3  A    between atoms: N_5  and  C_23
REMARK    4  A    between atoms: N_6  and  C_22
REMARK    5  A    between atoms: N_6  and  C_24
REMARK    6  A    between atoms: N_6  and  C_25
REMARK    7  A    between atoms: C_7  and  C_11
REMARK    8  A    between atoms: C_8  and  C_14
REMARK    9  A    between atoms: C_10  and  C_15
REMARK   10  A    between atoms: C_11  and  C_16
REMARK   11  A    between atoms: C_11  and  C_17
REMARK   12  A    between atoms: C_12  and  C_18
REMARK   13  A    between atoms: C_15  and  C_19
REMARK   14  A    between atoms: C_21  and  C_22
REMARK                            x       y       z     vdW  Elec       q    Type
REMARK                         _______ _______ _______ _____ _____    ______ ____
ROOT
ATOM      7  C   UNL     1      -4.133   3.665  25.662  0.00  0.00    +0.000 C 
ATOM      8  C   UNL     1      -3.866   4.432  24.344  0.00  0.00    +0.032 C 
ATOM      9  C   UNL     1      -3.230   4.198  26.785  0.00  0.00    +0.012 C 
ATOM     10  C   UNL     1      -1.734   4.069  26.440  0.00  0.00    +0.023 C 
ATOM     12  C   UNL     1      -1.435   4.563  25.039  0.00  0.00    -0.073 C 
ATOM     13  C   UNL     1      -2.402   4.732  24.120  0.00  0.00    -0.022 C 
ATOM     18  C   UNL     1      -0.003   4.902  24.733  0.00  0.00    +0.039 C 
ENDROOT
BRANCH   7  11
ATOM     11  C   UNL     1      -5.601   3.760  26.088  0.00  0.00    -0.013 C 
ATOM     16  C   UNL     1      -6.289   4.918  25.372  0.00  0.00    +0.007 C 
ATOM     17  C   UNL     1      -6.324   2.446  25.809  0.00  0.00    +0.007 C 
ENDBRANCH   7  11
BRANCH   8  14
ATOM     14  C   UNL     1      -4.421   3.668  23.136  0.00  0.00    +0.113 C 
BRANCH  14   3
ATOM      2  O   UNL     1      -2.465   1.596  23.431  0.00  0.00    -0.253 OA
ATOM      3  N   UNL     1      -4.669   2.301  23.473  0.00  0.00    -0.299 N 
ATOM      5  N   UNL     1      -4.194   0.090  23.936  0.00  0.00    -0.269 N 
ATOM     20  C   UNL     1      -3.655   1.334  23.601  0.00  0.00    +0.304 C 
ATOM     31  H   UNL     1      -5.619   2.022  23.698  0.00  0.00    +0.150 HD
ATOM     33  H   UNL     1      -5.205   0.043  24.039  0.00  0.00    +0.156 HD
BRANCH   5  23
ATOM     23  C   UNL     1      -3.503  -1.127  24.152  0.00  0.00    +0.035 A 
ATOM     26  C   UNL     1      -4.147  -2.343  23.929  0.00  0.00    +0.023 A 
ATOM     27  C   UNL     1      -2.178  -1.108  24.587  0.00  0.00    +0.023 A 
ATOM     28  C   UNL     1      -3.467  -3.542  24.141  0.00  0.00    +0.002 A 
ATOM     29  C   UNL     1      -1.498  -2.307  24.799  0.00  0.00    +0.002 A 
ATOM     30  C   UNL     1      -2.141  -3.523  24.576  0.00  0.00    +0.000 A 
ENDBRANCH   5  23
ENDBRANCH  14   3
ENDBRANCH   8  14
BRANCH  10  15
ATOM     15  C   UNL     1      -1.245   2.629  26.630  0.00  0.00    +0.103 C 
BRANCH  15  19
ATOM      1  O   UNL     1       1.172   2.703  26.535  0.00  0.00    -0.276 OA
ATOM      4  N   UNL     1      -0.017   1.813  24.748  0.00  0.00    -0.314 N 
ATOM     19  C   UNL     1       0.109   2.401  25.998  0.00  0.00    +0.214 C 
ATOM     32  H   UNL     1      -0.944   1.593  24.393  0.00  0.00    +0.149 HD
BRANCH   4  21
ATOM     21  C   UNL     1       1.115   1.482  23.913  0.00  0.00    +0.119 C 
BRANCH  21  22
ATOM     22  C   UNL     1       1.151  -0.006  23.599  0.00  0.00    +0.102 C 
BRANCH  22   6
ATOM      6  N   UNL     1       2.223  -0.299  22.656  0.00  0.00    -0.307 NA
ATOM     24  C   UNL     1       3.250   0.744  22.702  0.00  0.00    +0.104 C 
ATOM     25  C   UNL     1       1.695  -0.430  21.298  0.00  0.00    +0.104 C 
ENDBRANCH  22   6
ENDBRANCH  21  22
ENDBRANCH   4  21
ENDBRANCH  15  19
ENDBRANCH  10  15
TORSDOF 9
ENDMDL
MODEL 4
REMARK VINA RESULT:      -1.2      1.814      4.749
REMARK  Name = 38027434
REMARK  14 active torsions:
REMARK  status: ('A' for Active; 'I' for Inactive)
REMARK    1  A    between atoms: N_3  and  C_14
REMARK    2  A    between atoms: N_4  and  C_21
REMARK    3  A    between atoms: N_5  and  C_23
REMARK    4  A    between atoms: N_6  and  C_22
REMARK    5  A    between atoms: N_6  and  C_24
REMARK    6  A    between atoms: N_6  and  C_25
REMARK    7  A    between atoms: C_7  and  C_11
REMARK    8  A    between atoms: C_8  and  C_14
REMARK    9  A    between atoms: C_10  and  C_15
REMARK   10  A    between atoms: C_11  and  C_16
REMARK   11  A    between atoms: C_11  and  C_17
REMARK   12  A    between atoms: C_12  and  C_18
REMARK   13  A    between atoms: C_15  and  C_19
REMARK   14  A    between atoms: C_21  and  C_22
REMARK                            x       y       z     vdW  Elec       q    Type
REMARK                         _______ _______ _______ _____ _____    ______ ____
ROOT
ATOM      7  C   UNL     1      -2.283   4.245  24.919  0.00  0.00    +0.000 C 
ATOM      8  C   UNL     1      -2.630   3.692  26.323  0.00  0.00    +0.032 C 
ATOM      9  C   UNL     1      -3.538   4.822  24.245  0.00  0.00    +0.012 C 
ATOM     10  C   UNL     1      -4.653   3.770  24.092  0.00  0.00    +0.023 C 
ATOM     12  C   UNL     1      -4.871   2.991  25.374  0.00  0.00    -0.073 C 
ATOM     13  C   UNL     1      -3.962   2.979  26.365  0.00  0.00    -0.022 C 
ATOM     18  C   UNL     1      -6.179   2.263  25.509  0.00  0.00    +0.039 C 
ENDROOT
BRANCH   7  11
ATOM     11  C   UNL     1      -1.191   5.317  24.984  0.00  0.00    -0.013 C 
ATOM     16  C   UNL     1      -0.212   5.151  23.826  0.00  0.00    +0.007 C 
ATOM     17  C   UNL     1      -1.811   6.711  24.971  0.00  0.00    +0.007 C 
ENDBRANCH   7  11
BRANCH   8  14
ATOM     14  C   UNL     1      -1.532   2.753  26.835  0.00  0.00    +0.113 C 
BRANCH  14   3
ATOM      2  O   UNL     1       0.969   2.763  25.439  0.00  0.00    -0.253 OA
ATOM      3  N   UNL     1      -1.123   1.845  25.809  0.00  0.00    -0.299 N 
ATOM      5  N   UNL     1       0.247   0.898  24.210  0.00  0.00    -0.269 N 
ATOM     20  C   UNL     1       0.126   1.911  25.164  0.00  0.00    +0.304 C 
ATOM     31  H   UNL     1      -1.735   1.070  25.576  0.00  0.00    +0.150 HD
ATOM     33  H   UNL     1      -0.549   0.272  24.107  0.00  0.00    +0.156 HD
BRANCH   5  23
ATOM     23  C   UNL     1       1.346   0.631  23.360  0.00  0.00    +0.035 A 
ATOM     26  C   UNL     1       2.582   1.227  23.611  0.00  0.00    +0.023 A 
ATOM     27  C   UNL     1       1.194  -0.228  22.272  0.00  0.00    +0.023 A 
ATOM     28  C   UNL     1       3.666   0.964  22.773  0.00  0.00    +0.002 A 
ATOM     29  C   UNL     1       2.277  -0.491  21.435  0.00  0.00    +0.002 A 
ATOM     30  C   UNL     1       3.513   0.105  21.684  0.00  0.00    +0.000 A 
ENDBRANCH   5  23
ENDBRANCH  14   3
ENDBRANCH   8  14
BRANCH  10  15
ATOM     15  C   UNL     1      -4.366   2.827  22.919  0.00  0.00    +0.103 C 
BRANCH  15  19
ATOM      1  O   UNL     1      -2.062   2.088  22.887  0.00  0.00    -0.276 OA
ATOM      4  N   UNL     1      -3.675   0.761  23.904  0.00  0.00    -0.314 N 
ATOM     19  C   UNL     1      -3.226   1.880  23.217  0.00  0.00    +0.214 C 
ATOM     32  H   UNL     1      -4.661   0.684  24.139  0.00  0.00    +0.149 HD
BRANCH   4  21
ATOM     21  C   UNL     1      -2.803  -0.314  24.318  0.00  0.00    +0.119 C 
BRANCH  21  22
ATOM     22  C   UNL     1      -3.483  -1.209  25.345  0.00  0.00    +0.102 C 
BRANCH  22   6
ATOM      6  N   UNL     1      -3.379  -2.607  24.946  0.00  0.00    -0.307 NA
ATOM     24  C   UNL     1      -2.004  -2.933  24.559  0.00  0.00    +0.104 C 
ATOM     25  C   UNL     1      -4.297  -2.899  23.844  0.00  0.00    +0.104 C 
ENDBRANCH  22   6
ENDBRANCH  21  22
ENDBRANCH   4  21
ENDBRANCH  15  19
ENDBRANCH  10  15
TORSDOF 9
ENDMDL
MODEL 5
REMARK VINA RESULT:      -1.1      1.565      4.022
REMARK  Name = 38027434
REMARK  14 active torsions:
REMARK  status: ('A' for Active; 'I' for Inactive)
REMARK    1  A    between atoms: N_3  and  C_14
REMARK    2  A    between atoms: N_4  and  C_21
REMARK    3  A    between atoms: N_5  and  C_23
REMARK    4  A    between atoms: N_6  and  C_22
REMARK    5  A    between atoms: N_6  and  C_24
REMARK    6  A    between atoms: N_6  and  C_25
REMARK    7  A    between atoms: C_7  and  C_11
REMARK    8  A    between atoms: C_8  and  C_14
REMARK    9  A    between atoms: C_10  and  C_15
REMARK   10  A    between atoms: C_11  and  C_16
REMARK   11  A    between atoms: C_11  and  C_17
REMARK   12  A    between atoms: C_12  and  C_18
REMARK   13  A    between atoms: C_15  and  C_19
REMARK   14  A    between atoms: C_21  and  C_22
REMARK                            x       y       z     vdW  Elec       q    Type
REMARK                         _______ _______ _______ _____ _____    ______ ____
ROOT
ATOM      7  C   UNL     1      -3.681   2.676  23.161  0.00  0.00    +0.000 C 
ATOM      8  C   UNL     1      -2.218   2.431  23.602  0.00  0.00    +0.032 C 
ATOM      9  C   UNL     1      -4.196   4.008  23.727  0.00  0.00    +0.012 C 
ATOM     10  C   UNL     1      -4.138   4.048  25.266  0.00  0.00    +0.023 C 
ATOM     12  C   UNL     1      -2.803   3.561  25.791  0.00  0.00    -0.073 C 
ATOM     13  C   UNL     1      -1.952   2.851  25.030  0.00  0.00    -0.022 C 
ATOM     18  C   UNL     1      -2.448   3.947  27.200  0.00  0.00    +0.039 C 
ENDROOT
BRANCH   7  11
ATOM     11  C   UNL     1      -3.823   2.671  21.635  0.00  0.00    -0.013 C 
ATOM     16  C   UNL     1      -4.324   4.026  21.144  0.00  0.00    +0.007 C 
ATOM     17  C   UNL     1      -2.493   2.316  20.978  0.00  0.00    +0.007 C 
ENDBRANCH   7  11
BRANCH   8  14
ATOM     14  C   UNL     1      -1.823   0.960  23.422  0.00  0.00    +0.113 C 
BRANCH  14   3
ATOM      2  O   UNL     1       0.570   0.135  24.761  0.00  0.00    -0.253 OA
ATOM      3  N   UNL     1      -0.518   0.852  22.849  0.00  0.00    -0.299 N 
ATOM      5  N   UNL     1       1.749   0.428  22.753  0.00  0.00    -0.269 N 
ATOM     20  C   UNL     1       0.617   0.438  23.570  0.00  0.00    +0.304 C 
ATOM     31  H   UNL     1      -0.410   1.018  21.853  0.00  0.00    +0.150 HD
ATOM     33  H   UNL     1       1.615   0.710  21.784  0.00  0.00    +0.156 HD
BRANCH   5  23
ATOM     23  C   UNL     1       3.073   0.073  23.105  0.00  0.00    +0.035 A 
ATOM     26  C   UNL     1       3.352  -1.218  23.554  0.00  0.00    +0.023 A 
ATOM     27  C   UNL     1       4.098   1.012  23.003  0.00  0.00    +0.023 A 
ATOM     28  C   UNL     1       4.656  -1.569  23.902  0.00  0.00    +0.002 A 
ATOM     29  C   UNL     1       5.402   0.662  23.350  0.00  0.00    +0.002 A 
ATOM     30  C   UNL     1       5.682  -0.628  23.800  0.00  0.00    +0.000 A 
ENDBRANCH   5  23
ENDBRANCH  14   3
ENDBRANCH   8  14
BRANCH  10  15
ATOM     15  C   UNL     1      -5.294   3.254  25.884  0.00  0.00    +0.103 C 
BRANCH  15  19
ATOM      1  O   UNL     1      -6.423   1.749  24.362  0.00  0.00    -0.276 OA
ATOM      4  N   UNL     1      -4.587   0.992  25.568  0.00  0.00    -0.314 N 
ATOM     19  C   UNL     1      -5.522   1.939  25.175  0.00  0.00    +0.214 C 
ATOM     32  H   UNL     1      -3.872   1.251  26.244  0.00  0.00    +0.149 HD
BRANCH   4  21
ATOM     21  C   UNL     1      -4.565  -0.358  25.054  0.00  0.00    +0.119 C 
BRANCH  21  22
ATOM     22  C   UNL     1      -3.506  -1.196  25.755  0.00  0.00    +0.102 C 
BRANCH  22   6
ATOM      6  N   UNL     1      -3.255  -2.423  25.009  0.00  0.00    -0.307 NA
ATOM     24  C   UNL     1      -1.860  -2.482  24.568  0.00  0.00    +0.104 C 
ATOM     25  C   UNL     1      -4.155  -2.520  23.858  0.00  0.00    +0.104 C 
ENDBRANCH  22   6
ENDBRANCH  21  22
ENDBRANCH   4  21
ENDBRANCH  15  19
ENDBRANCH  10  15
TORSDOF 9
ENDMDL
MODEL 6
REMARK VINA RESULT:      -0.4      2.282      3.202
REMARK  Name = 38027434
REMARK  14 active torsions:
REMARK  status: ('A' for Active; 'I' for Inactive)
REMARK    1  A    between atoms: N_3  and  C_14
REMARK    2  A    between atoms: N_4  and  C_21
REMARK    3  A    between atoms: N_5  and  C_23
REMARK    4  A    between atoms: N_6  and  C_22
REMARK    5  A    between atoms: N_6  and  C_24
REMARK    6  A    between atoms: N_6  and  C_25
REMARK    7  A    between atoms: C_7  and  C_11
REMARK    8  A    between atoms: C_8  and  C_14
REMARK    9  A    between atoms: C_10  and  C_15
REMARK   10  A    between atoms: C_11  and  C_16
REMARK   11  A    between atoms: C_11  and  C_17
REMARK   12  A    between atoms: C_12  and  C_18
REMARK   13  A    between atoms: C_15  and  C_19
REMARK   14  A    between atoms: C_21  and  C_22
REMARK                            x       y       z     vdW  Elec       q    Type
REMARK                         _______ _______ _______ _____ _____    ______ ____
ROOT
ATOM      7  C   UNL     1      -2.518   1.029  24.628  0.00  0.00    +0.000 C 
ATOM      8  C   UNL     1      -2.914   1.167  23.137  0.00  0.00    +0.032 C 
ATOM      9  C   UNL     1      -3.573   1.693  25.526  0.00  0.00    +0.012 C 
ATOM     10  C   UNL     1      -3.753   3.190  25.206  0.00  0.00    +0.023 C 
ATOM     12  C   UNL     1      -3.883   3.434  23.716  0.00  0.00    -0.073 C 
ATOM     13  C   UNL     1      -3.515   2.514  22.806  0.00  0.00    -0.022 C 
ATOM     18  C   UNL     1      -4.487   4.745  23.295  0.00  0.00    +0.039 C 
ENDROOT
BRANCH   7  11
ATOM     11  C   UNL     1      -2.339  -0.436  25.035  0.00  0.00    -0.013 C 
ATOM     16  C   UNL     1      -1.130  -0.589  25.954  0.00  0.00    +0.007 C 
ATOM     17  C   UNL     1      -3.602  -0.959  25.712  0.00  0.00    +0.007 C 
ENDBRANCH   7  11
BRANCH   8  14
ATOM     14  C   UNL     1      -1.714   0.905  22.219  0.00  0.00    +0.113 C 
BRANCH  14   3
ATOM      2  O   UNL     1       0.746  -0.475  21.723  0.00  0.00    -0.253 OA
ATOM      3  N   UNL     1      -0.486   1.066  22.932  0.00  0.00    -0.299 N 
ATOM      5  N   UNL     1       1.727   0.717  23.492  0.00  0.00    -0.269 N 
ATOM     20  C   UNL     1       0.689   0.351  22.632  0.00  0.00    +0.304 C 
ATOM     31  H   UNL     1      -0.433   1.781  23.650  0.00  0.00    +0.150 HD
ATOM     33  H   UNL     1       1.510   1.420  24.194  0.00  0.00    +0.156 HD
BRANCH   5  23
ATOM     23  C   UNL     1       3.054   0.227  23.510  0.00  0.00    +0.035 A 
ATOM     26  C   UNL     1       3.297  -1.117  23.796  0.00  0.00    +0.023 A 
ATOM     27  C   UNL     1       4.118   1.086  23.239  0.00  0.00    +0.023 A 
ATOM     28  C   UNL     1       4.605  -1.600  23.813  0.00  0.00    +0.002 A 
ATOM     29  C   UNL     1       5.426   0.602  23.256  0.00  0.00    +0.002 A 
ATOM     30  C   UNL     1       5.670  -0.740  23.543  0.00  0.00    +0.000 A 
ENDBRANCH   5  23
ENDBRANCH  14   3
ENDBRANCH   8  14
BRANCH  10  15
ATOM     15  C   UNL     1      -2.614   4.023  25.802  0.00  0.00    +0.103 C 
BRANCH  15  19
ATOM      1  O   UNL     1      -0.699   3.319  24.501  0.00  0.00    -0.276 OA
ATOM      4  N   UNL     1      -0.766   2.861  26.778  0.00  0.00    -0.314 N 
ATOM     19  C   UNL     1      -1.265   3.375  25.590  0.00  0.00    +0.214 C 
ATOM     32  H   UNL     1      -1.310   2.965  27.631  0.00  0.00    +0.149 HD
BRANCH   4  21
ATOM     21  C   UNL     1       0.506   2.183  26.873  0.00  0.00    +0.119 C 
BRANCH  21  22
ATOM     22  C   UNL     1       1.534   3.042  27.592  0.00  0.00    +0.102 C 
BRANCH  22   6
ATOM      6  N   UNL     1       2.052   2.341  28.761  0.00  0.00    -0.307 NA
ATOM     24  C   UNL     1       1.153   2.511  29.905  0.00  0.00    +0.104 C 
ATOM     25  C   UNL     1       3.394   2.819  29.097  0.00  0.00    +0.104 C 
ENDBRANCH  22   6
ENDBRANCH  21  22
ENDBRANCH   4  21
ENDBRANCH  15  19
ENDBRANCH  10  15
TORSDOF 9
ENDMDL
MODEL 7
REMARK VINA RESULT:      -0.3      1.829      4.026
REMARK  Name = 38027434
REMARK  14 active torsions:
REMARK  status: ('A' for Active; 'I' for Inactive)
REMARK    1  A    between atoms: N_3  and  C_14
REMARK    2  A    between atoms: N_4  and  C_21
REMARK    3  A    between atoms: N_5  and  C_23
REMARK    4  A    between atoms: N_6  and  C_22
REMARK    5  A    between atoms: N_6  and  C_24
REMARK    6  A    between atoms: N_6  and  C_25
REMARK    7  A    between atoms: C_7  and  C_11
REMARK    8  A    between atoms: C_8  and  C_14
REMARK    9  A    between atoms: C_10  and  C_15
REMARK   10  A    between atoms: C_11  and  C_16
REMARK   11  A    between atoms: C_11  and  C_17
REMARK   12  A    between atoms: C_12  and  C_18
REMARK   13  A    between atoms: C_15  and  C_19
REMARK   14  A    between atoms: C_21  and  C_22
REMARK                            x       y       z     vdW  Elec       q    Type
REMARK                         _______ _______ _______ _____ _____    ______ ____
ROOT
ATOM      7  C   UNL     1      -2.906   2.342  23.728  0.00  0.00    +0.000 C 
ATOM      8  C   UNL     1      -2.608   3.769  24.249  0.00  0.00    +0.032 C 
ATOM      9  C   UNL     1      -4.387   2.211  23.341  0.00  0.00    +0.012 C 
ATOM     10  C   UNL     1      -5.327   2.503  24.527  0.00  0.00    +0.023 C 
ATOM     12  C   UNL     1      -4.929   3.766  25.262  0.00  0.00    -0.073 C 
ATOM     13  C   UNL     1      -3.715   4.325  25.116  0.00  0.00    -0.022 C 
ATOM     18  C   UNL     1      -5.975   4.399  26.136  0.00  0.00    +0.039 C 
ENDROOT
BRANCH   7  11
ATOM     11  C   UNL     1      -2.024   1.979  22.529  0.00  0.00    -0.013 C 
ATOM     16  C   UNL     1      -1.597   0.516  22.606  0.00  0.00    +0.007 C 
ATOM     17  C   UNL     1      -2.759   2.259  21.222  0.00  0.00    +0.007 C 
ENDBRANCH   7  11
BRANCH   8  14
ATOM     14  C   UNL     1      -1.285   3.810  25.022  0.00  0.00    +0.113 C 
BRANCH  14   3
ATOM      2  O   UNL     1       0.367   1.503  25.414  0.00  0.00    -0.253 OA
ATOM      3  N   UNL     1      -0.200   3.385  24.193  0.00  0.00    -0.299 N 
ATOM      5  N   UNL     1       1.556   2.072  23.472  0.00  0.00    -0.269 N 
ATOM     20  C   UNL     1       0.571   2.236  24.448  0.00  0.00    +0.304 C 
ATOM     31  H   UNL     1      -0.015   3.898  23.337  0.00  0.00    +0.150 HD
ATOM     33  H   UNL     1       1.590   2.774  22.736  0.00  0.00    +0.156 HD
BRANCH   5  23
ATOM     23  C   UNL     1       2.524   1.044  23.378  0.00  0.00    +0.035 A 
ATOM     26  C   UNL     1       3.871   1.367  23.213  0.00  0.00    +0.023 A 
ATOM     27  C   UNL     1       2.130  -0.291  23.453  0.00  0.00    +0.023 A 
ATOM     28  C   UNL     1       4.824   0.353  23.121  0.00  0.00    +0.002 A 
ATOM     29  C   UNL     1       3.084  -1.305  23.361  0.00  0.00    +0.002 A 
ATOM     30  C   UNL     1       4.430  -0.983  23.195  0.00  0.00    +0.000 A 
ENDBRANCH   5  23
ENDBRANCH  14   3
ENDBRANCH   8  14
BRANCH  10  15
ATOM     15  C   UNL     1      -5.395   1.308  25.485  0.00  0.00    +0.103 C 
BRANCH  15  19
ATOM      1  O   UNL     1      -3.139   0.462  25.702  0.00  0.00    -0.276 OA
ATOM      4  N   UNL     1      -4.694  -0.733  24.456  0.00  0.00    -0.314 N 
ATOM     19  C   UNL     1      -4.272   0.325  25.247  0.00  0.00    +0.214 C 
ATOM     32  H   UNL     1      -5.659  -0.759  24.135  0.00  0.00    +0.149 HD
BRANCH   4  21
ATOM     21  C   UNL     1      -3.830  -1.822  24.065  0.00  0.00    +0.119 C 
BRANCH  21  22
ATOM     22  C   UNL     1      -3.167  -2.460  25.277  0.00  0.00    +0.102 C 
BRANCH  22   6
ATOM      6  N   UNL     1      -1.763  -2.737  24.999  0.00  0.00    -0.307 NA
ATOM     24  C   UNL     1      -0.917  -1.640  25.476  0.00  0.00    +0.104 C 
ATOM     25  C   UNL     1      -1.552  -2.952  23.567  0.00  0.00    +0.104 C 
ENDBRANCH  22   6
ENDBRANCH  21  22
ENDBRANCH   4  21
ENDBRANCH  15  19
ENDBRANCH  10  15
TORSDOF 9
ENDMDL
MODEL 8
REMARK VINA RESULT:      -0.3      2.513      5.283
REMARK  Name = 38027434
REMARK  14 active torsions:
REMARK  status: ('A' for Active; 'I' for Inactive)
REMARK    1  A    between atoms: N_3  and  C_14
REMARK    2  A    between atoms: N_4  and  C_21
REMARK    3  A    between atoms: N_5  and  C_23
REMARK    4  A    between atoms: N_6  and  C_22
REMARK    5  A    between atoms: N_6  and  C_24
REMARK    6  A    between atoms: N_6  and  C_25
REMARK    7  A    between atoms: C_7  and  C_11
REMARK    8  A    between atoms: C_8  and  C_14
REMARK    9  A    between atoms: C_10  and  C_15
REMARK   10  A    between atoms: C_11  and  C_16
REMARK   11  A    between atoms: C_11  and  C_17
REMARK   12  A    between atoms: C_12  and  C_18
REMARK   13  A    between atoms: C_15  and  C_19
REMARK   14  A    between atoms: C_21  and  C_22
REMARK                            x       y       z     vdW  Elec       q    Type
REMARK                         _______ _______ _______ _____ _____    ______ ____
ROOT
ATOM      7  C   UNL     1      -3.096   1.818  23.495  0.00  0.00    +0.000 C 
ATOM      8  C   UNL     1      -3.935   3.038  23.950  0.00  0.00    +0.032 C 
ATOM      9  C   UNL     1      -3.973   0.559  23.429  0.00  0.00    +0.012 C 
ATOM     10  C   UNL     1      -4.619   0.226  24.788  0.00  0.00    +0.023 C 
ATOM     12  C   UNL     1      -5.241   1.451  25.429  0.00  0.00    -0.073 C 
ATOM     13  C   UNL     1      -4.933   2.698  25.033  0.00  0.00    -0.022 C 
ATOM     18  C   UNL     1      -6.259   1.206  26.508  0.00  0.00    +0.039 C 
ENDROOT
BRANCH   7  11
ATOM     11  C   UNL     1      -2.432   2.060  22.136  0.00  0.00    -0.013 C 
ATOM     16  C   UNL     1      -2.201   0.736  21.414  0.00  0.00    +0.007 C 
ATOM     17  C   UNL     1      -3.285   2.997  21.286  0.00  0.00    +0.007 C 
ENDBRANCH   7  11
BRANCH   8  14
ATOM     14  C   UNL     1      -3.034   4.183  24.426  0.00  0.00    +0.113 C 
BRANCH  14   3
ATOM      2  O   UNL     1      -2.093   3.963  27.122  0.00  0.00    -0.253 OA
ATOM      3  N   UNL     1      -1.762   3.685  24.849  0.00  0.00    -0.299 N 
ATOM      5  N   UNL     1      -0.077   3.080  26.306  0.00  0.00    -0.269 N 
ATOM     20  C   UNL     1      -1.367   3.606  26.197  0.00  0.00    +0.304 C 
ATOM     31  H   UNL     1      -1.134   3.305  24.149  0.00  0.00    +0.150 HD
ATOM     33  H   UNL     1       0.390   2.835  25.436  0.00  0.00    +0.156 HD
BRANCH   5  23
ATOM     23  C   UNL     1       0.669   2.845  27.485  0.00  0.00    +0.035 A 
ATOM     26  C   UNL     1       2.045   3.069  27.496  0.00  0.00    +0.023 A 
ATOM     27  C   UNL     1       0.027   2.392  28.637  0.00  0.00    +0.023 A 
ATOM     28  C   UNL     1       2.780   2.838  28.659  0.00  0.00    +0.002 A 
ATOM     29  C   UNL     1       0.762   2.161  29.799  0.00  0.00    +0.002 A 
ATOM     30  C   UNL     1       2.138   2.384  29.811  0.00  0.00    +0.000 A 
ENDBRANCH   5  23
ENDBRANCH  14   3
ENDBRANCH   8  14
BRANCH  10  15
ATOM     15  C   UNL     1      -3.611  -0.436  25.732  0.00  0.00    +0.103 C 
BRANCH  15  19
ATOM      1  O   UNL     1      -2.665  -2.275  24.476  0.00  0.00    -0.276 OA
ATOM      4  N   UNL     1      -1.355  -0.413  24.941  0.00  0.00    -0.314 N 
ATOM     19  C   UNL     1      -2.521  -1.164  24.980  0.00  0.00    +0.214 C 
ATOM     32  H   UNL     1      -1.339   0.503  25.383  0.00  0.00    +0.149 HD
BRANCH   4  21
ATOM     21  C   UNL     1      -0.147  -0.862  24.288  0.00  0.00    +0.119 C 
BRANCH  21  22
ATOM     22  C   UNL     1       0.577   0.293  23.613  0.00  0.00    +0.102 C 
BRANCH  22   6
ATOM      6  N   UNL     1       1.725  -0.198  22.862  0.00  0.00    -0.307 NA
ATOM     24  C   UNL     1       2.827   0.765  22.916  0.00  0.00    +0.104 C 
ATOM     25  C   UNL     1       1.356  -0.466  21.471  0.00  0.00    +0.104 C 
ENDBRANCH  22   6
ENDBRANCH  21  22
ENDBRANCH   4  21
ENDBRANCH  15  19
ENDBRANCH  10  15
TORSDOF 9
ENDMDL
MODEL 9
REMARK VINA RESULT:      -0.2      1.546      3.233
REMARK  Name = 38027434
REMARK  14 active torsions:
REMARK  status: ('A' for Active; 'I' for Inactive)
REMARK    1  A    between atoms: N_3  and  C_14
REMARK    2  A    between atoms: N_4  and  C_21
REMARK    3  A    between atoms: N_5  and  C_23
REMARK    4  A    between atoms: N_6  and  C_22
REMARK    5  A    between atoms: N_6  and  C_24
REMARK    6  A    between atoms: N_6  and  C_25
REMARK    7  A    between atoms: C_7  and  C_11
REMARK    8  A    between atoms: C_8  and  C_14
REMARK    9  A    between atoms: C_10  and  C_15
REMARK   10  A    between atoms: C_11  and  C_16
REMARK   11  A    between atoms: C_11  and  C_17
REMARK   12  A    between atoms: C_12  and  C_18
REMARK   13  A    between atoms: C_15  and  C_19
REMARK   14  A    between atoms: C_21  and  C_22
REMARK                            x       y       z     vdW  Elec       q    Type
REMARK                         _______ _______ _______ _____ _____    ______ ____
ROOT
ATOM      7  C   UNL     1      -2.215   1.116  24.589  0.00  0.00    +0.000 C 
ATOM      8  C   UNL     1      -1.468   0.013  23.800  0.00  0.00    +0.032 C 
ATOM      9  C   UNL     1      -2.917   0.514  25.816  0.00  0.00    +0.012 C 
ATOM     10  C   UNL     1      -3.931  -0.580  25.430  0.00  0.00    +0.023 C 
ATOM     12  C   UNL     1      -3.346  -1.563  24.436  0.00  0.00    -0.073 C 
ATOM     13  C   UNL     1      -2.237  -1.286  23.726  0.00  0.00    -0.022 C 
ATOM     18  C   UNL     1      -4.039  -2.890  24.309  0.00  0.00    +0.039 C 
ENDROOT
BRANCH   7  11
ATOM     11  C   UNL     1      -1.270   2.238  25.031  0.00  0.00    -0.013 C 
ATOM     16  C   UNL     1      -0.171   1.684  25.932  0.00  0.00    +0.007 C 
ATOM     17  C   UNL     1      -0.671   2.939  23.816  0.00  0.00    +0.007 C 
ENDBRANCH   7  11
BRANCH   8  14
ATOM     14  C   UNL     1      -1.125   0.484  22.382  0.00  0.00    +0.113 C 
BRANCH  14   3
ATOM      2  O   UNL     1       0.978  -0.854  23.792  0.00  0.00    -0.253 OA
ATOM      3  N   UNL     1       0.278   0.727  22.254  0.00  0.00    -0.299 N 
ATOM      5  N   UNL     1       2.539   0.477  22.651  0.00  0.00    -0.269 N 
ATOM     20  C   UNL     1       1.258   0.028  22.982  0.00  0.00    +0.304 C 
ATOM     31  H   UNL     1       0.593   1.391  21.554  0.00  0.00    +0.150 HD
ATOM     33  H   UNL     1       2.596   1.220  21.958  0.00  0.00    +0.156 HD
BRANCH   5  23
ATOM     23  C   UNL     1       3.778   0.026  23.163  0.00  0.00    +0.035 A 
ATOM     26  C   UNL     1       3.917  -1.296  23.588  0.00  0.00    +0.023 A 
ATOM     27  C   UNL     1       4.860   0.901  23.242  0.00  0.00    +0.023 A 
ATOM     28  C   UNL     1       5.139  -1.741  24.093  0.00  0.00    +0.002 A 
ATOM     29  C   UNL     1       6.081   0.456  23.747  0.00  0.00    +0.002 A 
ATOM     30  C   UNL     1       6.221  -0.864  24.172  0.00  0.00    +0.000 A 
ENDBRANCH   5  23
ENDBRANCH  14   3
ENDBRANCH   8  14
BRANCH  10  15
ATOM     15  C   UNL     1      -5.229   0.034  24.896  0.00  0.00    +0.103 C 
BRANCH  15  19
ATOM      1  O   UNL     1      -6.104   1.573  26.545  0.00  0.00    -0.276 OA
ATOM      4  N   UNL     1      -4.980   2.402  24.689  0.00  0.00    -0.314 N 
ATOM     19  C   UNL     1      -5.500   1.397  25.491  0.00  0.00    +0.214 C 
ATOM     32  H   UNL     1      -4.487   2.152  23.836  0.00  0.00    +0.149 HD
BRANCH   4  21
ATOM     21  C   UNL     1      -5.092   3.806  25.010  0.00  0.00    +0.119 C 
BRANCH  21  22
ATOM     22  C   UNL     1      -3.881   4.583  24.515  0.00  0.00    +0.102 C 
BRANCH  22   6
ATOM      6  N   UNL     1      -3.126   5.116  25.642  0.00  0.00    -0.307 NA
ATOM     24  C   UNL     1      -1.766   5.472  25.230  0.00  0.00    +0.104 C 
ATOM     25  C   UNL     1      -3.085   4.149  26.741  0.00  0.00    +0.104 C 
ENDBRANCH  22   6
ENDBRANCH  21  22
ENDBRANCH   4  21
ENDBRANCH  15  19
ENDBRANCH  10  15
TORSDOF 9
ENDMDL
MODEL 10
REMARK VINA RESULT:       1.2      1.941      6.843
REMARK  Name = 38027434
REMARK  14 active torsions:
REMARK  status: ('A' for Active; 'I' for Inactive)
REMARK    1  A    between atoms: N_3  and  C_14
REMARK    2  A    between atoms: N_4  and  C_21
REMARK    3  A    between atoms: N_5  and  C_23
REMARK    4  A    between atoms: N_6  and  C_22
REMARK    5  A    between atoms: N_6  and  C_24
REMARK    6  A    between atoms: N_6  and  C_25
REMARK    7  A    between atoms: C_7  and  C_11
REMARK    8  A    between atoms: C_8  and  C_14
REMARK    9  A    between atoms: C_10  and  C_15
REMARK   10  A    between atoms: C_11  and  C_16
REMARK   11  A    between atoms: C_11  and  C_17
REMARK   12  A    between atoms: C_12  and  C_18
REMARK   13  A    between atoms: C_15  and  C_19
REMARK   14  A    between atoms: C_21  and  C_22
REMARK                            x       y       z     vdW  Elec       q    Type
REMARK                         _______ _______ _______ _____ _____    ______ ____
ROOT
ATOM      7  C   UNL     1      -2.455  -1.656  24.238  0.00  0.00    +0.000 C 
ATOM      8  C   UNL     1      -2.992  -1.041  25.554  0.00  0.00    +0.032 C 
ATOM      9  C   UNL     1      -0.933  -1.845  24.317  0.00  0.00    +0.012 C 
ATOM     10  C   UNL     1      -0.193  -0.518  24.572  0.00  0.00    +0.023 C 
ATOM     12  C   UNL     1      -0.835   0.278  25.690  0.00  0.00    -0.073 C 
ATOM     13  C   UNL     1      -2.081   0.021  26.125  0.00  0.00    -0.022 C 
ATOM     18  C   UNL     1       0.007   1.347  26.329  0.00  0.00    +0.039 C 
ENDROOT
BRANCH   7  11
ATOM     11  C   UNL     1      -3.128  -2.995  23.920  0.00  0.00    -0.013 C 
ATOM     16  C   UNL     1      -3.341  -3.800  25.199  0.00  0.00    +0.007 C 
ATOM     17  C   UNL     1      -4.453  -2.768  23.198  0.00  0.00    +0.007 C 
ENDBRANCH   7  11
BRANCH   8  14
ATOM     14  C   UNL     1      -4.397  -0.458  25.360  0.00  0.00    +0.113 C 
BRANCH  14   3
ATOM      2  O   UNL     1      -3.047   1.568  23.850  0.00  0.00    -0.253 OA
ATOM      3  N   UNL     1      -4.403   0.947  25.621  0.00  0.00    -0.299 N 
ATOM      5  N   UNL     1      -3.902   3.182  25.325  0.00  0.00    -0.269 N 
ATOM     20  C   UNL     1      -3.714   1.888  24.833  0.00  0.00    +0.304 C 
ATOM     31  H   UNL     1      -4.987   1.298  26.372  0.00  0.00    +0.150 HD
ATOM     33  H   UNL     1      -4.485   3.274  26.154  0.00  0.00    +0.156 HD
BRANCH   5  23
ATOM     23  C   UNL     1      -3.377   4.391  24.813  0.00  0.00    +0.035 A 
ATOM     26  C   UNL     1      -2.166   4.887  25.296  0.00  0.00    +0.023 A 
ATOM     27  C   UNL     1      -4.070   5.088  23.823  0.00  0.00    +0.023 A 
ATOM     28  C   UNL     1      -1.648   6.079  24.791  0.00  0.00    +0.002 A 
ATOM     29  C   UNL     1      -3.552   6.280  23.318  0.00  0.00    +0.002 A 
ATOM     30  C   UNL     1      -2.342   6.776  23.801  0.00  0.00    +0.000 A 
ENDBRANCH   5  23
ENDBRANCH  14   3
ENDBRANCH   8  14
BRANCH  10  15
ATOM     15  C   UNL     1      -0.097   0.316  23.290  0.00  0.00    +0.103 C 
BRANCH  15  19
ATOM      1  O   UNL     1       1.138  -0.724  21.488  0.00  0.00    -0.276 OA
ATOM      4  N   UNL     1       2.264   0.592  23.037  0.00  0.00    -0.314 N 
ATOM     19  C   UNL     1       1.142  -0.012  22.489  0.00  0.00    +0.214 C 
ATOM     32  H   UNL     1       2.161   1.172  23.866  0.00  0.00    +0.149 HD
BRANCH   4  21
ATOM     21  C   UNL     1       3.589   0.450  22.480  0.00  0.00    +0.119 C 
BRANCH  21  22
ATOM     22  C   UNL     1       4.654   0.884  23.476  0.00  0.00    +0.102 C 
BRANCH  22   6
ATOM      6  N   UNL     1       5.426  -0.268  23.926  0.00  0.00    -0.307 NA
ATOM     24  C   UNL     1       6.625  -0.439  23.102  0.00  0.00    +0.104 C 
ATOM     25  C   UNL     1       4.610  -1.482  23.891  0.00  0.00    +0.104 C 
ENDBRANCH  22   6
ENDBRANCH  21  22
ENDBRANCH   4  21
ENDBRANCH  15  19
ENDBRANCH  10  15
TORSDOF 9
ENDMDL
