MODEL 1
REMARK VINA RESULT:       5.7      0.000      0.000
REMARK  Name = 11912436
REMARK  7 active torsions:
REMARK  status: ('A' for Active; 'I' for Inactive)
REMARK    1  A    between atoms: O_6  and  C_29
REMARK    2  A    between atoms: O_7  and  C_32
REMARK    3  A    between atoms: O_7  and  C_33
REMARK    4  A    between atoms: N_8  and  C_17
REMARK    5  A    between atoms: C_17  and  C_22
REMARK    6  A    between atoms: C_20  and  C_23
REMARK    7  A    between atoms: C_25  and  C_29
REMARK                            x       y       z     vdW  Elec       q    Type
REMARK                         _______ _______ _______ _____ _____    ______ ____
ROOT
ATOM      4  O   UNL     1       0.504   2.264  25.662  0.00  0.00    -0.267 OA
ATOM      8  N   UNL     1      -4.457   1.658  25.243  0.00  0.00    -0.294 NA
ATOM      9  N   UNL     1      -1.545   2.850  24.717  0.00  0.00    -0.311 N 
ATOM     10  C   UNL     1      -3.483   3.806  26.095  0.00  0.00    +0.024 C 
ATOM     11  C   UNL     1      -3.753   3.479  23.683  0.00  0.00    +0.050 C 
ATOM     12  C   UNL     1      -3.861   4.514  24.800  0.00  0.00    +0.017 C 
ATOM     13  C   UNL     1      -4.440   2.623  26.349  0.00  0.00    +0.090 C 
ATOM     14  C   UNL     1      -4.736   2.318  23.958  0.00  0.00    +0.094 C 
ATOM     15  C   UNL     1      -2.015   3.369  26.010  0.00  0.00    +0.130 C 
ATOM     16  C   UNL     1      -2.333   2.956  23.567  0.00  0.00    +0.026 A 
ATOM     18  C   UNL     1      -1.841   2.579  22.377  0.00  0.00    +0.022 A 
ATOM     19  C   UNL     1      -0.232   2.342  24.677  0.00  0.00    +0.259 A 
ATOM     20  C   UNL     1       0.280   1.896  23.334  0.00  0.00    +0.047 A 
ATOM     21  C   UNL     1      -0.517   2.037  22.264  0.00  0.00    +0.015 A 
ENDROOT
BRANCH  20  23
ATOM     23  C   UNL     1       1.622   1.307  23.185  0.00  0.00    -0.012 A 
ATOM     27  C   UNL     1       2.721   2.127  22.930  0.00  0.00    +0.012 A 
ATOM     28  C   UNL     1       1.795  -0.074  23.299  0.00  0.00    +0.012 A 
ATOM     30  C   UNL     1       3.992   1.569  22.790  0.00  0.00    +0.046 A 
ATOM     31  C   UNL     1       3.065  -0.632  23.158  0.00  0.00    +0.046 A 
ATOM     32  C   UNL     1       4.164   0.190  22.904  0.00  0.00    +0.130 A 
BRANCH  32   7
ATOM      7  O   UNL     1       5.404  -0.354  22.767  0.00  0.00    -0.406 OA
BRANCH   7  33
ATOM      1  F   UNL     1       6.093   0.907  24.507  0.00  0.00    -0.133 F 
ATOM      2  F   UNL     1       6.097  -1.265  24.747  0.00  0.00    -0.133 F 
ATOM      3  F   UNL     1       7.587  -0.282  23.445  0.00  0.00    -0.133 F 
ATOM     33  C   UNL     1       6.305  -0.264  23.865  0.00  0.00    +0.575 C 
ENDBRANCH   7  33
ENDBRANCH  32   7
ENDBRANCH  20  23
BRANCH   8  17
ATOM     17  C   UNL     1      -5.412   0.584  25.498  0.00  0.00    +0.158 C 
BRANCH  17  22
ATOM      5  O   UNL     1      -3.707  -1.106  25.369  0.00  0.00    -0.461 OA
ATOM     22  C   UNL     1      -4.920  -0.723  24.936  0.00  0.00    +0.119 A 
ATOM     24  C   UNL     1      -5.471  -1.599  24.065  0.00  0.00    +0.046 A 
ATOM     25  C   UNL     1      -3.461  -2.289  24.748  0.00  0.00    +0.131 A 
ATOM     26  C   UNL     1      -4.516  -2.636  23.936  0.00  0.00    +0.047 A 
BRANCH  25  29
ATOM     29  C   UNL     1      -2.175  -2.930  25.056  0.00  0.00    +0.230 C 
BRANCH  29   6
ATOM      6  O   UNL     1      -1.153  -1.936  24.971  0.00  0.00    -0.387 OA
ATOM     34  H   UNL     1      -0.300  -2.404  25.001  0.00  0.00    +0.210 HD
ENDBRANCH  29   6
ENDBRANCH  25  29
ENDBRANCH  17  22
ENDBRANCH   8  17
TORSDOF 7
ENDMDL
MODEL 2
REMARK VINA RESULT:       7.0      1.786      4.093
REMARK  Name = 11912436
REMARK  7 active torsions:
REMARK  status: ('A' for Active; 'I' for Inactive)
REMARK    1  A    between atoms: O_6  and  C_29
REMARK    2  A    between atoms: O_7  and  C_32
REMARK    3  A    between atoms: O_7  and  C_33
REMARK    4  A    between atoms: N_8  and  C_17
REMARK    5  A    between atoms: C_17  and  C_22
REMARK    6  A    between atoms: C_20  and  C_23
REMARK    7  A    between atoms: C_25  and  C_29
REMARK                            x       y       z     vdW  Elec       q    Type
REMARK                         _______ _______ _______ _____ _____    ______ ____
ROOT
ATOM      4  O   UNL     1      -0.547   0.163  22.089  0.00  0.00    -0.267 OA
ATOM      8  N   UNL     1      -4.224   1.346  25.287  0.00  0.00    -0.294 NA
ATOM      9  N   UNL     1      -2.108  -0.446  23.710  0.00  0.00    -0.311 N 
ATOM     10  C   UNL     1      -4.635  -0.203  23.359  0.00  0.00    +0.024 C 
ATOM     11  C   UNL     1      -3.783  -1.107  25.469  0.00  0.00    +0.050 C 
ATOM     12  C   UNL     1      -4.732  -1.391  24.308  0.00  0.00    +0.017 C 
ATOM     13  C   UNL     1      -5.038   1.094  24.092  0.00  0.00    +0.090 C 
ATOM     14  C   UNL     1      -4.224   0.186  26.192  0.00  0.00    +0.094 C 
ATOM     15  C   UNL     1      -3.212  -0.141  22.788  0.00  0.00    +0.130 C 
ATOM     16  C   UNL     1      -2.353  -0.979  24.978  0.00  0.00    +0.026 A 
ATOM     18  C   UNL     1      -1.329  -1.355  25.760  0.00  0.00    +0.022 A 
ATOM     19  C   UNL     1      -0.801  -0.272  23.212  0.00  0.00    +0.259 A 
ATOM     20  C   UNL     1       0.327  -0.672  24.125  0.00  0.00    +0.047 A 
ATOM     21  C   UNL     1       0.030  -1.193  25.325  0.00  0.00    +0.015 A 
ENDROOT
BRANCH  20  23
ATOM     23  C   UNL     1       1.733  -0.491  23.724  0.00  0.00    -0.012 A 
ATOM     27  C   UNL     1       2.146   0.708  23.143  0.00  0.00    +0.012 A 
ATOM     28  C   UNL     1       2.654  -1.520  23.926  0.00  0.00    +0.012 A 
ATOM     30  C   UNL     1       3.477   0.879  22.764  0.00  0.00    +0.046 A 
ATOM     31  C   UNL     1       3.986  -1.349  23.547  0.00  0.00    +0.046 A 
ATOM     32  C   UNL     1       4.397  -0.149  22.966  0.00  0.00    +0.130 A 
BRANCH  32   7
ATOM      7  O   UNL     1       5.696   0.018  22.596  0.00  0.00    -0.406 OA
BRANCH   7  33
ATOM      1  F   UNL     1       6.554   1.303  24.241  0.00  0.00    -0.133 F 
ATOM      2  F   UNL     1       6.515  -0.861  24.542  0.00  0.00    -0.133 F 
ATOM      3  F   UNL     1       7.927   0.041  23.101  0.00  0.00    -0.133 F 
ATOM     33  C   UNL     1       6.682   0.110  23.618  0.00  0.00    +0.575 C 
ENDBRANCH   7  33
ENDBRANCH  32   7
ENDBRANCH  20  23
BRANCH   8  17
ATOM     17  C   UNL     1      -4.670   2.551  25.980  0.00  0.00    +0.158 C 
BRANCH  17  22
ATOM      5  O   UNL     1      -2.498   3.301  25.274  0.00  0.00    -0.461 OA
ATOM     22  C   UNL     1      -3.665   3.662  25.834  0.00  0.00    +0.119 A 
ATOM     24  C   UNL     1      -3.710   4.973  26.163  0.00  0.00    +0.046 A 
ATOM     25  C   UNL     1      -1.751   4.435  25.239  0.00  0.00    +0.131 A 
ATOM     26  C   UNL     1      -2.452   5.492  25.773  0.00  0.00    +0.047 A 
BRANCH  25  29
ATOM     29  C   UNL     1      -0.405   4.309  24.663  0.00  0.00    +0.230 C 
BRANCH  29   6
ATOM      6  O   UNL     1      -0.209   2.945  24.288  0.00  0.00    -0.387 OA
ATOM     34  H   UNL     1      -1.087   2.524  24.285  0.00  0.00    +0.210 HD
ENDBRANCH  29   6
ENDBRANCH  25  29
ENDBRANCH  17  22
ENDBRANCH   8  17
TORSDOF 7
ENDMDL
