MODEL 1
REMARK VINA RESULT:       3.3      0.000      0.000
REMARK  Name = 9424526
REMARK  3 active torsions:
REMARK  status: ('A' for Active; 'I' for Inactive)
REMARK    1  A    between atoms: S_1  and  N_6
REMARK    2  A    between atoms: S_1  and  C_19
REMARK    3  A    between atoms: C_15  and  C_20
REMARK                            x       y       z     vdW  Elec       q    Type
REMARK                         _______ _______ _______ _____ _____    ______ ____
ROOT
ATOM      5  O   UNL     1      -2.032   5.819  25.755  0.00  0.00    -0.268 OA
ATOM      6  N   UNL     1      -4.296   1.738  24.097  0.00  0.00    -0.176 NA
ATOM      7  N   UNL     1      -2.092   3.978  24.308  0.00  0.00    -0.311 N 
ATOM      8  C   UNL     1      -3.967   3.687  22.582  0.00  0.00    +0.025 C 
ATOM      9  C   UNL     1      -2.204   1.990  22.773  0.00  0.00    +0.053 C 
ATOM     10  C   UNL     1      -2.923   2.915  21.794  0.00  0.00    +0.017 C 
ATOM     11  C   UNL     1      -4.983   2.732  23.226  0.00  0.00    +0.114 C 
ATOM     12  C   UNL     1      -3.217   0.999  23.379  0.00  0.00    +0.119 C 
ATOM     13  C   UNL     1      -3.253   4.559  23.617  0.00  0.00    +0.130 C 
ATOM     14  C   UNL     1      -1.492   2.779  23.875  0.00  0.00    +0.034 A 
ATOM     15  C   UNL     1      -0.335   2.357  24.450  0.00  0.00    +0.005 A 
ATOM     16  C   UNL     1      -1.557   4.758  25.348  0.00  0.00    +0.252 A 
ATOM     17  C   UNL     1       0.244   3.133  25.529  0.00  0.00    +0.015 A 
ATOM     18  C   UNL     1      -0.316   4.256  25.979  0.00  0.00    +0.071 A 
ENDROOT
BRANCH  15  20
ATOM      2  F   UNL     1      -1.109  -0.203  25.360  0.00  0.00    -0.205 F 
ATOM     20  C   UNL     1       0.343   1.115  24.015  0.00  0.00    +0.019 A 
ATOM     23  C   UNL     1      -0.086  -0.117  24.498  0.00  0.00    +0.131 A 
ATOM     24  C   UNL     1       1.408   1.192  23.122  0.00  0.00    +0.011 A 
ATOM     27  C   UNL     1       0.557  -1.285  24.084  0.00  0.00    +0.039 A 
ATOM     28  C   UNL     1       2.050   0.026  22.707  0.00  0.00    +0.001 A 
ATOM     30  C   UNL     1       1.625  -1.213  23.188  0.00  0.00    +0.003 A 
ENDBRANCH  15  20
BRANCH   6   1
ATOM      1  S   UNL     1      -5.317   0.784  25.083  0.00  0.00    +0.061 S 
ATOM      3  O   UNL     1      -6.597   0.625  24.426  0.00  0.00    -0.153 OA
ATOM      4  O   UNL     1      -5.234   1.259  26.448  0.00  0.00    -0.153 OA
BRANCH   1  19
ATOM     19  C   UNL     1      -4.472  -0.765  24.996  0.00  0.00    +0.105 A 
ATOM     21  C   UNL     1      -3.710  -1.184  26.074  0.00  0.00    +0.028 A 
ATOM     22  C   UNL     1      -4.585  -1.535  23.849  0.00  0.00    +0.028 A 
ATOM     25  C   UNL     1      -3.043  -2.406  26.005  0.00  0.00    +0.002 A 
ATOM     26  C   UNL     1      -3.917  -2.758  23.780  0.00  0.00    +0.002 A 
ATOM     29  C   UNL     1      -3.145  -3.193  24.858  0.00  0.00    +0.000 A 
ENDBRANCH   1  19
ENDBRANCH   6   1
TORSDOF 3
ENDMDL
MODEL 2
REMARK VINA RESULT:       5.9      2.355      4.328
REMARK  Name = 9424526
REMARK  3 active torsions:
REMARK  status: ('A' for Active; 'I' for Inactive)
REMARK    1  A    between atoms: S_1  and  N_6
REMARK    2  A    between atoms: S_1  and  C_19
REMARK    3  A    between atoms: C_15  and  C_20
REMARK                            x       y       z     vdW  Elec       q    Type
REMARK                         _______ _______ _______ _____ _____    ______ ____
ROOT
ATOM      5  O   UNL     1       1.027   2.348  27.891  0.00  0.00    -0.268 OA
ATOM      6  N   UNL     1      -2.370   3.611  24.515  0.00  0.00    -0.176 NA
ATOM      7  N   UNL     1      -0.122   1.894  25.901  0.00  0.00    -0.311 N 
ATOM      8  C   UNL     1       0.032   3.459  23.874  0.00  0.00    +0.025 C 
ATOM      9  C   UNL     1      -1.380   1.453  23.770  0.00  0.00    +0.053 C 
ATOM     10  C   UNL     1      -0.250   2.202  23.068  0.00  0.00    +0.017 C 
ATOM     11  C   UNL     1      -1.213   4.355  23.943  0.00  0.00    +0.114 C 
ATOM     12  C   UNL     1      -2.643   2.336  23.791  0.00  0.00    +0.119 C 
ATOM     13  C   UNL     1       0.528   3.047  25.262  0.00  0.00    +0.130 C 
ATOM     14  C   UNL     1      -0.985   1.037  25.189  0.00  0.00    +0.034 A 
ATOM     15  C   UNL     1      -1.447  -0.097  25.777  0.00  0.00    +0.005 A 
ATOM     16  C   UNL     1       0.266   1.642  27.229  0.00  0.00    +0.252 A 
ATOM     17  C   UNL     1      -1.070  -0.389  27.147  0.00  0.00    +0.015 A 
ATOM     18  C   UNL     1      -0.280   0.417  27.855  0.00  0.00    +0.071 A 
ENDROOT
BRANCH  15  20
ATOM      2  F   UNL     1      -0.635  -2.697  25.032  0.00  0.00    -0.205 F 
ATOM     20  C   UNL     1      -2.337  -1.038  25.063  0.00  0.00    +0.019 A 
ATOM     23  C   UNL     1      -1.880  -2.308  24.723  0.00  0.00    +0.131 A 
ATOM     24  C   UNL     1      -3.632  -0.643  24.736  0.00  0.00    +0.011 A 
ATOM     27  C   UNL     1      -2.725  -3.191  24.049  0.00  0.00    +0.039 A 
ATOM     28  C   UNL     1      -4.476  -1.526  24.064  0.00  0.00    +0.001 A 
ATOM     30  C   UNL     1      -4.023  -2.800  23.720  0.00  0.00    +0.003 A 
ENDBRANCH  15  20
BRANCH   6   1
ATOM      1  S   UNL     1      -3.745   4.554  24.898  0.00  0.00    +0.061 S 
ATOM      3  O   UNL     1      -4.217   5.211  23.696  0.00  0.00    -0.153 OA
ATOM      4  O   UNL     1      -3.479   5.309  26.104  0.00  0.00    -0.153 OA
BRANCH   1  19
ATOM     19  C   UNL     1      -4.895   3.276  25.300  0.00  0.00    +0.105 A 
ATOM     21  C   UNL     1      -5.476   2.541  24.279  0.00  0.00    +0.028 A 
ATOM     22  C   UNL     1      -5.198   3.029  26.629  0.00  0.00    +0.028 A 
ATOM     25  C   UNL     1      -6.385   1.532  24.596  0.00  0.00    +0.002 A 
ATOM     26  C   UNL     1      -6.107   2.020  26.946  0.00  0.00    +0.002 A 
ATOM     29  C   UNL     1      -6.701   1.272  25.929  0.00  0.00    +0.000 A 
ENDBRANCH   1  19
ENDBRANCH   6   1
TORSDOF 3
ENDMDL
MODEL 3
REMARK VINA RESULT:       6.8      2.927      5.920
REMARK  Name = 9424526
REMARK  3 active torsions:
REMARK  status: ('A' for Active; 'I' for Inactive)
REMARK    1  A    between atoms: S_1  and  N_6
REMARK    2  A    between atoms: S_1  and  C_19
REMARK    3  A    between atoms: C_15  and  C_20
REMARK                            x       y       z     vdW  Elec       q    Type
REMARK                         _______ _______ _______ _____ _____    ______ ____
ROOT
ATOM      5  O   UNL     1      -2.629   4.758  24.616  0.00  0.00    -0.268 OA
ATOM      6  N   UNL     1       0.751   1.186  24.030  0.00  0.00    -0.176 NA
ATOM      7  N   UNL     1      -1.842   2.609  25.113  0.00  0.00    -0.311 N 
ATOM      8  C   UNL     1       0.421   2.239  26.263  0.00  0.00    +0.025 C 
ATOM      9  C   UNL     1      -0.955   0.312  25.617  0.00  0.00    +0.053 C 
ATOM     10  C   UNL     1      -0.218   0.964  26.785  0.00  0.00    +0.017 C 
ATOM     11  C   UNL     1       1.417   1.931  25.136  0.00  0.00    +0.114 C 
ATOM     12  C   UNL     1       0.055  -0.044  24.509  0.00  0.00    +0.119 C 
ATOM     13  C   UNL     1      -0.689   3.193  25.813  0.00  0.00    +0.130 C 
ATOM     14  C   UNL     1      -2.062   1.218  25.072  0.00  0.00    +0.034 A 
ATOM     15  C   UNL     1      -3.215   0.731  24.542  0.00  0.00    +0.005 A 
ATOM     16  C   UNL     1      -2.764   3.535  24.594  0.00  0.00    +0.252 A 
ATOM     17  C   UNL     1      -4.188   1.656  23.993  0.00  0.00    +0.015 A 
ATOM     18  C   UNL     1      -3.995   2.974  23.992  0.00  0.00    +0.071 A 
ENDROOT
BRANCH  15  20
ATOM      2  F   UNL     1      -2.837  -0.968  26.766  0.00  0.00    -0.205 F 
ATOM     20  C   UNL     1      -3.499  -0.720  24.496  0.00  0.00    +0.019 A 
ATOM     23  C   UNL     1      -3.294  -1.506  25.627  0.00  0.00    +0.131 A 
ATOM     24  C   UNL     1      -3.973  -1.289  23.317  0.00  0.00    +0.011 A 
ATOM     27  C   UNL     1      -3.564  -2.874  25.577  0.00  0.00    +0.039 A 
ATOM     28  C   UNL     1      -4.244  -2.657  23.268  0.00  0.00    +0.001 A 
ATOM     30  C   UNL     1      -4.040  -3.449  24.398  0.00  0.00    +0.003 A 
ENDBRANCH  15  20
BRANCH   6   1
ATOM      1  S   UNL     1       1.667   1.008  22.597  0.00  0.00    +0.061 S 
ATOM      3  O   UNL     1       2.060   2.318  22.121  0.00  0.00    -0.153 OA
ATOM      4  O   UNL     1       0.999   0.068  21.723  0.00  0.00    -0.153 OA
BRANCH   1  19
ATOM     19  C   UNL     1       3.107   0.218  23.246  0.00  0.00    +0.105 A 
ATOM     21  C   UNL     1       4.260   0.962  23.439  0.00  0.00    +0.028 A 
ATOM     22  C   UNL     1       3.061  -1.133  23.550  0.00  0.00    +0.028 A 
ATOM     25  C   UNL     1       5.397   0.338  23.951  0.00  0.00    +0.002 A 
ATOM     26  C   UNL     1       4.198  -1.757  24.062  0.00  0.00    +0.002 A 
ATOM     29  C   UNL     1       5.367  -1.021  24.262  0.00  0.00    +0.000 A 
ENDBRANCH   1  19
ENDBRANCH   6   1
TORSDOF 3
ENDMDL
MODEL 4
REMARK VINA RESULT:       6.9      3.066      5.262
REMARK  Name = 9424526
REMARK  3 active torsions:
REMARK  status: ('A' for Active; 'I' for Inactive)
REMARK    1  A    between atoms: S_1  and  N_6
REMARK    2  A    between atoms: S_1  and  C_19
REMARK    3  A    between atoms: C_15  and  C_20
REMARK                            x       y       z     vdW  Elec       q    Type
REMARK                         _______ _______ _______ _____ _____    ______ ____
ROOT
ATOM      5  O   UNL     1      -1.596   3.097  20.741  0.00  0.00    -0.268 OA
ATOM      6  N   UNL     1      -0.691   0.605  24.924  0.00  0.00    -0.176 NA
ATOM      7  N   UNL     1      -1.845   2.865  23.058  0.00  0.00    -0.311 N 
ATOM      8  C   UNL     1       0.175   2.922  24.638  0.00  0.00    +0.025 C 
ATOM      9  C   UNL     1      -2.079   2.575  25.544  0.00  0.00    +0.053 C 
ATOM     10  C   UNL     1      -0.824   3.436  25.661  0.00  0.00    +0.017 C 
ATOM     11  C   UNL     1       0.533   1.454  24.913  0.00  0.00    +0.114 C 
ATOM     12  C   UNL     1      -1.728   1.111  25.871  0.00  0.00    +0.119 C 
ATOM     13  C   UNL     1      -0.409   3.126  23.239  0.00  0.00    +0.130 C 
ATOM     14  C   UNL     1      -2.712   2.684  24.154  0.00  0.00    +0.034 A 
ATOM     15  C   UNL     1      -4.051   2.592  23.947  0.00  0.00    +0.005 A 
ATOM     16  C   UNL     1      -2.307   2.926  21.732  0.00  0.00    +0.252 A 
ATOM     17  C   UNL     1      -4.565   2.647  22.593  0.00  0.00    +0.015 A 
ATOM     18  C   UNL     1      -3.767   2.789  21.534  0.00  0.00    +0.071 A 
ENDROOT
BRANCH  15  20
ATOM      2  F   UNL     1      -5.186   4.779  25.329  0.00  0.00    -0.205 F 
ATOM     20  C   UNL     1      -5.003   2.423  25.068  0.00  0.00    +0.019 A 
ATOM     23  C   UNL     1      -5.530   3.540  25.709  0.00  0.00    +0.131 A 
ATOM     24  C   UNL     1      -5.365   1.141  25.472  0.00  0.00    +0.011 A 
ATOM     27  C   UNL     1      -6.426   3.374  26.765  0.00  0.00    +0.039 A 
ATOM     28  C   UNL     1      -6.262   0.975  26.527  0.00  0.00    +0.001 A 
ATOM     30  C   UNL     1      -6.793   2.091  27.174  0.00  0.00    +0.003 A 
ENDBRANCH  15  20
BRANCH   6   1
ATOM      1  S   UNL     1      -0.423  -1.084  24.953  0.00  0.00    +0.061 S 
ATOM      3  O   UNL     1      -0.181  -1.502  26.318  0.00  0.00    -0.153 OA
ATOM      4  O   UNL     1       0.497  -1.435  23.891  0.00  0.00    -0.153 OA
BRANCH   1  19
ATOM     19  C   UNL     1      -2.029  -1.660  24.492  0.00  0.00    +0.105 A 
ATOM     21  C   UNL     1      -2.410  -2.948  24.831  0.00  0.00    +0.028 A 
ATOM     22  C   UNL     1      -2.879  -0.814  23.798  0.00  0.00    +0.028 A 
ATOM     25  C   UNL     1      -3.677  -3.402  24.467  0.00  0.00    +0.002 A 
ATOM     26  C   UNL     1      -4.146  -1.269  23.434  0.00  0.00    +0.002 A 
ATOM     29  C   UNL     1      -4.545  -2.564  23.768  0.00  0.00    +0.000 A 
ENDBRANCH   1  19
ENDBRANCH   6   1
TORSDOF 3
ENDMDL
MODEL 5
REMARK VINA RESULT:       6.9      2.936      5.085
REMARK  Name = 9424526
REMARK  3 active torsions:
REMARK  status: ('A' for Active; 'I' for Inactive)
REMARK    1  A    between atoms: S_1  and  N_6
REMARK    2  A    between atoms: S_1  and  C_19
REMARK    3  A    between atoms: C_15  and  C_20
REMARK                            x       y       z     vdW  Elec       q    Type
REMARK                         _______ _______ _______ _____ _____    ______ ____
ROOT
ATOM      5  O   UNL     1      -0.230   5.913  23.732  0.00  0.00    -0.268 OA
ATOM      6  N   UNL     1      -0.463   1.065  24.713  0.00  0.00    -0.176 NA
ATOM      7  N   UNL     1      -1.075   4.140  25.008  0.00  0.00    -0.311 N 
ATOM      8  C   UNL     1       0.464   2.638  26.406  0.00  0.00    +0.025 C 
ATOM      9  C   UNL     1      -1.951   2.204  26.350  0.00  0.00    +0.053 C 
ATOM     10  C   UNL     1      -0.764   2.443  27.280  0.00  0.00    +0.017 C 
ATOM     11  C   UNL     1       0.727   1.394  25.546  0.00  0.00    +0.114 C 
ATOM     12  C   UNL     1      -1.706   0.925  25.525  0.00  0.00    +0.119 C 
ATOM     13  C   UNL     1       0.266   3.898  25.560  0.00  0.00    +0.130 C 
ATOM     14  C   UNL     1      -2.199   3.403  25.431  0.00  0.00    +0.034 A 
ATOM     15  C   UNL     1      -3.439   3.758  25.004  0.00  0.00    +0.005 A 
ATOM     16  C   UNL     1      -1.175   5.228  24.122  0.00  0.00    +0.252 A 
ATOM     17  C   UNL     1      -3.581   4.872  24.088  0.00  0.00    +0.015 A 
ATOM     18  C   UNL     1      -2.535   5.569  23.647  0.00  0.00    +0.071 A 
ENDROOT
BRANCH  15  20
ATOM      2  F   UNL     1      -4.641   1.734  23.443  0.00  0.00    -0.205 F 
ATOM     20  C   UNL     1      -4.650   3.027  25.438  0.00  0.00    +0.019 A 
ATOM     23  C   UNL     1      -5.195   2.038  24.625  0.00  0.00    +0.131 A 
ATOM     24  C   UNL     1      -5.236   3.335  26.663  0.00  0.00    +0.011 A 
ATOM     27  C   UNL     1      -6.338   1.352  25.039  0.00  0.00    +0.039 A 
ATOM     28  C   UNL     1      -6.377   2.649  27.078  0.00  0.00    +0.001 A 
ATOM     30  C   UNL     1      -6.928   1.657  26.266  0.00  0.00    +0.003 A 
ENDBRANCH  15  20
BRANCH   6   1
ATOM      1  S   UNL     1      -0.223  -0.132  23.515  0.00  0.00    +0.061 S 
ATOM      3  O   UNL     1       0.961  -0.899  23.842  0.00  0.00    -0.153 OA
ATOM      4  O   UNL     1      -0.383   0.470  22.208  0.00  0.00    -0.153 OA
BRANCH   1  19
ATOM     19  C   UNL     1      -1.629  -1.158  23.816  0.00  0.00    +0.105 A 
ATOM     21  C   UNL     1      -2.890  -0.694  23.480  0.00  0.00    +0.028 A 
ATOM     22  C   UNL     1      -1.446  -2.409  24.384  0.00  0.00    +0.028 A 
ATOM     25  C   UNL     1      -4.000  -1.504  23.719  0.00  0.00    +0.002 A 
ATOM     26  C   UNL     1      -2.556  -3.218  24.622  0.00  0.00    +0.002 A 
ATOM     29  C   UNL     1      -3.834  -2.766  24.290  0.00  0.00    +0.000 A 
ENDBRANCH   1  19
ENDBRANCH   6   1
TORSDOF 3
ENDMDL
