MODEL 1
REMARK VINA RESULT:      -3.9      0.000      0.000
REMARK  Name = 75536313
REMARK  8 active torsions:
REMARK  status: ('A' for Active; 'I' for Inactive)
REMARK    1  A    between atoms: O_2  and  C_7
REMARK    2  A    between atoms: N_4  and  C_11
REMARK    3  A    between atoms: N_4  and  C_14
REMARK    4  A    between atoms: C_6  and  C_11
REMARK    5  A    between atoms: C_8  and  C_12
REMARK    6  A    between atoms: C_12  and  C_13
REMARK    7  A    between atoms: C_14  and  C_16
REMARK    8  A    between atoms: C_17  and  C_18
REMARK                            x       y       z     vdW  Elec       q    Type
REMARK                         _______ _______ _______ _____ _____    ______ ____
ROOT
ATOM      1  O   UNL     1      -3.395   0.357  23.751  0.00  0.00    -0.369 OA
ATOM      6  C   UNL     1      -4.331  -0.366  24.561  0.00  0.00    +0.161 C 
ATOM      7  C   UNL     1      -3.660  -1.553  25.263  0.00  0.00    +0.145 C 
ATOM      8  C   UNL     1      -2.231   0.824  24.438  0.00  0.00    +0.125 C 
ATOM      9  C   UNL     1      -2.372  -1.153  25.978  0.00  0.00    +0.036 C 
ATOM     10  C   UNL     1      -1.465  -0.343  25.056  0.00  0.00    +0.034 C 
ENDROOT
BRANCH   7   2
ATOM      2  O   UNL     1      -3.327  -2.541  24.284  0.00  0.00    -0.389 OA
ATOM     30  H   UNL     1      -3.328  -2.104  23.414  0.00  0.00    +0.210 HD
ENDBRANCH   7   2
BRANCH   6  11
ATOM     11  C   UNL     1      -5.059   0.566  25.528  0.00  0.00    +0.115 C 
BRANCH  11   4
ATOM      4  N   UNL     1      -5.727   1.639  24.809  0.00  0.00    -0.309 NA
ATOM     29  H   UNL     1      -5.295   1.752  23.893  0.00  0.00    +0.122 HD
BRANCH   4  14
ATOM     14  C   UNL     1      -5.649   2.892  25.549  0.00  0.00    +0.116 C 
BRANCH  14  16
ATOM     16  C   UNL     1      -4.293   3.534  25.424  0.00  0.00    -0.034 A 
ATOM     19  C   UNL     1      -3.446   3.598  26.530  0.00  0.00    +0.005 A 
ATOM     20  C   UNL     1      -3.883   4.065  24.201  0.00  0.00    +0.005 A 
ATOM     21  C   UNL     1      -2.189   4.193  26.413  0.00  0.00    +0.000 A 
ATOM     22  C   UNL     1      -2.628   4.659  24.083  0.00  0.00    +0.000 A 
ATOM     25  C   UNL     1      -1.780   4.724  25.189  0.00  0.00    +0.000 A 
ENDBRANCH  14  16
ENDBRANCH   4  14
ENDBRANCH  11   4
ENDBRANCH   6  11
BRANCH   8  12
ATOM     12  C   UNL     1      -1.367   1.564  23.423  0.00  0.00    +0.090 C 
BRANCH  12  13
ATOM      3  O   UNL     1       1.347  -0.564  22.374  0.00  0.00    -0.354 OA
ATOM      5  N   UNL     1       0.017  -0.164  22.346  0.00  0.00    -0.083 NA
ATOM     13  C   UNL     1      -0.054   0.866  23.194  0.00  0.00    +0.087 A 
ATOM     15  C   UNL     1       1.190   1.158  23.782  0.00  0.00    +0.076 A 
ATOM     17  C   UNL     1       2.035   0.232  23.232  0.00  0.00    +0.167 A 
BRANCH  17  18
ATOM     18  C   UNL     1       3.433  -0.061  23.365  0.00  0.00    +0.020 A 
ATOM     23  C   UNL     1       3.845  -1.330  23.772  0.00  0.00    +0.011 A 
ATOM     24  C   UNL     1       4.381   0.924  23.088  0.00  0.00    +0.011 A 
ATOM     26  C   UNL     1       5.205  -1.614  23.901  0.00  0.00    +0.001 A 
ATOM     27  C   UNL     1       5.740   0.641  23.217  0.00  0.00    +0.001 A 
ATOM     28  C   UNL     1       6.152  -0.629  23.624  0.00  0.00    +0.000 A 
ENDBRANCH  17  18
ENDBRANCH  12  13
ENDBRANCH   8  12
TORSDOF 8
ENDMDL
MODEL 2
REMARK VINA RESULT:      -3.8      2.191      4.546
REMARK  Name = 75536313
REMARK  8 active torsions:
REMARK  status: ('A' for Active; 'I' for Inactive)
REMARK    1  A    between atoms: O_2  and  C_7
REMARK    2  A    between atoms: N_4  and  C_11
REMARK    3  A    between atoms: N_4  and  C_14
REMARK    4  A    between atoms: C_6  and  C_11
REMARK    5  A    between atoms: C_8  and  C_12
REMARK    6  A    between atoms: C_12  and  C_13
REMARK    7  A    between atoms: C_14  and  C_16
REMARK    8  A    between atoms: C_17  and  C_18
REMARK                            x       y       z     vdW  Elec       q    Type
REMARK                         _______ _______ _______ _____ _____    ______ ____
ROOT
ATOM      1  O   UNL     1      -3.763   2.372  25.696  0.00  0.00    -0.369 OA
ATOM      6  C   UNL     1      -4.975   1.727  25.283  0.00  0.00    +0.161 C 
ATOM      7  C   UNL     1      -6.209   2.504  25.757  0.00  0.00    +0.145 C 
ATOM      8  C   UNL     1      -3.633   3.738  25.291  0.00  0.00    +0.125 C 
ATOM      9  C   UNL     1      -6.128   3.989  25.415  0.00  0.00    +0.036 C 
ATOM     10  C   UNL     1      -4.785   4.575  25.843  0.00  0.00    +0.034 C 
ENDROOT
BRANCH   7   2
ATOM      2  O   UNL     1      -6.309   2.389  27.179  0.00  0.00    -0.389 OA
ATOM     30  H   UNL     1      -7.239   2.200  27.394  0.00  0.00    +0.210 HD
ENDBRANCH   7   2
BRANCH   6  11
ATOM     11  C   UNL     1      -4.975   1.466  23.778  0.00  0.00    +0.115 C 
BRANCH  11   4
ATOM      4  N   UNL     1      -3.935   0.515  23.417  0.00  0.00    -0.309 NA
ATOM     29  H   UNL     1      -4.000   0.307  22.421  0.00  0.00    +0.122 HD
BRANCH   4  14
ATOM     14  C   UNL     1      -4.062  -0.715  24.188  0.00  0.00    +0.116 C 
BRANCH  14  16
ATOM     16  C   UNL     1      -2.728  -1.201  24.690  0.00  0.00    -0.034 A 
ATOM     19  C   UNL     1      -2.169  -2.368  24.170  0.00  0.00    +0.005 A 
ATOM     20  C   UNL     1      -2.051  -0.484  25.677  0.00  0.00    +0.005 A 
ATOM     21  C   UNL     1      -0.934  -2.818  24.636  0.00  0.00    +0.000 A 
ATOM     22  C   UNL     1      -0.817  -0.933  26.142  0.00  0.00    +0.000 A 
ATOM     25  C   UNL     1      -0.257  -2.101  25.623  0.00  0.00    +0.000 A 
ENDBRANCH  14  16
ENDBRANCH   4  14
ENDBRANCH  11   4
ENDBRANCH   6  11
BRANCH   8  12
ATOM     12  C   UNL     1      -2.294   4.245  25.814  0.00  0.00    +0.090 C 
BRANCH  12  13
ATOM      3  O   UNL     1       0.554   2.038  25.718  0.00  0.00    -0.354 OA
ATOM      5  N   UNL     1      -0.359   2.838  26.393  0.00  0.00    -0.083 NA
ATOM     13  C   UNL     1      -1.165   3.322  25.444  0.00  0.00    +0.087 A 
ATOM     15  C   UNL     1      -0.812   2.866  24.162  0.00  0.00    +0.076 A 
ATOM     17  C   UNL     1       0.274   2.062  24.390  0.00  0.00    +0.167 A 
BRANCH  17  18
ATOM     18  C   UNL     1       1.136   1.275  23.557  0.00  0.00    +0.020 A 
ATOM     23  C   UNL     1       0.616   0.208  22.824  0.00  0.00    +0.011 A 
ATOM     24  C   UNL     1       2.496   1.576  23.480  0.00  0.00    +0.011 A 
ATOM     26  C   UNL     1       1.456  -0.557  22.014  0.00  0.00    +0.001 A 
ATOM     27  C   UNL     1       3.335   0.812  22.671  0.00  0.00    +0.001 A 
ATOM     28  C   UNL     1       2.815  -0.255  21.937  0.00  0.00    +0.000 A 
ENDBRANCH  17  18
ENDBRANCH  12  13
ENDBRANCH   8  12
TORSDOF 8
ENDMDL
MODEL 3
REMARK VINA RESULT:      -2.9      2.319      7.080
REMARK  Name = 75536313
REMARK  8 active torsions:
REMARK  status: ('A' for Active; 'I' for Inactive)
REMARK    1  A    between atoms: O_2  and  C_7
REMARK    2  A    between atoms: N_4  and  C_11
REMARK    3  A    between atoms: N_4  and  C_14
REMARK    4  A    between atoms: C_6  and  C_11
REMARK    5  A    between atoms: C_8  and  C_12
REMARK    6  A    between atoms: C_12  and  C_13
REMARK    7  A    between atoms: C_14  and  C_16
REMARK    8  A    between atoms: C_17  and  C_18
REMARK                            x       y       z     vdW  Elec       q    Type
REMARK                         _______ _______ _______ _____ _____    ______ ____
ROOT
ATOM      1  O   UNL     1       0.082   1.074  23.168  0.00  0.00    -0.369 OA
ATOM      6  C   UNL     1       0.256  -0.343  23.036  0.00  0.00    +0.161 C 
ATOM      7  C   UNL     1       1.573  -0.680  22.327  0.00  0.00    +0.145 C 
ATOM      8  C   UNL     1       1.150   1.758  23.829  0.00  0.00    +0.125 C 
ATOM      9  C   UNL     1       2.765   0.056  22.934  0.00  0.00    +0.036 C 
ATOM     10  C   UNL     1       2.467   1.545  23.085  0.00  0.00    +0.034 C 
ENDROOT
BRANCH   7   2
ATOM      2  O   UNL     1       1.472  -0.288  20.955  0.00  0.00    -0.389 OA
ATOM     30  H   UNL     1       1.705   0.655  20.901  0.00  0.00    +0.210 HD
ENDBRANCH   7   2
BRANCH   6  11
ATOM     11  C   UNL     1       0.107  -1.045  24.385  0.00  0.00    +0.115 C 
BRANCH  11   4
ATOM      4  N   UNL     1      -0.366  -0.119  25.401  0.00  0.00    -0.309 NA
ATOM     29  H   UNL     1       0.403   0.119  26.026  0.00  0.00    +0.122 HD
BRANCH   4  14
ATOM     14  C   UNL     1      -1.462  -0.699  26.166  0.00  0.00    +0.116 C 
BRANCH  14  16
ATOM     16  C   UNL     1      -2.498  -1.328  25.273  0.00  0.00    -0.034 A 
ATOM     19  C   UNL     1      -2.778  -2.690  25.379  0.00  0.00    +0.005 A 
ATOM     20  C   UNL     1      -3.178  -0.548  24.337  0.00  0.00    +0.005 A 
ATOM     21  C   UNL     1      -3.737  -3.272  24.551  0.00  0.00    +0.000 A 
ATOM     22  C   UNL     1      -4.137  -1.129  23.509  0.00  0.00    +0.000 A 
ATOM     25  C   UNL     1      -4.417  -2.491  23.615  0.00  0.00    +0.000 A 
ENDBRANCH  14  16
ENDBRANCH   4  14
ENDBRANCH  11   4
ENDBRANCH   6  11
BRANCH   8  12
ATOM     12  C   UNL     1       0.786   3.237  23.876  0.00  0.00    +0.090 C 
BRANCH  12  13
ATOM      3  O   UNL     1      -2.185   4.417  25.542  0.00  0.00    -0.354 OA
ATOM      5  N   UNL     1      -0.843   4.525  25.198  0.00  0.00    -0.083 NA
ATOM     13  C   UNL     1      -0.593   3.455  24.438  0.00  0.00    +0.087 A 
ATOM     15  C   UNL     1      -1.728   2.643  24.270  0.00  0.00    +0.076 A 
ATOM     17  C   UNL     1      -2.701   3.293  24.983  0.00  0.00    +0.167 A 
BRANCH  17  18
ATOM     18  C   UNL     1      -4.088   3.046  25.249  0.00  0.00    +0.020 A 
ATOM     23  C   UNL     1      -4.573   1.738  25.272  0.00  0.00    +0.011 A 
ATOM     24  C   UNL     1      -4.953   4.114  25.486  0.00  0.00    +0.011 A 
ATOM     26  C   UNL     1      -5.923   1.499  25.532  0.00  0.00    +0.001 A 
ATOM     27  C   UNL     1      -6.302   3.875  25.745  0.00  0.00    +0.001 A 
ATOM     28  C   UNL     1      -6.787   2.567  25.768  0.00  0.00    +0.000 A 
ENDBRANCH  17  18
ENDBRANCH  12  13
ENDBRANCH   8  12
TORSDOF 8
ENDMDL
MODEL 4
REMARK VINA RESULT:      -2.6     14.727     16.979
REMARK  Name = 75536313
REMARK  8 active torsions:
REMARK  status: ('A' for Active; 'I' for Inactive)
REMARK    1  A    between atoms: O_2  and  C_7
REMARK    2  A    between atoms: N_4  and  C_11
REMARK    3  A    between atoms: N_4  and  C_14
REMARK    4  A    between atoms: C_6  and  C_11
REMARK    5  A    between atoms: C_8  and  C_12
REMARK    6  A    between atoms: C_12  and  C_13
REMARK    7  A    between atoms: C_14  and  C_16
REMARK    8  A    between atoms: C_17  and  C_18
REMARK                            x       y       z     vdW  Elec       q    Type
REMARK                         _______ _______ _______ _____ _____    ______ ____
ROOT
ATOM      1  O   UNL     1      -2.232 -10.781  13.413  0.00  0.00    -0.369 OA
ATOM      6  C   UNL     1      -2.369 -10.775  14.840  0.00  0.00    +0.161 C 
ATOM      7  C   UNL     1      -1.213 -10.020  15.508  0.00  0.00    +0.145 C 
ATOM      8  C   UNL     1      -2.114  -9.490  12.809  0.00  0.00    +0.125 C 
ATOM      9  C   UNL     1      -0.978  -8.647  14.883  0.00  0.00    +0.036 C 
ATOM     10  C   UNL     1      -0.900  -8.745  13.362  0.00  0.00    +0.034 C 
ENDROOT
BRANCH   7   2
ATOM      2  O   UNL     1      -0.012 -10.781  15.351  0.00  0.00    -0.389 OA
ATOM     30  H   UNL     1       0.701 -10.161  15.123  0.00  0.00    +0.210 HD
ENDBRANCH   7   2
BRANCH   6  11
ATOM     11  C   UNL     1      -3.743 -10.257  15.260  0.00  0.00    +0.115 C 
BRANCH  11   4
ATOM      4  N   UNL     1      -3.694  -9.681  16.594  0.00  0.00    -0.309 NA
ATOM     29  H   UNL     1      -2.721  -9.548  16.869  0.00  0.00    +0.122 HD
BRANCH   4  14
ATOM     14  C   UNL     1      -4.366 -10.541  17.559  0.00  0.00    +0.116 C 
BRANCH  14  16
ATOM     16  C   UNL     1      -5.848 -10.276  17.610  0.00  0.00    -0.034 A 
ATOM     19  C   UNL     1      -6.566 -10.547  18.774  0.00  0.00    +0.005 A 
ATOM     20  C   UNL     1      -6.502  -9.760  16.491  0.00  0.00    +0.005 A 
ATOM     21  C   UNL     1      -7.939 -10.301  18.819  0.00  0.00    +0.000 A 
ATOM     22  C   UNL     1      -7.873  -9.514  16.536  0.00  0.00    +0.000 A 
ATOM     25  C   UNL     1      -8.593  -9.785  17.700  0.00  0.00    +0.000 A 
ENDBRANCH  14  16
ENDBRANCH   4  14
ENDBRANCH  11   4
ENDBRANCH   6  11
BRANCH   8  12
ATOM     12  C   UNL     1      -1.982  -9.699  11.304  0.00  0.00    +0.090 C 
BRANCH  12  13
ATOM      3  O   UNL     1      -4.835 -10.026   9.125  0.00  0.00    -0.354 OA
ATOM      5  N   UNL     1      -3.526 -10.318   9.490  0.00  0.00    -0.083 NA
ATOM     13  C   UNL     1      -3.316  -9.624  10.612  0.00  0.00    +0.087 A 
ATOM     15  C   UNL     1      -4.446  -8.883  11.000  0.00  0.00    +0.076 A 
ATOM     17  C   UNL     1      -5.372  -9.171  10.032  0.00  0.00    +0.167 A 
BRANCH  17  18
ATOM     18  C   UNL     1      -6.729  -8.777   9.788  0.00  0.00    +0.020 A 
ATOM     23  C   UNL     1      -7.773  -9.425  10.450  0.00  0.00    +0.011 A 
ATOM     24  C   UNL     1      -7.006  -7.746   8.890  0.00  0.00    +0.011 A 
ATOM     26  C   UNL     1      -9.093  -9.041  10.212  0.00  0.00    +0.001 A 
ATOM     27  C   UNL     1      -8.325  -7.363   8.653  0.00  0.00    +0.001 A 
ATOM     28  C   UNL     1      -9.369  -8.011   9.314  0.00  0.00    +0.000 A 
ENDBRANCH  17  18
ENDBRANCH  12  13
ENDBRANCH   8  12
TORSDOF 8
ENDMDL
MODEL 5
REMARK VINA RESULT:      -2.4      1.404      3.796
REMARK  Name = 75536313
REMARK  8 active torsions:
REMARK  status: ('A' for Active; 'I' for Inactive)
REMARK    1  A    between atoms: O_2  and  C_7
REMARK    2  A    between atoms: N_4  and  C_11
REMARK    3  A    between atoms: N_4  and  C_14
REMARK    4  A    between atoms: C_6  and  C_11
REMARK    5  A    between atoms: C_8  and  C_12
REMARK    6  A    between atoms: C_12  and  C_13
REMARK    7  A    between atoms: C_14  and  C_16
REMARK    8  A    between atoms: C_17  and  C_18
REMARK                            x       y       z     vdW  Elec       q    Type
REMARK                         _______ _______ _______ _____ _____    ______ ____
ROOT
ATOM      1  O   UNL     1      -2.311   1.657  24.838  0.00  0.00    -0.369 OA
ATOM      6  C   UNL     1      -2.686   2.635  25.818  0.00  0.00    +0.161 C 
ATOM      7  C   UNL     1      -1.583   3.685  26.006  0.00  0.00    +0.145 C 
ATOM      8  C   UNL     1      -1.952   2.185  23.559  0.00  0.00    +0.125 C 
ATOM      9  C   UNL     1      -1.098   4.263  24.680  0.00  0.00    +0.036 C 
ATOM     10  C   UNL     1      -0.776   3.151  23.685  0.00  0.00    +0.034 C 
ENDROOT
BRANCH   7   2
ATOM      2  O   UNL     1      -0.465   3.069  26.650  0.00  0.00    -0.389 OA
ATOM     30  H   UNL     1       0.152   3.777  26.907  0.00  0.00    +0.210 HD
ENDBRANCH   7   2
BRANCH   6  11
ATOM     11  C   UNL     1      -4.046   3.249  25.491  0.00  0.00    +0.115 C 
BRANCH  11   4
ATOM      4  N   UNL     1      -4.873   2.311  24.749  0.00  0.00    -0.309 NA
ATOM     29  H   UNL     1      -5.690   2.799  24.382  0.00  0.00    +0.122 HD
BRANCH   4  14
ATOM     14  C   UNL     1      -5.298   1.205  25.596  0.00  0.00    +0.116 C 
BRANCH  14  16
ATOM     16  C   UNL     1      -4.602  -0.079  25.232  0.00  0.00    -0.034 A 
ATOM     19  C   UNL     1      -4.734  -0.605  23.948  0.00  0.00    +0.005 A 
ATOM     20  C   UNL     1      -3.826  -0.744  26.182  0.00  0.00    +0.005 A 
ATOM     21  C   UNL     1      -4.089  -1.796  23.612  0.00  0.00    +0.000 A 
ATOM     22  C   UNL     1      -3.181  -1.934  25.846  0.00  0.00    +0.000 A 
ATOM     25  C   UNL     1      -3.312  -2.461  24.561  0.00  0.00    +0.000 A 
ENDBRANCH  14  16
ENDBRANCH   4  14
ENDBRANCH  11   4
ENDBRANCH   6  11
BRANCH   8  12
ATOM     12  C   UNL     1      -1.592   1.006  22.662  0.00  0.00    +0.090 C 
BRANCH  12  13
ATOM      3  O   UNL     1       1.090  -1.018  23.966  0.00  0.00    -0.354 OA
ATOM      5  N   UNL     1      -0.257  -0.727  23.790  0.00  0.00    -0.083 NA
ATOM     13  C   UNL     1      -0.278   0.388  23.054  0.00  0.00    +0.087 A 
ATOM     15  C   UNL     1       1.015   0.843  22.739  0.00  0.00    +0.076 A 
ATOM     17  C   UNL     1       1.837  -0.077  23.335  0.00  0.00    +0.167 A 
BRANCH  17  18
ATOM     18  C   UNL     1       3.258  -0.246  23.427  0.00  0.00    +0.020 A 
ATOM     23  C   UNL     1       4.109   0.816  23.121  0.00  0.00    +0.011 A 
ATOM     24  C   UNL     1       3.790  -1.473  23.824  0.00  0.00    +0.011 A 
ATOM     26  C   UNL     1       5.491   0.651  23.211  0.00  0.00    +0.001 A 
ATOM     27  C   UNL     1       5.172  -1.638  23.913  0.00  0.00    +0.001 A 
ATOM     28  C   UNL     1       6.022  -0.576  23.607  0.00  0.00    +0.000 A 
ENDBRANCH  17  18
ENDBRANCH  12  13
ENDBRANCH   8  12
TORSDOF 8
ENDMDL
MODEL 6
REMARK VINA RESULT:      -0.6      3.066      3.854
REMARK  Name = 75536313
REMARK  8 active torsions:
REMARK  status: ('A' for Active; 'I' for Inactive)
REMARK    1  A    between atoms: O_2  and  C_7
REMARK    2  A    between atoms: N_4  and  C_11
REMARK    3  A    between atoms: N_4  and  C_14
REMARK    4  A    between atoms: C_6  and  C_11
REMARK    5  A    between atoms: C_8  and  C_12
REMARK    6  A    between atoms: C_12  and  C_13
REMARK    7  A    between atoms: C_14  and  C_16
REMARK    8  A    between atoms: C_17  and  C_18
REMARK                            x       y       z     vdW  Elec       q    Type
REMARK                         _______ _______ _______ _____ _____    ______ ____
ROOT
ATOM      1  O   UNL     1      -3.635   0.225  23.535  0.00  0.00    -0.369 OA
ATOM      6  C   UNL     1      -4.816  -0.438  24.006  0.00  0.00    +0.161 C 
ATOM      7  C   UNL     1      -4.560  -1.931  24.244  0.00  0.00    +0.145 C 
ATOM      8  C   UNL     1      -2.483   0.081  24.369  0.00  0.00    +0.125 C 
ATOM      9  C   UNL     1      -3.309  -2.180  25.083  0.00  0.00    +0.036 C 
ATOM     10  C   UNL     1      -2.120  -1.393  24.538  0.00  0.00    +0.034 C 
ENDROOT
BRANCH   7   2
ATOM      2  O   UNL     1      -4.372  -2.574  22.980  0.00  0.00    -0.389 OA
ATOM     30  H   UNL     1      -3.809  -3.354  23.128  0.00  0.00    +0.210 HD
ENDBRANCH   7   2
BRANCH   6  11
ATOM     11  C   UNL     1      -5.395   0.271  25.229  0.00  0.00    +0.115 C 
BRANCH  11   4
ATOM      4  N   UNL     1      -6.074   1.498  24.844  0.00  0.00    -0.309 NA
ATOM     29  H   UNL     1      -5.754   1.786  23.920  0.00  0.00    +0.122 HD
BRANCH   4  14
ATOM     14  C   UNL     1      -5.818   2.561  25.807  0.00  0.00    +0.116 C 
BRANCH  14  16
ATOM     16  C   UNL     1      -4.533   3.287  25.513  0.00  0.00    -0.034 A 
ATOM     19  C   UNL     1      -4.176   3.569  24.195  0.00  0.00    +0.005 A 
ATOM     20  C   UNL     1      -3.698   3.678  26.560  0.00  0.00    +0.005 A 
ATOM     21  C   UNL     1      -2.984   4.242  23.924  0.00  0.00    +0.000 A 
ATOM     22  C   UNL     1      -2.507   4.351  26.289  0.00  0.00    +0.000 A 
ATOM     25  C   UNL     1      -2.149   4.633  24.971  0.00  0.00    +0.000 A 
ENDBRANCH  14  16
ENDBRANCH   4  14
ENDBRANCH  11   4
ENDBRANCH   6  11
BRANCH   8  12
ATOM     12  C   UNL     1      -1.343   0.849  23.711  0.00  0.00    +0.090 C 
BRANCH  12  13
ATOM      3  O   UNL     1       0.936   2.984  25.512  0.00  0.00    -0.354 OA
ATOM      5  N   UNL     1       0.298   2.569  24.350  0.00  0.00    -0.083 NA
ATOM     13  C   UNL     1      -0.487   1.557  24.727  0.00  0.00    +0.087 A 
ATOM     15  C   UNL     1      -0.388   1.289  26.104  0.00  0.00    +0.076 A 
ATOM     17  C   UNL     1       0.518   2.214  26.550  0.00  0.00    +0.167 A 
BRANCH  17  18
ATOM     18  C   UNL     1       1.092   2.527  27.826  0.00  0.00    +0.020 A 
ATOM     23  C   UNL     1       0.339   2.361  28.990  0.00  0.00    +0.011 A 
ATOM     24  C   UNL     1       2.403   2.997  27.906  0.00  0.00    +0.011 A 
ATOM     26  C   UNL     1       0.898   2.666  30.231  0.00  0.00    +0.001 A 
ATOM     27  C   UNL     1       2.961   3.301  29.147  0.00  0.00    +0.001 A 
ATOM     28  C   UNL     1       2.209   3.135  30.310  0.00  0.00    +0.000 A 
ENDBRANCH  17  18
ENDBRANCH  12  13
ENDBRANCH   8  12
TORSDOF 8
ENDMDL
MODEL 7
REMARK VINA RESULT:      -0.2      2.912      6.132
REMARK  Name = 75536313
REMARK  8 active torsions:
REMARK  status: ('A' for Active; 'I' for Inactive)
REMARK    1  A    between atoms: O_2  and  C_7
REMARK    2  A    between atoms: N_4  and  C_11
REMARK    3  A    between atoms: N_4  and  C_14
REMARK    4  A    between atoms: C_6  and  C_11
REMARK    5  A    between atoms: C_8  and  C_12
REMARK    6  A    between atoms: C_12  and  C_13
REMARK    7  A    between atoms: C_14  and  C_16
REMARK    8  A    between atoms: C_17  and  C_18
REMARK                            x       y       z     vdW  Elec       q    Type
REMARK                         _______ _______ _______ _____ _____    ______ ____
ROOT
ATOM      1  O   UNL     1      -1.955  -0.086  24.962  0.00  0.00    -0.369 OA
ATOM      6  C   UNL     1      -1.638  -1.461  24.704  0.00  0.00    +0.161 C 
ATOM      7  C   UNL     1      -2.906  -2.287  24.454  0.00  0.00    +0.145 C 
ATOM      8  C   UNL     1      -2.735   0.558  23.951  0.00  0.00    +0.125 C 
ATOM      9  C   UNL     1      -3.829  -1.640  23.425  0.00  0.00    +0.036 C 
ATOM     10  C   UNL     1      -4.064  -0.168  23.752  0.00  0.00    +0.034 C 
ENDROOT
BRANCH   7   2
ATOM      2  O   UNL     1      -3.632  -2.400  25.681  0.00  0.00    -0.389 OA
ATOM     30  H   UNL     1      -3.033  -2.139  26.402  0.00  0.00    +0.210 HD
ENDBRANCH   7   2
BRANCH   6  11
ATOM     11  C   UNL     1      -0.611  -1.588  23.580  0.00  0.00    +0.115 C 
BRANCH  11   4
ATOM      4  N   UNL     1       0.462  -0.620  23.747  0.00  0.00    -0.309 NA
ATOM     29  H   UNL     1       0.062   0.303  23.910  0.00  0.00    +0.122 HD
BRANCH   4  14
ATOM     14  C   UNL     1       1.320  -0.585  22.571  0.00  0.00    +0.116 C 
BRANCH  14  16
ATOM     16  C   UNL     1       2.765  -0.371  22.937  0.00  0.00    -0.034 A 
ATOM     19  C   UNL     1       3.389   0.840  22.640  0.00  0.00    +0.005 A 
ATOM     20  C   UNL     1       3.480  -1.386  23.575  0.00  0.00    +0.005 A 
ATOM     21  C   UNL     1       4.728   1.037  22.980  0.00  0.00    +0.000 A 
ATOM     22  C   UNL     1       4.817  -1.189  23.914  0.00  0.00    +0.000 A 
ATOM     25  C   UNL     1       5.442   0.022  23.617  0.00  0.00    +0.000 A 
ENDBRANCH  14  16
ENDBRANCH   4  14
ENDBRANCH  11   4
ENDBRANCH   6  11
BRANCH   8  12
ATOM     12  C   UNL     1      -2.964   1.997  24.399  0.00  0.00    +0.090 C 
BRANCH  12  13
ATOM      3  O   UNL     1      -0.326   3.854  26.007  0.00  0.00    -0.354 OA
ATOM      5  N   UNL     1      -1.326   3.715  25.052  0.00  0.00    -0.083 NA
ATOM     13  C   UNL     1      -1.839   2.499  25.263  0.00  0.00    +0.087 A 
ATOM     15  C   UNL     1      -1.208   1.831  26.327  0.00  0.00    +0.076 A 
ATOM     17  C   UNL     1      -0.266   2.726  26.760  0.00  0.00    +0.167 A 
BRANCH  17  18
ATOM     18  C   UNL     1       0.725   2.722  27.796  0.00  0.00    +0.020 A 
ATOM     23  C   UNL     1       2.031   3.124  27.515  0.00  0.00    +0.011 A 
ATOM     24  C   UNL     1       0.383   2.318  29.087  0.00  0.00    +0.011 A 
ATOM     26  C   UNL     1       2.995   3.120  28.524  0.00  0.00    +0.001 A 
ATOM     27  C   UNL     1       1.346   2.315  30.095  0.00  0.00    +0.001 A 
ATOM     28  C   UNL     1       2.652   2.716  29.813  0.00  0.00    +0.000 A 
ENDBRANCH  17  18
ENDBRANCH  12  13
ENDBRANCH   8  12
TORSDOF 8
ENDMDL
MODEL 8
REMARK VINA RESULT:       0.1      1.636      6.787
REMARK  Name = 75536313
REMARK  8 active torsions:
REMARK  status: ('A' for Active; 'I' for Inactive)
REMARK    1  A    between atoms: O_2  and  C_7
REMARK    2  A    between atoms: N_4  and  C_11
REMARK    3  A    between atoms: N_4  and  C_14
REMARK    4  A    between atoms: C_6  and  C_11
REMARK    5  A    between atoms: C_8  and  C_12
REMARK    6  A    between atoms: C_12  and  C_13
REMARK    7  A    between atoms: C_14  and  C_16
REMARK    8  A    between atoms: C_17  and  C_18
REMARK                            x       y       z     vdW  Elec       q    Type
REMARK                         _______ _______ _______ _____ _____    ______ ____
ROOT
ATOM      1  O   UNL     1      -2.822  -0.941  24.924  0.00  0.00    -0.369 OA
ATOM      6  C   UNL     1      -1.661  -1.762  24.740  0.00  0.00    +0.161 C 
ATOM      7  C   UNL     1      -2.029  -3.251  24.715  0.00  0.00    +0.145 C 
ATOM      8  C   UNL     1      -3.866  -1.143  23.969  0.00  0.00    +0.125 C 
ATOM      9  C   UNL     1      -3.180  -3.549  23.758  0.00  0.00    +0.036 C 
ATOM     10  C   UNL     1      -4.346  -2.592  23.993  0.00  0.00    +0.034 C 
ENDROOT
BRANCH   7   2
ATOM      2  O   UNL     1      -2.438  -3.647  26.027  0.00  0.00    -0.389 OA
ATOM     30  H   UNL     1      -1.678  -3.524  26.621  0.00  0.00    +0.210 HD
ENDBRANCH   7   2
BRANCH   6  11
ATOM     11  C   UNL     1      -0.864  -1.323  23.513  0.00  0.00    +0.115 C 
BRANCH  11   4
ATOM      4  N   UNL     1       0.368  -0.658  23.906  0.00  0.00    -0.309 NA
ATOM     29  H   UNL     1       0.144   0.161  24.472  0.00  0.00    +0.122 HD
BRANCH   4  14
ATOM     14  C   UNL     1       1.139  -0.254  22.738  0.00  0.00    +0.116 C 
BRANCH  14  16
ATOM     16  C   UNL     1       2.616  -0.210  23.029  0.00  0.00    -0.034 A 
ATOM     19  C   UNL     1       3.347   0.946  22.755  0.00  0.00    +0.005 A 
ATOM     20  C   UNL     1       3.253  -1.326  23.572  0.00  0.00    +0.005 A 
ATOM     21  C   UNL     1       4.715   0.986  23.025  0.00  0.00    +0.000 A 
ATOM     22  C   UNL     1       4.620  -1.285  23.842  0.00  0.00    +0.000 A 
ATOM     25  C   UNL     1       5.352  -0.130  23.568  0.00  0.00    +0.000 A 
ENDBRANCH  14  16
ENDBRANCH   4  14
ENDBRANCH  11   4
ENDBRANCH   6  11
BRANCH   8  12
ATOM     12  C   UNL     1      -5.001  -0.189  24.323  0.00  0.00    +0.090 C 
BRANCH  12  13
ATOM      3  O   UNL     1      -4.519   3.238  25.332  0.00  0.00    -0.354 OA
ATOM      5  N   UNL     1      -5.287   2.085  25.221  0.00  0.00    -0.083 NA
ATOM     13  C   UNL     1      -4.494   1.198  24.614  0.00  0.00    +0.087 A 
ATOM     15  C   UNL     1      -3.226   1.729  24.320  0.00  0.00    +0.076 A 
ATOM     17  C   UNL     1      -3.294   3.013  24.793  0.00  0.00    +0.167 A 
BRANCH  17  18
ATOM     18  C   UNL     1      -2.383   4.120  24.836  0.00  0.00    +0.020 A 
ATOM     23  C   UNL     1      -2.865   5.414  25.032  0.00  0.00    +0.011 A 
ATOM     24  C   UNL     1      -1.013   3.902  24.684  0.00  0.00    +0.011 A 
ATOM     26  C   UNL     1      -1.978   6.490  25.074  0.00  0.00    +0.001 A 
ATOM     27  C   UNL     1      -0.127   4.977  24.726  0.00  0.00    +0.001 A 
ATOM     28  C   UNL     1      -0.609   6.272  24.922  0.00  0.00    +0.000 A 
ENDBRANCH  17  18
ENDBRANCH  12  13
ENDBRANCH   8  12
TORSDOF 8
ENDMDL
