MODEL 1
REMARK VINA RESULT:      -3.6      0.000      0.000
REMARK  Name = 45784194
REMARK  4 active torsions:
REMARK  status: ('A' for Active; 'I' for Inactive)
REMARK    1  A    between atoms: N_2  and  C_5
REMARK    2  A    between atoms: N_3  and  C_15
REMARK    3  A    between atoms: C_6  and  C_14
REMARK    4  A    between atoms: C_20  and  C_22
REMARK                            x       y       z     vdW  Elec       q    Type
REMARK                         _______ _______ _______ _____ _____    ______ ____
ROOT
ATOM      2  N   UNL     1      -5.642 -10.291  10.504  0.00  0.00    -0.299 NA
ATOM      6  C   UNL     1      -7.576 -10.386  11.829  0.00  0.00    +0.090 C 
ATOM      7  C   UNL     1      -6.093 -10.777  11.811  0.00  0.00    +0.097 C 
ATOM      8  C   UNL     1      -6.254  -8.970  10.362  0.00  0.00    +0.085 C 
ATOM      9  C   UNL     1      -7.678  -9.200  10.852  0.00  0.00    +0.029 C 
ENDROOT
BRANCH   6  14
ATOM      1  O   UNL     1      -7.208 -10.299  14.236  0.00  0.00    -0.439 OA
ATOM      4  N   UNL     1      -9.295  -9.706  13.580  0.00  0.00    -0.213 NA
ATOM     14  C   UNL     1      -8.096 -10.108  13.221  0.00  0.00    +0.201 A 
ATOM     16  C   UNL     1      -9.203  -9.620  14.948  0.00  0.00    +0.110 A 
ATOM     17  C   UNL     1      -7.927  -9.983  15.354  0.00  0.00    +0.155 A 
ATOM     18  C   UNL     1     -10.143  -9.248  15.920  0.00  0.00    +0.035 A 
ATOM     19  C   UNL     1      -7.493 -10.007  16.673  0.00  0.00    +0.049 A 
ATOM     20  C   UNL     1      -9.741  -9.260  17.264  0.00  0.00    -0.048 A 
ATOM     21  C   UNL     1      -8.442  -9.633  17.630  0.00  0.00    +0.007 A 
ATOM     22  C   UNL     1     -10.719  -8.869  18.322  0.00  0.00    +0.044 C 
ENDBRANCH   6  14
BRANCH   2   5
ATOM      3  N   UNL     1      -1.638  -9.051  11.200  0.00  0.00    -0.305 NA
ATOM      5  C   UNL     1      -4.186 -10.245  10.398  0.00  0.00    +0.059 C 
ATOM     10  C   UNL     1      -3.718  -8.886   9.870  0.00  0.00    +0.034 C 
ATOM     11  C   UNL     1      -3.547 -10.523  11.761  0.00  0.00    +0.034 C 
ATOM     12  C   UNL     1      -2.190  -8.797   9.862  0.00  0.00    +0.085 C 
ATOM     13  C   UNL     1      -2.025 -10.381  11.692  0.00  0.00    +0.085 C 
ATOM     15  C   UNL     1      -0.182  -8.913  11.188  0.00  0.00    +0.104 C 
ENDBRANCH   2   5
TORSDOF 2
ENDMDL
MODEL 2
REMARK VINA RESULT:      -2.4      2.411      3.966
REMARK  Name = 45784194
REMARK  4 active torsions:
REMARK  status: ('A' for Active; 'I' for Inactive)
REMARK    1  A    between atoms: N_2  and  C_5
REMARK    2  A    between atoms: N_3  and  C_15
REMARK    3  A    between atoms: C_6  and  C_14
REMARK    4  A    between atoms: C_20  and  C_22
REMARK                            x       y       z     vdW  Elec       q    Type
REMARK                         _______ _______ _______ _____ _____    ______ ____
ROOT
ATOM      2  N   UNL     1      -1.417  -9.665  11.406  0.00  0.00    -0.299 NA
ATOM      6  C   UNL     1      -3.080 -10.772  12.635  0.00  0.00    +0.090 C 
ATOM      7  C   UNL     1      -1.801  -9.940  12.793  0.00  0.00    +0.097 C 
ATOM      8  C   UNL     1      -2.668  -9.323  10.729  0.00  0.00    +0.085 C 
ATOM      9  C   UNL     1      -3.638 -10.372  11.257  0.00  0.00    +0.029 C 
ENDROOT
BRANCH   6  14
ATOM      1  O   UNL     1      -3.519 -10.757  15.032  0.00  0.00    -0.439 OA
ATOM      4  N   UNL     1      -5.326 -10.309  13.741  0.00  0.00    -0.213 NA
ATOM     14  C   UNL     1      -4.044 -10.597  13.786  0.00  0.00    +0.201 A 
ATOM     16  C   UNL     1      -5.690 -10.274  15.065  0.00  0.00    +0.110 A 
ATOM     17  C   UNL     1      -4.585 -10.548  15.859  0.00  0.00    +0.155 A 
ATOM     18  C   UNL     1      -6.922 -10.020  15.683  0.00  0.00    +0.035 A 
ATOM     19  C   UNL     1      -4.600 -10.593  17.248  0.00  0.00    +0.049 A 
ATOM     20  C   UNL     1      -6.976 -10.056  17.084  0.00  0.00    -0.048 A 
ATOM     21  C   UNL     1      -5.837 -10.337  17.849  0.00  0.00    +0.007 A 
ATOM     22  C   UNL     1      -8.275  -9.790  17.772  0.00  0.00    +0.044 C 
ENDBRANCH   6  14
BRANCH   2   5
ATOM      3  N   UNL     1       2.144  -7.464  12.135  0.00  0.00    -0.305 NA
ATOM      5  C   UNL     1      -0.420  -8.602  11.304  0.00  0.00    +0.059 C 
ATOM     10  C   UNL     1      -0.239  -7.889  12.647  0.00  0.00    +0.034 C 
ATOM     11  C   UNL     1       0.918  -9.175  10.833  0.00  0.00    +0.034 C 
ATOM     12  C   UNL     1       0.882  -6.850  12.570  0.00  0.00    +0.085 C 
ATOM     13  C   UNL     1       2.002  -8.095  10.815  0.00  0.00    +0.085 C 
ATOM     15  C   UNL     1       3.217  -6.470  12.115  0.00  0.00    +0.104 C 
ENDBRANCH   2   5
TORSDOF 2
ENDMDL
MODEL 3
REMARK VINA RESULT:      -1.0     15.329     17.945
REMARK  Name = 45784194
REMARK  4 active torsions:
REMARK  status: ('A' for Active; 'I' for Inactive)
REMARK    1  A    between atoms: N_2  and  C_5
REMARK    2  A    between atoms: N_3  and  C_15
REMARK    3  A    between atoms: C_6  and  C_14
REMARK    4  A    between atoms: C_20  and  C_22
REMARK                            x       y       z     vdW  Elec       q    Type
REMARK                         _______ _______ _______ _____ _____    ______ ____
ROOT
ATOM      2  N   UNL     1      -2.879   0.056  24.567  0.00  0.00    -0.299 NA
ATOM      6  C   UNL     1      -0.938  -0.803  23.570  0.00  0.00    +0.090 C 
ATOM      7  C   UNL     1      -1.681   0.508  23.856  0.00  0.00    +0.097 C 
ATOM      8  C   UNL     1      -2.401  -0.962  25.503  0.00  0.00    +0.085 C 
ATOM      9  C   UNL     1      -1.435  -1.778  24.653  0.00  0.00    +0.029 C 
ENDROOT
BRANCH   6  14
ATOM      1  O   UNL     1       1.006   0.545  22.988  0.00  0.00    -0.439 OA
ATOM      4  N   UNL     1       1.497  -1.470  23.901  0.00  0.00    -0.213 NA
ATOM     14  C   UNL     1       0.563  -0.631  23.511  0.00  0.00    +0.201 A 
ATOM     16  C   UNL     1       2.662  -0.801  23.615  0.00  0.00    +0.110 A 
ATOM     17  C   UNL     1       2.366   0.434  23.055  0.00  0.00    +0.155 A 
ATOM     18  C   UNL     1       4.006  -1.159  23.793  0.00  0.00    +0.035 A 
ATOM     19  C   UNL     1       3.312   1.366  22.647  0.00  0.00    +0.049 A 
ATOM     20  C   UNL     1       4.990  -0.242  23.394  0.00  0.00    -0.048 A 
ATOM     21  C   UNL     1       4.648   0.994  22.832  0.00  0.00    +0.007 A 
ATOM     22  C   UNL     1       6.431  -0.595  23.570  0.00  0.00    +0.044 C 
ENDBRANCH   6  14
BRANCH   2   5
ATOM      3  N   UNL     1      -5.182   3.589  25.087  0.00  0.00    -0.305 NA
ATOM      5  C   UNL     1      -3.573   1.150  25.242  0.00  0.00    +0.059 C 
ATOM     10  C   UNL     1      -2.971   2.503  24.853  0.00  0.00    +0.034 C 
ATOM     11  C   UNL     1      -5.064   1.124  24.896  0.00  0.00    +0.034 C 
ATOM     12  C   UNL     1      -3.766   3.656  25.473  0.00  0.00    +0.085 C 
ATOM     13  C   UNL     1      -5.791   2.321  25.513  0.00  0.00    +0.085 C 
ATOM     15  C   UNL     1      -5.919   4.724  25.644  0.00  0.00    +0.104 C 
ENDBRANCH   2   5
TORSDOF 2
ENDMDL
