MODEL 1
REMARK VINA RESULT:      -0.2      0.000      0.000
REMARK  Name = 71693895
REMARK  9 active torsions:
REMARK  status: ('A' for Active; 'I' for Inactive)
REMARK    1  A    between atoms: O_1  and  C_10
REMARK    2  A    between atoms: O_2  and  C_12
REMARK    3  A    between atoms: O_4  and  C_20
REMARK    4  A    between atoms: O_4  and  C_25
REMARK    5  A    between atoms: N_6  and  C_9
REMARK    6  A    between atoms: C_8  and  C_13
REMARK    7  A    between atoms: C_16  and  C_19
REMARK    8  A    between atoms: C_21  and  C_23
REMARK    9  A    between atoms: C_22  and  C_24
REMARK                            x       y       z     vdW  Elec       q    Type
REMARK                         _______ _______ _______ _____ _____    ______ ____
ROOT
ATOM      8  C   UNL     1      -1.563  -0.634  23.875  0.00  0.00    +0.044 C 
ATOM      9  C   UNL     1      -2.019  -0.472  25.343  0.00  0.00    +0.112 C 
ATOM     10  C   UNL     1      -2.924  -1.683  25.569  0.00  0.00    +0.164 C 
ATOM     11  C   UNL     1      -1.716  -2.141  23.548  0.00  0.00    +0.044 C 
ATOM     12  C   UNL     1      -2.192  -2.803  24.840  0.00  0.00    +0.145 C 
ENDROOT
BRANCH   8  13
ATOM     13  C   UNL     1      -0.178  -0.077  23.620  0.00  0.00    -0.042 A 
ATOM     14  C   UNL     1       0.617  -0.620  22.610  0.00  0.00    +0.007 A 
ATOM     15  C   UNL     1       0.304   0.977  24.397  0.00  0.00    +0.007 A 
ATOM     17  C   UNL     1       1.894  -0.109  22.378  0.00  0.00    +0.046 A 
ATOM     18  C   UNL     1       1.581   1.487  24.164  0.00  0.00    +0.046 A 
ATOM     20  C   UNL     1       2.376   0.945  23.154  0.00  0.00    +0.120 A 
BRANCH  20   4
ATOM      4  O   UNL     1       3.622   1.443  22.927  0.00  0.00    -0.495 OA
ATOM     25  C   UNL     1       4.722   0.560  23.143  0.00  0.00    +0.277 C 
ENDBRANCH  20   4
ENDBRANCH   8  13
BRANCH   9   6
ATOM      3  O   UNL     1      -4.605   0.240  24.318  0.00  0.00    -0.270 OA
ATOM      6  N   UNL     1      -2.718   0.769  25.559  0.00  0.00    -0.305 N 
ATOM     16  C   UNL     1      -3.972   1.025  25.020  0.00  0.00    +0.250 C 
ATOM     31  H   UNL     1      -2.242   1.484  26.096  0.00  0.00    +0.149 HD
BRANCH  16  19
ATOM      5  O   UNL     1      -5.983   3.947  25.946  0.00  0.00    -0.359 OA
ATOM      7  N   UNL     1      -4.829   4.610  25.545  0.00  0.00    -0.077 NA
ATOM     19  C   UNL     1      -4.548   2.362  25.313  0.00  0.00    +0.106 A 
ATOM     21  C   UNL     1      -3.987   3.643  25.172  0.00  0.00    +0.126 A 
ATOM     22  C   UNL     1      -5.804   2.609  25.802  0.00  0.00    +0.147 A 
ATOM     24  C   UNL     1      -6.937   1.756  26.185  0.00  0.00    +0.090 C 
BRANCH  21  23
ATOM     23  C   UNL     1      -2.670   3.973  24.691  0.00  0.00    +0.004 A 
ATOM     26  C   UNL     1      -1.916   4.948  25.343  0.00  0.00    +0.010 A 
ATOM     27  C   UNL     1      -2.150   3.318  23.576  0.00  0.00    +0.010 A 
ATOM     28  C   UNL     1      -0.640   5.269  24.877  0.00  0.00    +0.001 A 
ATOM     29  C   UNL     1      -0.875   3.639  23.110  0.00  0.00    +0.001 A 
ATOM     30  C   UNL     1      -0.120   4.614  23.761  0.00  0.00    +0.000 A 
ENDBRANCH  21  23
ENDBRANCH  16  19
ENDBRANCH   9   6
BRANCH  10   1
ATOM      1  O   UNL     1      -3.082  -1.985  26.943  0.00  0.00    -0.387 OA
ATOM     32  H   UNL     1      -3.193  -1.142  27.415  0.00  0.00    +0.210 HD
ENDBRANCH  10   1
BRANCH  12   2
ATOM      2  O   UNL     1      -1.051  -3.233  25.579  0.00  0.00    -0.389 OA
ATOM     33  H   UNL     1      -0.330  -2.610  25.388  0.00  0.00    +0.210 HD
ENDBRANCH  12   2
TORSDOF 7
ENDMDL
MODEL 2
REMARK VINA RESULT:       0.4      1.717      3.417
REMARK  Name = 71693895
REMARK  9 active torsions:
REMARK  status: ('A' for Active; 'I' for Inactive)
REMARK    1  A    between atoms: O_1  and  C_10
REMARK    2  A    between atoms: O_2  and  C_12
REMARK    3  A    between atoms: O_4  and  C_20
REMARK    4  A    between atoms: O_4  and  C_25
REMARK    5  A    between atoms: N_6  and  C_9
REMARK    6  A    between atoms: C_8  and  C_13
REMARK    7  A    between atoms: C_16  and  C_19
REMARK    8  A    between atoms: C_21  and  C_23
REMARK    9  A    between atoms: C_22  and  C_24
REMARK                            x       y       z     vdW  Elec       q    Type
REMARK                         _______ _______ _______ _____ _____    ______ ____
ROOT
ATOM      8  C   UNL     1      -0.306  -0.541  23.430  0.00  0.00    +0.044 C 
ATOM      9  C   UNL     1      -0.948  -0.022  24.737  0.00  0.00    +0.112 C 
ATOM     10  C   UNL     1      -2.034  -1.055  25.033  0.00  0.00    +0.164 C 
ATOM     11  C   UNL     1      -0.615  -2.058  23.381  0.00  0.00    +0.044 C 
ATOM     12  C   UNL     1      -1.365  -2.375  24.674  0.00  0.00    +0.145 C 
ENDROOT
BRANCH   8  13
ATOM     13  C   UNL     1       1.165  -0.200  23.318  0.00  0.00    -0.042 A 
ATOM     14  C   UNL     1       2.125  -1.207  23.426  0.00  0.00    +0.007 A 
ATOM     15  C   UNL     1       1.562   1.121  23.108  0.00  0.00    +0.007 A 
ATOM     17  C   UNL     1       3.480  -0.893  23.325  0.00  0.00    +0.046 A 
ATOM     18  C   UNL     1       2.917   1.435  23.007  0.00  0.00    +0.046 A 
ATOM     20  C   UNL     1       3.876   0.428  23.115  0.00  0.00    +0.120 A 
BRANCH  20   4
ATOM      4  O   UNL     1       5.199   0.735  23.018  0.00  0.00    -0.495 OA
ATOM     25  C   UNL     1       6.127  -0.235  23.502  0.00  0.00    +0.277 C 
ENDBRANCH  20   4
ENDBRANCH   8  13
BRANCH   9   6
ATOM      3  O   UNL     1      -0.248   2.309  26.261  0.00  0.00    -0.270 OA
ATOM      6  N   UNL     1      -1.492   1.303  24.583  0.00  0.00    -0.305 N 
ATOM     16  C   UNL     1      -1.090   2.374  25.370  0.00  0.00    +0.250 C 
ATOM     31  H   UNL     1      -2.224   1.428  23.892  0.00  0.00    +0.149 HD
BRANCH  16  19
ATOM      5  O   UNL     1      -2.080   5.835  24.679  0.00  0.00    -0.359 OA
ATOM      7  N   UNL     1      -3.347   5.272  24.759  0.00  0.00    -0.077 NA
ATOM     19  C   UNL     1      -1.766   3.669  25.104  0.00  0.00    +0.106 A 
ATOM     21  C   UNL     1      -3.135   3.978  25.013  0.00  0.00    +0.126 A 
ATOM     22  C   UNL     1      -1.147   4.872  24.887  0.00  0.00    +0.147 A 
ATOM     24  C   UNL     1       0.257   5.304  24.835  0.00  0.00    +0.090 C 
BRANCH  21  23
ATOM     23  C   UNL     1      -4.246   3.075  25.163  0.00  0.00    +0.004 A 
ATOM     26  C   UNL     1      -5.215   3.319  26.136  0.00  0.00    +0.010 A 
ATOM     27  C   UNL     1      -4.354   1.958  24.335  0.00  0.00    +0.010 A 
ATOM     28  C   UNL     1      -6.292   2.444  26.282  0.00  0.00    +0.001 A 
ATOM     29  C   UNL     1      -5.430   1.083  24.482  0.00  0.00    +0.001 A 
ATOM     30  C   UNL     1      -6.400   1.327  25.454  0.00  0.00    +0.000 A 
ENDBRANCH  21  23
ENDBRANCH  16  19
ENDBRANCH   9   6
BRANCH  10   1
ATOM      1  O   UNL     1      -2.435  -1.037  26.390  0.00  0.00    -0.387 OA
ATOM     32  H   UNL     1      -1.631  -1.109  26.932  0.00  0.00    +0.210 HD
ENDBRANCH  10   1
BRANCH  12   2
ATOM      2  O   UNL     1      -0.417  -2.753  25.669  0.00  0.00    -0.389 OA
ATOM     33  H   UNL     1       0.037  -3.551  25.350  0.00  0.00    +0.210 HD
ENDBRANCH  12   2
TORSDOF 7
ENDMDL
MODEL 3
REMARK VINA RESULT:       1.1      1.849      6.107
REMARK  Name = 71693895
REMARK  9 active torsions:
REMARK  status: ('A' for Active; 'I' for Inactive)
REMARK    1  A    between atoms: O_1  and  C_10
REMARK    2  A    between atoms: O_2  and  C_12
REMARK    3  A    between atoms: O_4  and  C_20
REMARK    4  A    between atoms: O_4  and  C_25
REMARK    5  A    between atoms: N_6  and  C_9
REMARK    6  A    between atoms: C_8  and  C_13
REMARK    7  A    between atoms: C_16  and  C_19
REMARK    8  A    between atoms: C_21  and  C_23
REMARK    9  A    between atoms: C_22  and  C_24
REMARK                            x       y       z     vdW  Elec       q    Type
REMARK                         _______ _______ _______ _____ _____    ______ ____
ROOT
ATOM      8  C   UNL     1      -2.904  -0.449  25.483  0.00  0.00    +0.044 C 
ATOM      9  C   UNL     1      -2.347  -0.885  24.109  0.00  0.00    +0.112 C 
ATOM     10  C   UNL     1      -2.068  -2.376  24.297  0.00  0.00    +0.164 C 
ATOM     11  C   UNL     1      -3.458  -1.737  26.143  0.00  0.00    +0.044 C 
ATOM     12  C   UNL     1      -3.261  -2.851  25.118  0.00  0.00    +0.145 C 
ENDROOT
BRANCH   8  13
ATOM     13  C   UNL     1      -3.905   0.682  25.383  0.00  0.00    -0.042 A 
ATOM     14  C   UNL     1      -3.585   1.837  24.668  0.00  0.00    +0.007 A 
ATOM     15  C   UNL     1      -5.148   0.572  26.009  0.00  0.00    +0.007 A 
ATOM     17  C   UNL     1      -4.507   2.880  24.578  0.00  0.00    +0.046 A 
ATOM     18  C   UNL     1      -6.069   1.615  25.919  0.00  0.00    +0.046 A 
ATOM     20  C   UNL     1      -5.749   2.769  25.203  0.00  0.00    +0.120 A 
BRANCH  20   4
ATOM      4  O   UNL     1      -6.648   3.787  25.116  0.00  0.00    -0.495 OA
ATOM     25  C   UNL     1      -6.198   5.084  25.505  0.00  0.00    +0.277 C 
ENDBRANCH  20   4
ENDBRANCH   8  13
BRANCH   9   6
ATOM      3  O   UNL     1       0.357  -1.583  24.776  0.00  0.00    -0.270 OA
ATOM      6  N   UNL     1      -1.157  -0.157  23.751  0.00  0.00    -0.305 N 
ATOM     16  C   UNL     1       0.115  -0.574  24.120  0.00  0.00    +0.250 C 
ATOM     31  H   UNL     1      -1.278   0.712  23.242  0.00  0.00    +0.149 HD
BRANCH  16  19
ATOM      5  O   UNL     1       3.187   0.964  22.841  0.00  0.00    -0.359 OA
ATOM      7  N   UNL     1       2.560   2.114  23.305  0.00  0.00    -0.077 NA
ATOM     19  C   UNL     1       1.237   0.301  23.696  0.00  0.00    +0.106 A 
ATOM     21  C   UNL     1       1.398   1.693  23.811  0.00  0.00    +0.126 A 
ATOM     22  C   UNL     1       2.390  -0.108  23.080  0.00  0.00    +0.147 A 
ATOM     24  C   UNL     1       2.909  -1.413  22.647  0.00  0.00    +0.090 C 
BRANCH  21  23
ATOM     23  C   UNL     1       0.474   2.634  24.391  0.00  0.00    +0.004 A 
ATOM     26  C   UNL     1      -0.017   2.424  25.679  0.00  0.00    +0.010 A 
ATOM     27  C   UNL     1       0.072   3.755  23.665  0.00  0.00    +0.010 A 
ATOM     28  C   UNL     1      -0.912   3.335  26.241  0.00  0.00    +0.001 A 
ATOM     29  C   UNL     1      -0.824   4.665  24.226  0.00  0.00    +0.001 A 
ATOM     30  C   UNL     1      -1.315   4.455  25.515  0.00  0.00    +0.000 A 
ENDBRANCH  21  23
ENDBRANCH  16  19
ENDBRANCH   9   6
BRANCH  10   1
ATOM      1  O   UNL     1      -1.989  -3.066  23.063  0.00  0.00    -0.387 OA
ATOM     32  H   UNL     1      -2.100  -4.014  23.253  0.00  0.00    +0.210 HD
ENDBRANCH  10   1
BRANCH  12   2
ATOM      2  O   UNL     1      -4.432  -2.941  24.311  0.00  0.00    -0.389 OA
ATOM     33  H   UNL     1      -5.193  -2.738  24.880  0.00  0.00    +0.210 HD
ENDBRANCH  12   2
TORSDOF 7
ENDMDL
MODEL 4
REMARK VINA RESULT:       1.9      2.149      7.637
REMARK  Name = 71693895
REMARK  9 active torsions:
REMARK  status: ('A' for Active; 'I' for Inactive)
REMARK    1  A    between atoms: O_1  and  C_10
REMARK    2  A    between atoms: O_2  and  C_12
REMARK    3  A    between atoms: O_4  and  C_20
REMARK    4  A    between atoms: O_4  and  C_25
REMARK    5  A    between atoms: N_6  and  C_9
REMARK    6  A    between atoms: C_8  and  C_13
REMARK    7  A    between atoms: C_16  and  C_19
REMARK    8  A    between atoms: C_21  and  C_23
REMARK    9  A    between atoms: C_22  and  C_24
REMARK                            x       y       z     vdW  Elec       q    Type
REMARK                         _______ _______ _______ _____ _____    ______ ____
ROOT
ATOM      8  C   UNL     1      -3.017   3.768  23.844  0.00  0.00    +0.044 C 
ATOM      9  C   UNL     1      -1.635   3.548  24.501  0.00  0.00    +0.112 C 
ATOM     10  C   UNL     1      -0.867   4.821  24.145  0.00  0.00    +0.164 C 
ATOM     11  C   UNL     1      -3.171   5.302  23.688  0.00  0.00    +0.044 C 
ATOM     12  C   UNL     1      -1.915   5.915  24.307  0.00  0.00    +0.145 C 
ENDROOT
BRANCH   8  13
ATOM     13  C   UNL     1      -4.146   3.101  24.603  0.00  0.00    -0.042 A 
ATOM     14  C   UNL     1      -4.841   3.810  25.584  0.00  0.00    +0.007 A 
ATOM     15  C   UNL     1      -4.488   1.778  24.324  0.00  0.00    +0.007 A 
ATOM     17  C   UNL     1      -5.878   3.195  26.285  0.00  0.00    +0.046 A 
ATOM     18  C   UNL     1      -5.526   1.164  25.025  0.00  0.00    +0.046 A 
ATOM     20  C   UNL     1      -6.221   1.872  26.005  0.00  0.00    +0.120 A 
BRANCH  20   4
ATOM      4  O   UNL     1      -7.233   1.272  26.689  0.00  0.00    -0.495 OA
ATOM     25  C   UNL     1      -7.007   0.997  28.071  0.00  0.00    +0.277 C 
ENDBRANCH  20   4
ENDBRANCH   8  13
BRANCH   9   6
ATOM      3  O   UNL     1       0.658   2.246  25.635  0.00  0.00    -0.270 OA
ATOM      6  N   UNL     1      -0.980   2.367  23.998  0.00  0.00    -0.305 N 
ATOM     16  C   UNL     1       0.128   1.806  24.618  0.00  0.00    +0.250 C 
ATOM     31  H   UNL     1      -1.336   1.968  23.137  0.00  0.00    +0.149 HD
BRANCH  16  19
ATOM      5  O   UNL     1       2.092  -0.711  22.816  0.00  0.00    -0.359 OA
ATOM      7  N   UNL     1       1.024  -1.516  23.194  0.00  0.00    -0.077 NA
ATOM     19  C   UNL     1       0.704   0.604  23.962  0.00  0.00    +0.106 A 
ATOM     21  C   UNL     1       0.208  -0.709  23.876  0.00  0.00    +0.126 A 
ATOM     22  C   UNL     1       1.889   0.549  23.279  0.00  0.00    +0.147 A 
ATOM     24  C   UNL     1       2.934   1.533  22.964  0.00  0.00    +0.090 C 
BRANCH  21  23
ATOM     23  C   UNL     1      -1.022  -1.217  24.427  0.00  0.00    +0.004 A 
ATOM     26  C   UNL     1      -1.596  -2.372  23.898  0.00  0.00    +0.010 A 
ATOM     27  C   UNL     1      -1.637  -0.555  25.489  0.00  0.00    +0.010 A 
ATOM     28  C   UNL     1      -2.789  -2.864  24.430  0.00  0.00    +0.001 A 
ATOM     29  C   UNL     1      -2.829  -1.047  26.021  0.00  0.00    +0.001 A 
ATOM     30  C   UNL     1      -3.404  -2.202  25.492  0.00  0.00    +0.000 A 
ENDBRANCH  21  23
ENDBRANCH  16  19
ENDBRANCH   9   6
BRANCH  10   1
ATOM      1  O   UNL     1       0.235   5.039  25.006  0.00  0.00    -0.387 OA
ATOM     32  H   UNL     1       0.006   5.782  25.590  0.00  0.00    +0.210 HD
ENDBRANCH  10   1
BRANCH  12   2
ATOM      2  O   UNL     1      -2.168   6.180  25.683  0.00  0.00    -0.389 OA
ATOM     33  H   UNL     1      -1.477   5.731  26.198  0.00  0.00    +0.210 HD
ENDBRANCH  12   2
TORSDOF 7
ENDMDL
MODEL 5
REMARK VINA RESULT:       3.4      2.077      5.665
REMARK  Name = 71693895
REMARK  9 active torsions:
REMARK  status: ('A' for Active; 'I' for Inactive)
REMARK    1  A    between atoms: O_1  and  C_10
REMARK    2  A    between atoms: O_2  and  C_12
REMARK    3  A    between atoms: O_4  and  C_20
REMARK    4  A    between atoms: O_4  and  C_25
REMARK    5  A    between atoms: N_6  and  C_9
REMARK    6  A    between atoms: C_8  and  C_13
REMARK    7  A    between atoms: C_16  and  C_19
REMARK    8  A    between atoms: C_21  and  C_23
REMARK    9  A    between atoms: C_22  and  C_24
REMARK                            x       y       z     vdW  Elec       q    Type
REMARK                         _______ _______ _______ _____ _____    ______ ____
ROOT
ATOM      8  C   UNL     1      -5.041   1.369  24.447  0.00  0.00    +0.044 C 
ATOM      9  C   UNL     1      -4.444   2.452  25.374  0.00  0.00    +0.112 C 
ATOM     10  C   UNL     1      -5.613   3.411  25.597  0.00  0.00    +0.164 C 
ATOM     11  C   UNL     1      -6.573   1.419  24.670  0.00  0.00    +0.044 C 
ATOM     12  C   UNL     1      -6.805   2.475  25.750  0.00  0.00    +0.145 C 
ENDROOT
BRANCH   8  13
ATOM     13  C   UNL     1      -4.424   0.002  24.659  0.00  0.00    -0.042 A 
ATOM     14  C   UNL     1      -3.732  -0.274  25.839  0.00  0.00    +0.007 A 
ATOM     15  C   UNL     1      -4.544  -0.979  23.674  0.00  0.00    +0.007 A 
ATOM     17  C   UNL     1      -3.161  -1.532  26.033  0.00  0.00    +0.046 A 
ATOM     18  C   UNL     1      -3.973  -2.236  23.869  0.00  0.00    +0.046 A 
ATOM     20  C   UNL     1      -3.282  -2.513  25.049  0.00  0.00    +0.120 A 
BRANCH  20   4
ATOM      4  O   UNL     1      -2.724  -3.740  25.238  0.00  0.00    -0.495 OA
ATOM     25  C   UNL     1      -1.304  -3.830  25.134  0.00  0.00    +0.277 C 
ENDBRANCH  20   4
ENDBRANCH   8  13
BRANCH   9   6
ATOM      3  O   UNL     1      -1.800   2.658  26.473  0.00  0.00    -0.270 OA
ATOM      6  N   UNL     1      -3.313   3.113  24.775  0.00  0.00    -0.305 N 
ATOM     16  C   UNL     1      -2.066   3.161  25.384  0.00  0.00    +0.250 C 
ATOM     31  H   UNL     1      -3.465   3.587  23.892  0.00  0.00    +0.149 HD
BRANCH  16  19
ATOM      5  O   UNL     1       0.184   5.584  23.803  0.00  0.00    -0.359 OA
ATOM      7  N   UNL     1       0.819   4.418  23.393  0.00  0.00    -0.077 NA
ATOM     19  C   UNL     1      -1.009   3.903  24.650  0.00  0.00    +0.106 A 
ATOM     21  C   UNL     1       0.088   3.427  23.911  0.00  0.00    +0.126 A 
ATOM     22  C   UNL     1      -0.903   5.265  24.550  0.00  0.00    +0.147 A 
ATOM     24  C   UNL     1      -1.692   6.392  25.065  0.00  0.00    +0.090 C 
BRANCH  21  23
ATOM     23  C   UNL     1       0.461   2.055  23.684  0.00  0.00    +0.004 A 
ATOM     26  C   UNL     1      -0.483   1.041  23.852  0.00  0.00    +0.010 A 
ATOM     27  C   UNL     1       1.762   1.739  23.297  0.00  0.00    +0.010 A 
ATOM     28  C   UNL     1      -0.122  -0.289  23.634  0.00  0.00    +0.001 A 
ATOM     29  C   UNL     1       2.122   0.410  23.079  0.00  0.00    +0.001 A 
ATOM     30  C   UNL     1       1.179  -0.604  23.246  0.00  0.00    +0.000 A 
ENDBRANCH  21  23
ENDBRANCH  16  19
ENDBRANCH   9   6
BRANCH  10   1
ATOM      1  O   UNL     1      -5.438   4.208  26.754  0.00  0.00    -0.387 OA
ATOM     32  H   UNL     1      -5.326   3.605  27.509  0.00  0.00    +0.210 HD
ENDBRANCH  10   1
BRANCH  12   2
ATOM      2  O   UNL     1      -6.792   1.835  27.023  0.00  0.00    -0.389 OA
ATOM     33  H   UNL     1      -6.712   2.530  27.697  0.00  0.00    +0.210 HD
ENDBRANCH  12   2
TORSDOF 7
ENDMDL
MODEL 6
REMARK VINA RESULT:       3.5      2.005      5.396
REMARK  Name = 71693895
REMARK  9 active torsions:
REMARK  status: ('A' for Active; 'I' for Inactive)
REMARK    1  A    between atoms: O_1  and  C_10
REMARK    2  A    between atoms: O_2  and  C_12
REMARK    3  A    between atoms: O_4  and  C_20
REMARK    4  A    between atoms: O_4  and  C_25
REMARK    5  A    between atoms: N_6  and  C_9
REMARK    6  A    between atoms: C_8  and  C_13
REMARK    7  A    between atoms: C_16  and  C_19
REMARK    8  A    between atoms: C_21  and  C_23
REMARK    9  A    between atoms: C_22  and  C_24
REMARK                            x       y       z     vdW  Elec       q    Type
REMARK                         _______ _______ _______ _____ _____    ______ ____
ROOT
ATOM      8  C   UNL     1      -0.492  -0.551  24.798  0.00  0.00    +0.044 C 
ATOM      9  C   UNL     1      -0.275   0.733  23.965  0.00  0.00    +0.112 C 
ATOM     10  C   UNL     1       1.246   0.816  23.832  0.00  0.00    +0.164 C 
ATOM     11  C   UNL     1       0.779  -1.411  24.587  0.00  0.00    +0.044 C 
ATOM     12  C   UNL     1       1.654  -0.634  23.604  0.00  0.00    +0.145 C 
ENDROOT
BRANCH   8  13
ATOM     13  C   UNL     1      -1.788  -1.260  24.464  0.00  0.00    -0.042 A 
ATOM     14  C   UNL     1      -2.978  -0.535  24.383  0.00  0.00    +0.007 A 
ATOM     15  C   UNL     1      -1.793  -2.637  24.241  0.00  0.00    +0.007 A 
ATOM     17  C   UNL     1      -4.172  -1.189  24.078  0.00  0.00    +0.046 A 
ATOM     18  C   UNL     1      -2.987  -3.289  23.937  0.00  0.00    +0.046 A 
ATOM     20  C   UNL     1      -4.177  -2.566  23.855  0.00  0.00    +0.120 A 
BRANCH  20   4
ATOM      4  O   UNL     1      -5.342  -3.203  23.558  0.00  0.00    -0.495 OA
ATOM     25  C   UNL     1      -5.352  -4.029  22.395  0.00  0.00    +0.277 C 
ENDBRANCH  20   4
ENDBRANCH   8  13
BRANCH   9   6
ATOM      3  O   UNL     1      -2.130   2.611  22.836  0.00  0.00    -0.270 OA
ATOM      6  N   UNL     1      -0.822   1.898  24.613  0.00  0.00    -0.305 N 
ATOM     16  C   UNL     1      -1.719   2.752  23.984  0.00  0.00    +0.250 C 
ATOM     31  H   UNL     1      -0.498   2.103  25.551  0.00  0.00    +0.149 HD
BRANCH  16  19
ATOM      5  O   UNL     1      -2.179   5.915  25.780  0.00  0.00    -0.359 OA
ATOM      7  N   UNL     1      -3.411   5.337  26.063  0.00  0.00    -0.077 NA
ATOM     19  C   UNL     1      -2.171   3.922  24.779  0.00  0.00    +0.106 A 
ATOM     21  C   UNL     1      -3.383   4.148  25.455  0.00  0.00    +0.126 A 
ATOM     22  C   UNL     1      -1.449   5.063  25.016  0.00  0.00    +0.147 A 
ATOM     24  C   UNL     1      -0.110   5.525  24.625  0.00  0.00    +0.090 C 
BRANCH  21  23
ATOM     23  C   UNL     1      -4.515   3.263  25.538  0.00  0.00    +0.004 A 
ATOM     26  C   UNL     1      -4.947   2.578  24.403  0.00  0.00    +0.010 A 
ATOM     27  C   UNL     1      -5.179   3.090  26.752  0.00  0.00    +0.010 A 
ATOM     28  C   UNL     1      -6.045   1.720  24.482  0.00  0.00    +0.001 A 
ATOM     29  C   UNL     1      -6.276   2.233  26.831  0.00  0.00    +0.001 A 
ATOM     30  C   UNL     1      -6.709   1.547  25.696  0.00  0.00    +0.000 A 
ENDBRANCH  21  23
ENDBRANCH  16  19
ENDBRANCH   9   6
BRANCH  10   1
ATOM      1  O   UNL     1       1.645   1.635  22.748  0.00  0.00    -0.387 OA
ATOM     32  H   UNL     1       2.550   1.939  22.931  0.00  0.00    +0.210 HD
ENDBRANCH  10   1
BRANCH  12   2
ATOM      2  O   UNL     1       1.334  -1.052  22.281  0.00  0.00    -0.389 OA
ATOM     33  H   UNL     1       0.365  -1.061  22.204  0.00  0.00    +0.210 HD
ENDBRANCH  12   2
TORSDOF 7
ENDMDL
