MODEL 1
REMARK VINA RESULT:       1.8      0.000      0.000
REMARK  Name = 11887237
REMARK  4 active torsions:
REMARK  status: ('A' for Active; 'I' for Inactive)
REMARK    1  A    between atoms: N_6  and  C_13
REMARK    2  A    between atoms: N_7  and  C_14
REMARK    3  A    between atoms: C_17  and  C_19
REMARK    4  A    between atoms: C_18  and  C_20
REMARK                            x       y       z     vdW  Elec       q    Type
REMARK                         _______ _______ _______ _____ _____    ______ ____
ROOT
ATOM      1  O   UNL     1      -2.934  -0.434  23.229  0.00  0.00    -0.370 OA
ATOM      2  O   UNL     1      -1.688  -0.828  26.090  0.00  0.00    -0.370 OA
ATOM     11  C   UNL     1      -1.934   0.320  25.257  0.00  0.00    +0.176 C 
ATOM     12  C   UNL     1      -1.671  -0.101  23.825  0.00  0.00    +0.171 C 
ATOM     13  C   UNL     1      -3.409   0.675  25.290  0.00  0.00    +0.168 C 
ATOM     14  C   UNL     1      -0.809  -1.337  23.951  0.00  0.00    +0.130 C 
ATOM     15  C   UNL     1      -3.990  -0.174  24.164  0.00  0.00    +0.190 C 
ATOM     16  C   UNL     1      -1.281  -1.928  25.265  0.00  0.00    +0.185 C 
ENDROOT
BRANCH  13   6
ATOM      6  N   UNL     1      -3.643   2.115  25.166  0.00  0.00    -0.217 N 
ATOM      8  N   UNL     1      -4.791   2.576  24.659  0.00  0.00    -0.043 NA
ATOM      9  N   UNL     1      -3.451   4.268  25.215  0.00  0.00    -0.108 NA
ATOM     10  N   UNL     1      -4.669   3.897  24.692  0.00  0.00    -0.023 NA
ATOM     17  C   UNL     1      -2.832   3.147  25.503  0.00  0.00    +0.182 A 
BRANCH  17  19
ATOM      4  O   UNL     1       0.244   2.636  29.275  0.00  0.00    -0.453 OA
ATOM      5  O   UNL     1       2.173   2.598  27.832  0.00  0.00    -0.453 OA
ATOM     19  C   UNL     1      -1.518   3.005  26.075  0.00  0.00    +0.024 A 
ATOM     21  C   UNL     1      -1.370   2.890  27.461  0.00  0.00    +0.061 A 
ATOM     22  C   UNL     1      -0.389   2.983  25.234  0.00  0.00    +0.015 A 
ATOM     23  C   UNL     1      -0.091   2.757  27.962  0.00  0.00    +0.167 A 
ATOM     26  C   UNL     1       0.895   2.847  25.767  0.00  0.00    +0.050 A 
ATOM     27  C   UNL     1       1.010   2.735  27.138  0.00  0.00    +0.166 A 
ATOM     30  C   UNL     1       1.679   2.534  29.186  0.00  0.00    +0.466 C 
ENDBRANCH  17  19
ENDBRANCH  13   6
BRANCH  14   7
ATOM      3  O   UNL     1       0.818  -0.418  21.769  0.00  0.00    -0.270 OA
ATOM      7  N   UNL     1       0.592  -0.992  24.005  0.00  0.00    -0.304 N 
ATOM     18  C   UNL     1       1.297  -0.557  22.892  0.00  0.00    +0.244 C 
ATOM     32  H   UNL     1       1.079  -1.194  24.871  0.00  0.00    +0.149 HD
BRANCH  18  20
ATOM     20  C   UNL     1       2.737  -0.268  23.106  0.00  0.00    +0.037 A 
ATOM     24  C   UNL     1       3.529  -1.231  23.698  0.00  0.00    +0.013 A 
ATOM     25  C   UNL     1       3.239   0.954  22.707  0.00  0.00    +0.013 A 
ATOM     28  C   UNL     1       4.882  -0.960  23.900  0.00  0.00    +0.001 A 
ATOM     29  C   UNL     1       4.592   1.225  22.909  0.00  0.00    +0.001 A 
ATOM     31  C   UNL     1       5.414   0.268  23.506  0.00  0.00    +0.000 A 
ENDBRANCH  18  20
ENDBRANCH  14   7
TORSDOF 4
ENDMDL
MODEL 2
REMARK VINA RESULT:       2.4      3.060      5.382
REMARK  Name = 11887237
REMARK  4 active torsions:
REMARK  status: ('A' for Active; 'I' for Inactive)
REMARK    1  A    between atoms: N_6  and  C_13
REMARK    2  A    between atoms: N_7  and  C_14
REMARK    3  A    between atoms: C_17  and  C_19
REMARK    4  A    between atoms: C_18  and  C_20
REMARK                            x       y       z     vdW  Elec       q    Type
REMARK                         _______ _______ _______ _____ _____    ______ ____
ROOT
ATOM      1  O   UNL     1      -3.139   4.962  24.369  0.00  0.00    -0.370 OA
ATOM      2  O   UNL     1      -1.259   2.494  23.848  0.00  0.00    -0.370 OA
ATOM     11  C   UNL     1      -2.382   2.728  24.718  0.00  0.00    +0.176 C 
ATOM     12  C   UNL     1      -2.284   4.162  25.201  0.00  0.00    +0.171 C 
ATOM     13  C   UNL     1      -3.672   2.678  23.919  0.00  0.00    +0.168 C 
ATOM     14  C   UNL     1      -0.836   4.534  24.975  0.00  0.00    +0.130 C 
ATOM     15  C   UNL     1      -3.836   4.117  23.443  0.00  0.00    +0.190 C 
ATOM     16  C   UNL     1      -0.468   3.689  23.771  0.00  0.00    +0.185 C 
ENDROOT
BRANCH  13   6
ATOM      6  N   UNL     1      -4.794   2.150  24.698  0.00  0.00    -0.217 N 
ATOM      8  N   UNL     1      -5.800   2.950  25.067  0.00  0.00    -0.043 NA
ATOM      9  N   UNL     1      -6.145   0.875  25.803  0.00  0.00    -0.108 NA
ATOM     10  N   UNL     1      -6.626   2.162  25.744  0.00  0.00    -0.023 NA
ATOM     17  C   UNL     1      -5.008   0.890  25.147  0.00  0.00    +0.182 A 
BRANCH  17  19
ATOM      4  O   UNL     1      -0.735  -1.438  25.669  0.00  0.00    -0.453 OA
ATOM      5  O   UNL     1      -1.485  -3.325  24.371  0.00  0.00    -0.453 OA
ATOM     19  C   UNL     1      -4.119  -0.221  24.927  0.00  0.00    +0.024 A 
ATOM     21  C   UNL     1      -2.828  -0.198  25.467  0.00  0.00    +0.061 A 
ATOM     22  C   UNL     1      -4.555  -1.324  24.169  0.00  0.00    +0.015 A 
ATOM     23  C   UNL     1      -2.013  -1.287  25.228  0.00  0.00    +0.167 A 
ATOM     26  C   UNL     1      -3.709  -2.413  23.942  0.00  0.00    +0.050 A 
ATOM     27  C   UNL     1      -2.442  -2.363  24.487  0.00  0.00    +0.166 A 
ATOM     30  C   UNL     1      -0.407  -2.732  25.123  0.00  0.00    +0.466 C 
ENDBRANCH  17  19
ENDBRANCH  13   6
BRANCH  14   7
ATOM      3  O   UNL     1      -0.422   1.909  26.065  0.00  0.00    -0.270 OA
ATOM      7  N   UNL     1      -0.025   4.194  26.120  0.00  0.00    -0.304 N 
ATOM     18  C   UNL     1       0.114   2.891  26.575  0.00  0.00    +0.244 C 
ATOM     32  H   UNL     1       0.352   4.966  26.659  0.00  0.00    +0.149 HD
BRANCH  18  20
ATOM     20  C   UNL     1       0.960   2.710  27.781  0.00  0.00    +0.037 A 
ATOM     24  C   UNL     1       0.368   2.290  28.955  0.00  0.00    +0.013 A 
ATOM     25  C   UNL     1       2.313   2.968  27.691  0.00  0.00    +0.013 A 
ATOM     28  C   UNL     1       1.163   2.122  30.088  0.00  0.00    +0.001 A 
ATOM     29  C   UNL     1       3.108   2.799  28.824  0.00  0.00    +0.001 A 
ATOM     31  C   UNL     1       2.533   2.375  30.023  0.00  0.00    +0.000 A 
ENDBRANCH  18  20
ENDBRANCH  14   7
TORSDOF 4
ENDMDL
MODEL 3
REMARK VINA RESULT:       4.5      3.254      5.758
REMARK  Name = 11887237
REMARK  4 active torsions:
REMARK  status: ('A' for Active; 'I' for Inactive)
REMARK    1  A    between atoms: N_6  and  C_13
REMARK    2  A    between atoms: N_7  and  C_14
REMARK    3  A    between atoms: C_17  and  C_19
REMARK    4  A    between atoms: C_18  and  C_20
REMARK                            x       y       z     vdW  Elec       q    Type
REMARK                         _______ _______ _______ _____ _____    ______ ____
ROOT
ATOM      1  O   UNL     1      -2.862   5.089  24.262  0.00  0.00    -0.370 OA
ATOM      2  O   UNL     1      -1.305   2.376  23.930  0.00  0.00    -0.370 OA
ATOM     11  C   UNL     1      -2.366   2.818  24.796  0.00  0.00    +0.176 C 
ATOM     12  C   UNL     1      -2.084   4.266  25.146  0.00  0.00    +0.171 C 
ATOM     13  C   UNL     1      -3.675   2.855  24.029  0.00  0.00    +0.168 C 
ATOM     14  C   UNL     1      -0.610   4.440  24.862  0.00  0.00    +0.130 C 
ATOM     15  C   UNL     1      -3.681   4.257  23.428  0.00  0.00    +0.190 C 
ATOM     16  C   UNL     1      -0.380   3.455  23.731  0.00  0.00    +0.185 C 
ENDROOT
BRANCH  13   6
ATOM      6  N   UNL     1      -4.829   2.537  24.873  0.00  0.00    -0.217 N 
ATOM      8  N   UNL     1      -5.696   3.491  25.225  0.00  0.00    -0.043 NA
ATOM      9  N   UNL     1      -6.302   1.530  26.093  0.00  0.00    -0.108 NA
ATOM     10  N   UNL     1      -6.599   2.868  25.973  0.00  0.00    -0.023 NA
ATOM     17  C   UNL     1      -5.201   1.346  25.401  0.00  0.00    +0.182 A 
BRANCH  17  19
ATOM      4  O   UNL     1      -4.329  -2.881  23.094  0.00  0.00    -0.453 OA
ATOM      5  O   UNL     1      -2.533  -3.451  24.597  0.00  0.00    -0.453 OA
ATOM     19  C   UNL     1      -4.488   0.109  25.220  0.00  0.00    +0.024 A 
ATOM     21  C   UNL     1      -4.840  -0.752  24.176  0.00  0.00    +0.061 A 
ATOM     22  C   UNL     1      -3.438  -0.226  26.096  0.00  0.00    +0.015 A 
ATOM     23  C   UNL     1      -4.127  -1.927  24.044  0.00  0.00    +0.167 A 
ATOM     26  C   UNL     1      -2.732  -1.422  25.940  0.00  0.00    +0.050 A 
ATOM     27  C   UNL     1      -3.102  -2.252  24.901  0.00  0.00    +0.166 A 
ATOM     30  C   UNL     1      -3.316  -3.842  23.450  0.00  0.00    +0.466 C 
ENDBRANCH  17  19
ENDBRANCH  13   6
BRANCH  14   7
ATOM      3  O   UNL     1      -0.547   1.915  26.230  0.00  0.00    -0.270 OA
ATOM      7  N   UNL     1       0.188   4.105  26.017  0.00  0.00    -0.304 N 
ATOM     18  C   UNL     1       0.150   2.852  26.612  0.00  0.00    +0.244 C 
ATOM     32  H   UNL     1       0.698   4.864  26.457  0.00  0.00    +0.149 HD
BRANCH  18  20
ATOM     20  C   UNL     1       1.009   2.675  27.810  0.00  0.00    +0.037 A 
ATOM     24  C   UNL     1       2.358   2.947  27.709  0.00  0.00    +0.013 A 
ATOM     25  C   UNL     1       0.431   2.244  28.987  0.00  0.00    +0.013 A 
ATOM     28  C   UNL     1       3.165   2.779  28.834  0.00  0.00    +0.001 A 
ATOM     29  C   UNL     1       1.238   2.076  30.112  0.00  0.00    +0.001 A 
ATOM     31  C   UNL     1       2.605   2.344  30.036  0.00  0.00    +0.000 A 
ENDBRANCH  18  20
ENDBRANCH  14   7
TORSDOF 4
ENDMDL
MODEL 4
REMARK VINA RESULT:       4.6      2.093      4.161
REMARK  Name = 11887237
REMARK  4 active torsions:
REMARK  status: ('A' for Active; 'I' for Inactive)
REMARK    1  A    between atoms: N_6  and  C_13
REMARK    2  A    between atoms: N_7  and  C_14
REMARK    3  A    between atoms: C_17  and  C_19
REMARK    4  A    between atoms: C_18  and  C_20
REMARK                            x       y       z     vdW  Elec       q    Type
REMARK                         _______ _______ _______ _____ _____    ______ ____
ROOT
ATOM      1  O   UNL     1      -2.559   3.426  26.846  0.00  0.00    -0.370 OA
ATOM      2  O   UNL     1      -2.339   4.838  24.044  0.00  0.00    -0.370 OA
ATOM     11  C   UNL     1      -3.003   3.651  24.515  0.00  0.00    +0.176 C 
ATOM     12  C   UNL     1      -2.098   3.012  25.550  0.00  0.00    +0.171 C 
ATOM     13  C   UNL     1      -4.257   4.030  25.280  0.00  0.00    +0.168 C 
ATOM     14  C   UNL     1      -0.734   3.598  25.267  0.00  0.00    +0.130 C 
ATOM     15  C   UNL     1      -3.746   4.219  26.704  0.00  0.00    +0.190 C 
ATOM     16  C   UNL     1      -1.078   4.969  24.715  0.00  0.00    +0.185 C 
ENDROOT
BRANCH  13   6
ATOM      6  N   UNL     1      -5.327   3.041  25.131  0.00  0.00    -0.217 N 
ATOM      8  N   UNL     1      -6.608   3.404  25.244  0.00  0.00    -0.043 NA
ATOM      9  N   UNL     1      -6.452   1.220  24.828  0.00  0.00    -0.108 NA
ATOM     10  N   UNL     1      -7.294   2.283  25.056  0.00  0.00    -0.023 NA
ATOM     17  C   UNL     1      -5.236   1.713  24.878  0.00  0.00    +0.182 A 
BRANCH  17  19
ATOM      4  O   UNL     1      -1.590  -1.138  26.468  0.00  0.00    -0.453 OA
ATOM      5  O   UNL     1      -0.483  -1.095  24.327  0.00  0.00    -0.453 OA
ATOM     19  C   UNL     1      -4.001   0.994  24.701  0.00  0.00    +0.024 A 
ATOM     21  C   UNL     1      -3.453   0.277  25.769  0.00  0.00    +0.061 A 
ATOM     22  C   UNL     1      -3.352   1.018  23.451  0.00  0.00    +0.015 A 
ATOM     23  C   UNL     1      -2.267  -0.395  25.551  0.00  0.00    +0.167 A 
ATOM     26  C   UNL     1      -2.153   0.329  23.257  0.00  0.00    +0.050 A 
ATOM     27  C   UNL     1      -1.636  -0.370  24.329  0.00  0.00    +0.166 A 
ATOM     30  C   UNL     1      -0.462  -1.580  25.686  0.00  0.00    +0.466 C 
ENDBRANCH  17  19
ENDBRANCH  13   6
BRANCH  14   7
ATOM      3  O   UNL     1       1.242   1.587  25.812  0.00  0.00    -0.270 OA
ATOM      7  N   UNL     1      -0.018   2.808  24.295  0.00  0.00    -0.304 N 
ATOM     18  C   UNL     1       0.924   1.855  24.656  0.00  0.00    +0.244 C 
ATOM     32  H   UNL     1      -0.144   3.057  23.320  0.00  0.00    +0.149 HD
BRANCH  18  20
ATOM     20  C   UNL     1       1.593   1.145  23.536  0.00  0.00    +0.037 A 
ATOM     24  C   UNL     1       0.837   0.332  22.717  0.00  0.00    +0.013 A 
ATOM     25  C   UNL     1       2.949   1.321  23.351  0.00  0.00    +0.013 A 
ATOM     28  C   UNL     1       1.466  -0.336  21.666  0.00  0.00    +0.001 A 
ATOM     29  C   UNL     1       3.578   0.653  22.301  0.00  0.00    +0.001 A 
ATOM     31  C   UNL     1       2.836  -0.175  21.457  0.00  0.00    +0.000 A 
ENDBRANCH  18  20
ENDBRANCH  14   7
TORSDOF 4
ENDMDL
MODEL 5
REMARK VINA RESULT:       4.6      2.614      6.413
REMARK  Name = 11887237
REMARK  4 active torsions:
REMARK  status: ('A' for Active; 'I' for Inactive)
REMARK    1  A    between atoms: N_6  and  C_13
REMARK    2  A    between atoms: N_7  and  C_14
REMARK    3  A    between atoms: C_17  and  C_19
REMARK    4  A    between atoms: C_18  and  C_20
REMARK                            x       y       z     vdW  Elec       q    Type
REMARK                         _______ _______ _______ _____ _____    ______ ____
ROOT
ATOM      1  O   UNL     1       0.159  -1.880  25.969  0.00  0.00    -0.370 OA
ATOM      2  O   UNL     1      -1.784  -1.687  23.502  0.00  0.00    -0.370 OA
ATOM     11  C   UNL     1      -0.738  -0.843  24.018  0.00  0.00    +0.176 C 
ATOM     12  C   UNL     1      -0.811  -0.915  25.531  0.00  0.00    +0.171 C 
ATOM     13  C   UNL     1       0.617  -1.429  23.669  0.00  0.00    +0.168 C 
ATOM     14  C   UNL     1      -2.210  -1.411  25.816  0.00  0.00    +0.130 C 
ATOM     15  C   UNL     1       0.897  -2.366  24.839  0.00  0.00    +0.190 C 
ATOM     16  C   UNL     1      -2.503  -2.268  24.599  0.00  0.00    +0.185 C 
ENDROOT
BRANCH  13   6
ATOM      6  N   UNL     1       1.632  -0.398  23.442  0.00  0.00    -0.217 N 
ATOM      8  N   UNL     1       2.877  -0.737  23.093  0.00  0.00    -0.043 NA
ATOM      9  N   UNL     1       2.686   1.479  23.243  0.00  0.00    -0.108 NA
ATOM     10  N   UNL     1       3.520   0.418  22.971  0.00  0.00    -0.023 NA
ATOM     17  C   UNL     1       1.520   0.949  23.531  0.00  0.00    +0.182 A 
BRANCH  17  19
ATOM      4  O   UNL     1      -1.288   3.488  26.633  0.00  0.00    -0.453 OA
ATOM      5  O   UNL     1      -3.076   3.672  25.028  0.00  0.00    -0.453 OA
ATOM     19  C   UNL     1       0.313   1.650  23.888  0.00  0.00    +0.024 A 
ATOM     21  C   UNL     1       0.187   2.218  25.159  0.00  0.00    +0.061 A 
ATOM     22  C   UNL     1      -0.733   1.759  22.952  0.00  0.00    +0.015 A 
ATOM     23  C   UNL     1      -0.989   2.879  25.454  0.00  0.00    +0.167 A 
ATOM     26  C   UNL     1      -1.912   2.433  23.275  0.00  0.00    +0.050 A 
ATOM     27  C   UNL     1      -2.009   2.984  24.537  0.00  0.00    +0.166 A 
ATOM     30  C   UNL     1      -2.611   3.989  26.356  0.00  0.00    +0.466 C 
ENDBRANCH  17  19
ENDBRANCH  13   6
BRANCH  14   7
ATOM      3  O   UNL     1      -4.567  -1.006  24.226  0.00  0.00    -0.270 OA
ATOM      7  N   UNL     1      -3.142  -0.314  25.920  0.00  0.00    -0.304 N 
ATOM     18  C   UNL     1      -4.258  -0.203  25.102  0.00  0.00    +0.244 C 
ATOM     32  H   UNL     1      -2.887   0.446  26.541  0.00  0.00    +0.149 HD
BRANCH  18  20
ATOM     20  C   UNL     1      -5.103   0.999  25.316  0.00  0.00    +0.037 A 
ATOM     24  C   UNL     1      -5.204   1.931  24.304  0.00  0.00    +0.013 A 
ATOM     25  C   UNL     1      -5.761   1.146  26.520  0.00  0.00    +0.013 A 
ATOM     28  C   UNL     1      -5.997   3.061  24.505  0.00  0.00    +0.001 A 
ATOM     29  C   UNL     1      -6.554   2.275  26.721  0.00  0.00    +0.001 A 
ATOM     31  C   UNL     1      -6.673   3.233  25.713  0.00  0.00    +0.000 A 
ENDBRANCH  18  20
ENDBRANCH  14   7
TORSDOF 4
ENDMDL
MODEL 6
REMARK VINA RESULT:       4.8      3.030      5.859
REMARK  Name = 11887237
REMARK  4 active torsions:
REMARK  status: ('A' for Active; 'I' for Inactive)
REMARK    1  A    between atoms: N_6  and  C_13
REMARK    2  A    between atoms: N_7  and  C_14
REMARK    3  A    between atoms: C_17  and  C_19
REMARK    4  A    between atoms: C_18  and  C_20
REMARK                            x       y       z     vdW  Elec       q    Type
REMARK                         _______ _______ _______ _____ _____    ______ ____
ROOT
ATOM      1  O   UNL     1      -0.272  -1.792  23.936  0.00  0.00    -0.370 OA
ATOM      2  O   UNL     1      -1.424  -0.477  26.551  0.00  0.00    -0.370 OA
ATOM     11  C   UNL     1      -1.992  -0.826  25.276  0.00  0.00    +0.176 C 
ATOM     12  C   UNL     1      -0.934  -0.550  24.224  0.00  0.00    +0.171 C 
ATOM     13  C   UNL     1      -2.224  -2.324  25.206  0.00  0.00    +0.168 C 
ATOM     14  C   UNL     1       0.021   0.409  24.897  0.00  0.00    +0.130 C 
ATOM     15  C   UNL     1      -0.895  -2.852  24.676  0.00  0.00    +0.190 C 
ATOM     16  C   UNL     1      -0.086   0.004  26.355  0.00  0.00    +0.185 C 
ENDROOT
BRANCH  13   6
ATOM      6  N   UNL     1      -3.396  -2.673  24.401  0.00  0.00    -0.217 N 
ATOM      8  N   UNL     1      -3.640  -3.946  24.074  0.00  0.00    -0.043 NA
ATOM      9  N   UNL     1      -5.214  -2.611  23.232  0.00  0.00    -0.108 NA
ATOM     10  N   UNL     1      -4.757  -3.902  23.358  0.00  0.00    -0.023 NA
ATOM     17  C   UNL     1      -4.355  -1.865  23.889  0.00  0.00    +0.182 A 
BRANCH  17  19
ATOM      4  O   UNL     1      -5.907   2.228  26.077  0.00  0.00    -0.453 OA
ATOM      5  O   UNL     1      -4.601   3.629  24.615  0.00  0.00    -0.453 OA
ATOM     19  C   UNL     1      -4.395  -0.435  24.051  0.00  0.00    +0.024 A 
ATOM     21  C   UNL     1      -5.190   0.131  25.053  0.00  0.00    +0.061 A 
ATOM     22  C   UNL     1      -3.633   0.386  23.198  0.00  0.00    +0.015 A 
ATOM     23  C   UNL     1      -5.197   1.507  25.168  0.00  0.00    +0.167 A 
ATOM     26  C   UNL     1      -3.657   1.776  23.336  0.00  0.00    +0.050 A 
ATOM     27  C   UNL     1      -4.451   2.306  24.333  0.00  0.00    +0.166 A 
ATOM     30  C   UNL     1      -5.524   3.572  25.721  0.00  0.00    +0.466 C 
ENDBRANCH  17  19
ENDBRANCH  13   6
BRANCH  14   7
ATOM      3  O   UNL     1      -0.225   2.431  26.922  0.00  0.00    -0.270 OA
ATOM      7  N   UNL     1      -0.391   1.778  24.703  0.00  0.00    -0.304 N 
ATOM     18  C   UNL     1      -0.481   2.686  25.748  0.00  0.00    +0.244 C 
ATOM     32  H   UNL     1      -0.729   2.027  23.779  0.00  0.00    +0.149 HD
BRANCH  18  20
ATOM     20  C   UNL     1      -0.947   4.049  25.387  0.00  0.00    +0.037 A 
ATOM     24  C   UNL     1      -2.100   4.535  25.968  0.00  0.00    +0.013 A 
ATOM     25  C   UNL     1      -0.212   4.787  24.482  0.00  0.00    +0.013 A 
ATOM     28  C   UNL     1      -2.538   5.815  25.629  0.00  0.00    +0.001 A 
ATOM     29  C   UNL     1      -0.649   6.066  24.142  0.00  0.00    +0.001 A 
ATOM     31  C   UNL     1      -1.813   6.581  24.716  0.00  0.00    +0.000 A 
ENDBRANCH  18  20
ENDBRANCH  14   7
TORSDOF 4
ENDMDL
