MODEL 1
REMARK VINA RESULT:      -4.5      0.000      0.000
REMARK  Name = 51137904
REMARK  7 active torsions:
REMARK  status: ('A' for Active; 'I' for Inactive)
REMARK    1  A    between atoms: O_2  and  C_23
REMARK    2  A    between atoms: O_2  and  C_26
REMARK    3  A    between atoms: O_3  and  C_25
REMARK    4  A    between atoms: O_3  and  C_27
REMARK    5  A    between atoms: N_5  and  C_15
REMARK    6  A    between atoms: C_7  and  C_11
REMARK    7  A    between atoms: C_12  and  C_16
REMARK                            x       y       z     vdW  Elec       q    Type
REMARK                         _______ _______ _______ _____ _____    ______ ____
ROOT
ATOM      1  O   UNL     1      -6.521  -7.722   9.539  0.00  0.00    -0.270 OA
ATOM      4  N   UNL     1      -7.351  -9.459  10.837  0.00  0.00    -0.297 N 
ATOM      7  C   UNL     1      -8.609 -10.766  12.377  0.00  0.00    +0.074 C 
ATOM      8  C   UNL     1      -9.505 -10.354  11.199  0.00  0.00    +0.032 C 
ATOM      9  C   UNL     1      -7.203 -10.554  11.798  0.00  0.00    +0.119 C 
ATOM     10  C   UNL     1      -8.754  -9.194  10.558  0.00  0.00    +0.109 C 
ATOM     12  C   UNL     1      -6.345  -8.680  10.287  0.00  0.00    +0.247 C 
ENDROOT
BRANCH   7  11
ATOM      5  N   UNL     1      -8.158 -10.029  14.752  0.00  0.00    -0.330 N 
ATOM      6  N   UNL     1      -9.997  -9.215  13.807  0.00  0.00    -0.232 NA
ATOM     11  C   UNL     1      -8.948  -9.989  13.638  0.00  0.00    +0.115 A 
ATOM     13  C   UNL     1      -8.735  -9.228  15.704  0.00  0.00    +0.069 A 
ATOM     14  C   UNL     1      -9.881  -8.733  15.090  0.00  0.00    +0.089 A 
ATOM     15  C   UNL     1      -6.932 -10.781  14.906  0.00  0.00    +0.150 C 
ATOM     17  C   UNL     1      -8.364  -8.906  17.011  0.00  0.00    +0.028 A 
ATOM     18  C   UNL     1     -10.719  -7.860  15.806  0.00  0.00    +0.030 A 
ATOM     21  C   UNL     1      -9.209  -8.038  17.708  0.00  0.00    +0.002 A 
ATOM     22  C   UNL     1     -10.367  -7.523  17.118  0.00  0.00    +0.002 A 
ENDBRANCH   7  11
BRANCH  12  16
ATOM     16  C   UNL     1      -4.957  -9.016  10.641  0.00  0.00    +0.041 A 
ATOM     19  C   UNL     1      -4.675  -9.612  11.872  0.00  0.00    +0.062 A 
ATOM     20  C   UNL     1      -3.922  -8.740   9.747  0.00  0.00    +0.017 A 
ATOM     23  C   UNL     1      -3.360  -9.931  12.206  0.00  0.00    +0.162 A 
ATOM     24  C   UNL     1      -2.607  -9.059  10.083  0.00  0.00    +0.050 A 
ATOM     25  C   UNL     1      -2.326  -9.654  11.312  0.00  0.00    +0.162 A 
BRANCH  23   2
ATOM      2  O   UNL     1      -3.097 -10.512  13.411  0.00  0.00    -0.491 OA
ATOM     26  C   UNL     1      -4.152 -10.516  14.371  0.00  0.00    +0.277 C 
ENDBRANCH  23   2
BRANCH  25   3
ATOM      3  O   UNL     1      -1.036  -9.962  11.628  0.00  0.00    -0.491 OA
ATOM     27  C   UNL     1      -0.030  -9.040  11.213  0.00  0.00    +0.277 C 
ENDBRANCH  25   3
ENDBRANCH  12  16
TORSDOF 4
ENDMDL
