MODEL 1
REMARK VINA RESULT:       9.9      0.000      0.000
REMARK  Name = 7674728
REMARK  4 active torsions:
REMARK  status: ('A' for Active; 'I' for Inactive)
REMARK    1  A    between atoms: O_7  and  C_31
REMARK    2  A    between atoms: O_7  and  C_35
REMARK    3  A    between atoms: N_10  and  C_24
REMARK    4  A    between atoms: C_21  and  C_23
REMARK                            x       y       z     vdW  Elec       q    Type
REMARK                         _______ _______ _______ _____ _____    ______ ____
ROOT
ATOM      5  O   UNL     1       0.542   1.928  26.060  0.00  0.00    -0.267 OA
ATOM      6  O   UNL     1      -4.537   1.581  23.297  0.00  0.00    -0.252 OA
ATOM      8  N   UNL     1      -4.296   2.922  25.167  0.00  0.00    -0.284 N 
ATOM      9  N   UNL     1      -1.151   3.406  25.440  0.00  0.00    -0.311 N 
ATOM     10  N   UNL     1      -4.571   0.589  25.393  0.00  0.00    -0.269 N 
ATOM     11  C   UNL     1      -3.054   4.061  27.022  0.00  0.00    +0.027 C 
ATOM     12  C   UNL     1      -2.981   4.994  24.750  0.00  0.00    +0.054 C 
ATOM     13  C   UNL     1      -3.088   5.361  26.228  0.00  0.00    +0.018 C 
ATOM     14  C   UNL     1      -1.692   3.388  26.806  0.00  0.00    +0.130 C 
ATOM     15  C   UNL     1      -4.221   3.137  26.621  0.00  0.00    +0.114 C 
ATOM     16  C   UNL     1      -4.198   4.140  24.354  0.00  0.00    +0.119 C 
ATOM     17  C   UNL     1      -1.702   4.232  24.458  0.00  0.00    +0.027 A 
ATOM     18  C   UNL     1      -1.119   4.325  23.252  0.00  0.00    +0.022 A 
ATOM     19  C   UNL     1       0.006   2.639  25.207  0.00  0.00    +0.259 A 
ATOM     20  C   UNL     1      -4.468   1.675  24.524  0.00  0.00    +0.306 C 
ATOM     21  C   UNL     1       0.613   2.731  23.833  0.00  0.00    +0.047 A 
ATOM     22  C   UNL     1       0.052   3.557  22.937  0.00  0.00    +0.015 A 
ATOM     36  H   UNL     1      -4.941   0.753  26.324  0.00  0.00    +0.156 HD
ENDROOT
BRANCH  10  24
ATOM      1  F   UNL     1      -4.862  -3.258  22.540  0.00  0.00    -0.205 F 
ATOM     24  C   UNL     1      -4.259  -0.764  25.114  0.00  0.00    +0.037 A 
ATOM     29  C   UNL     1      -4.725  -1.353  23.942  0.00  0.00    +0.061 A 
ATOM     30  C   UNL     1      -3.488  -1.496  26.013  0.00  0.00    +0.023 A 
ATOM     32  C   UNL     1      -4.417  -2.685  23.667  0.00  0.00    +0.125 A 
ATOM     33  C   UNL     1      -3.181  -2.827  25.738  0.00  0.00    +0.005 A 
ATOM     34  C   UNL     1      -3.645  -3.423  24.565  0.00  0.00    +0.038 A 
ENDBRANCH  10  24
BRANCH  21  23
ATOM     23  C   UNL     1       1.792   1.930  23.464  0.00  0.00    -0.012 A 
ATOM     25  C   UNL     1       1.743   0.537  23.539  0.00  0.00    +0.012 A 
ATOM     26  C   UNL     1       2.961   2.563  23.038  0.00  0.00    +0.012 A 
ATOM     27  C   UNL     1       2.860  -0.221  23.189  0.00  0.00    +0.046 A 
ATOM     28  C   UNL     1       4.078   1.804  22.688  0.00  0.00    +0.046 A 
ATOM     31  C   UNL     1       4.027   0.412  22.763  0.00  0.00    +0.130 A 
BRANCH  31   7
ATOM      7  O   UNL     1       5.117  -0.328  22.423  0.00  0.00    -0.406 OA
BRANCH   7  35
ATOM      2  F   UNL     1       5.827  -1.902  23.923  0.00  0.00    -0.133 F 
ATOM      3  F   UNL     1       5.906   0.213  24.468  0.00  0.00    -0.133 F 
ATOM      4  F   UNL     1       7.320  -0.564  22.993  0.00  0.00    -0.133 F 
ATOM     35  C   UNL     1       6.051  -0.660  23.445  0.00  0.00    +0.575 C 
ENDBRANCH   7  35
ENDBRANCH  31   7
ENDBRANCH  21  23
TORSDOF 4
ENDMDL
