MODEL 1
REMARK VINA RESULT:      -6.8      0.000      0.000
REMARK  Name = 26744270
REMARK  4 active torsions:
REMARK  status: ('A' for Active; 'I' for Inactive)
REMARK    1  A    between atoms: O_2  and  C_11
REMARK    2  A    between atoms: N_4  and  C_8
REMARK    3  A    between atoms: C_7  and  C_17
REMARK    4  A    between atoms: C_12  and  C_18
REMARK                            x       y       z     vdW  Elec       q    Type
REMARK                         _______ _______ _______ _____ _____    ______ ____
ROOT
ATOM      4  N   UNL     1      -2.973   0.154  24.279  0.00  0.00    -0.286 NA
ATOM      7  C   UNL     1      -1.784  -0.430  24.933  0.00  0.00    +0.149 C 
ATOM      9  C   UNL     1      -1.957  -1.951  24.778  0.00  0.00    +0.061 C 
ATOM     10  C   UNL     1      -4.036  -0.844  24.385  0.00  0.00    +0.116 C 
ATOM     11  C   UNL     1      -3.291  -2.126  24.065  0.00  0.00    +0.130 C 
ENDROOT
BRANCH   4   8
ATOM      1  O   UNL     1      -5.050   3.775  24.728  0.00  0.00    -0.380 OA
ATOM      8  C   UNL     1      -3.369   1.442  24.846  0.00  0.00    +0.062 C 
ATOM     15  C   UNL     1      -3.145   2.564  23.828  0.00  0.00    +0.047 C 
ATOM     16  C   UNL     1      -4.835   1.421  25.291  0.00  0.00    +0.047 C 
ATOM     19  C   UNL     1      -3.672   3.886  24.373  0.00  0.00    +0.161 C 
ATOM     20  C   UNL     1      -5.268   2.807  25.755  0.00  0.00    +0.161 C 
ENDBRANCH   4   8
BRANCH   7  17
ATOM      3  O   UNL     1      -0.107   1.332  24.698  0.00  0.00    -0.336 OA
ATOM      5  N   UNL     1       0.343  -0.522  23.524  0.00  0.00    -0.194 NA
ATOM      6  N   UNL     1       1.105   1.574  24.038  0.00  0.00    -0.061 NA
ATOM     17  C   UNL     1      -0.486   0.077  24.341  0.00  0.00    +0.245 A 
ATOM     18  C   UNL     1       1.304   0.434  23.366  0.00  0.00    +0.175 A 
BRANCH  18  12
ATOM     12  C   UNL     1       2.532   0.220  22.478  0.00  0.00    +0.060 C 
ATOM     13  C   UNL     1       3.744  -0.439  23.068  0.00  0.00    +0.012 C 
ATOM     14  C   UNL     1       3.767   1.026  22.749  0.00  0.00    +0.012 C 
ENDBRANCH  18  12
ENDBRANCH   7  17
BRANCH  11   2
ATOM      2  O   UNL     1      -3.975  -3.265  24.552  0.00  0.00    -0.390 OA
ATOM     21  H   UNL     1      -3.346  -4.007  24.549  0.00  0.00    +0.210 HD
ENDBRANCH  11   2
TORSDOF 4
ENDMDL
MODEL 2
REMARK VINA RESULT:      -5.7      1.155      3.912
REMARK  Name = 26744270
REMARK  4 active torsions:
REMARK  status: ('A' for Active; 'I' for Inactive)
REMARK    1  A    between atoms: O_2  and  C_11
REMARK    2  A    between atoms: N_4  and  C_8
REMARK    3  A    between atoms: C_7  and  C_17
REMARK    4  A    between atoms: C_12  and  C_18
REMARK                            x       y       z     vdW  Elec       q    Type
REMARK                         _______ _______ _______ _____ _____    ______ ____
ROOT
ATOM      4  N   UNL     1      -3.716   1.131  25.322  0.00  0.00    -0.286 NA
ATOM      7  C   UNL     1      -3.120   1.686  24.090  0.00  0.00    +0.149 C 
ATOM      9  C   UNL     1      -3.517   3.173  24.096  0.00  0.00    +0.061 C 
ATOM     10  C   UNL     1      -4.890   1.950  25.618  0.00  0.00    +0.116 C 
ATOM     11  C   UNL     1      -4.372   3.348  25.344  0.00  0.00    +0.130 C 
ENDROOT
BRANCH   4   8
ATOM      1  O   UNL     1      -3.361  -2.914  24.254  0.00  0.00    -0.380 OA
ATOM      8  C   UNL     1      -4.048  -0.288  25.212  0.00  0.00    +0.062 C 
ATOM     15  C   UNL     1      -4.194  -0.690  23.742  0.00  0.00    +0.047 C 
ATOM     16  C   UNL     1      -2.984  -1.157  25.890  0.00  0.00    +0.047 C 
ATOM     19  C   UNL     1      -4.418  -2.192  23.623  0.00  0.00    +0.161 C 
ATOM     20  C   UNL     1      -3.275  -2.634  25.652  0.00  0.00    +0.161 C 
ENDBRANCH   4   8
BRANCH   7  17
ATOM      3  O   UNL     1      -0.849   2.470  24.545  0.00  0.00    -0.336 OA
ATOM      5  N   UNL     1      -0.942   0.472  23.536  0.00  0.00    -0.194 NA
ATOM      6  N   UNL     1       0.479   2.057  24.374  0.00  0.00    -0.061 NA
ATOM     17  C   UNL     1      -1.621   1.480  24.025  0.00  0.00    +0.245 A 
ATOM     18  C   UNL     1       0.341   0.871  23.773  0.00  0.00    +0.175 A 
BRANCH  18  12
ATOM     12  C   UNL     1       1.548   0.018  23.377  0.00  0.00    +0.060 C 
ATOM     13  C   UNL     1       2.710   0.682  22.697  0.00  0.00    +0.012 C 
ATOM     14  C   UNL     1       1.808  -0.231  21.920  0.00  0.00    +0.012 C 
ENDBRANCH  18  12
ENDBRANCH   7  17
BRANCH  11   2
ATOM      2  O   UNL     1      -5.426   4.261  25.106  0.00  0.00    -0.390 OA
ATOM     21  H   UNL     1      -5.188   5.100  25.536  0.00  0.00    +0.210 HD
ENDBRANCH  11   2
TORSDOF 4
ENDMDL
MODEL 3
REMARK VINA RESULT:      -5.5      1.999      4.086
REMARK  Name = 26744270
REMARK  4 active torsions:
REMARK  status: ('A' for Active; 'I' for Inactive)
REMARK    1  A    between atoms: O_2  and  C_11
REMARK    2  A    between atoms: N_4  and  C_8
REMARK    3  A    between atoms: C_7  and  C_17
REMARK    4  A    between atoms: C_12  and  C_18
REMARK                            x       y       z     vdW  Elec       q    Type
REMARK                         _______ _______ _______ _____ _____    ______ ____
ROOT
ATOM      4  N   UNL     1      -0.974   0.674  24.767  0.00  0.00    -0.286 NA
ATOM      7  C   UNL     1      -0.362   1.474  23.686  0.00  0.00    +0.149 C 
ATOM      9  C   UNL     1      -0.220   2.889  24.275  0.00  0.00    +0.061 C 
ATOM     10  C   UNL     1      -1.755   1.605  25.579  0.00  0.00    +0.116 C 
ATOM     11  C   UNL     1      -0.820   2.796  25.672  0.00  0.00    +0.130 C 
ENDROOT
BRANCH   4   8
ATOM      1  O   UNL     1      -3.610  -2.593  24.826  0.00  0.00    -0.380 OA
ATOM      8  C   UNL     1      -1.784  -0.438  24.273  0.00  0.00    +0.062 C 
ATOM     15  C   UNL     1      -1.331  -1.753  24.914  0.00  0.00    +0.047 C 
ATOM     16  C   UNL     1      -3.272  -0.202  24.552  0.00  0.00    +0.047 C 
ATOM     19  C   UNL     1      -2.253  -2.891  24.495  0.00  0.00    +0.161 C 
ATOM     20  C   UNL     1      -4.086  -1.428  24.153  0.00  0.00    +0.161 C 
ENDBRANCH   4   8
BRANCH   7  17
ATOM      3  O   UNL     1       0.889  -0.099  22.295  0.00  0.00    -0.336 OA
ATOM      5  N   UNL     1       2.176   1.228  23.559  0.00  0.00    -0.194 NA
ATOM      6  N   UNL     1       2.213  -0.458  22.013  0.00  0.00    -0.061 NA
ATOM     17  C   UNL     1       0.957   0.900  23.213  0.00  0.00    +0.245 A 
ATOM     18  C   UNL     1       2.913   0.368  22.797  0.00  0.00    +0.175 A 
BRANCH  18  12
ATOM     12  C   UNL     1       4.443   0.348  22.836  0.00  0.00    +0.060 C 
ATOM     13  C   UNL     1       5.131  -0.702  23.659  0.00  0.00    +0.012 C 
ATOM     14  C   UNL     1       5.136   0.728  24.112  0.00  0.00    +0.012 C 
ENDBRANCH  18  12
ENDBRANCH   7  17
BRANCH  11   2
ATOM      2  O   UNL     1      -1.515   3.984  26.000  0.00  0.00    -0.390 OA
ATOM     21  H   UNL     1      -2.363   3.967  25.525  0.00  0.00    +0.210 HD
ENDBRANCH  11   2
TORSDOF 4
ENDMDL
MODEL 4
REMARK VINA RESULT:      -5.2      1.345      1.754
REMARK  Name = 26744270
REMARK  4 active torsions:
REMARK  status: ('A' for Active; 'I' for Inactive)
REMARK    1  A    between atoms: O_2  and  C_11
REMARK    2  A    between atoms: N_4  and  C_8
REMARK    3  A    between atoms: C_7  and  C_17
REMARK    4  A    between atoms: C_12  and  C_18
REMARK                            x       y       z     vdW  Elec       q    Type
REMARK                         _______ _______ _______ _____ _____    ______ ____
ROOT
ATOM      4  N   UNL     1      -2.223   0.592  24.006  0.00  0.00    -0.286 NA
ATOM      7  C   UNL     1      -1.042   0.056  24.713  0.00  0.00    +0.149 C 
ATOM      9  C   UNL     1      -1.408  -1.402  25.042  0.00  0.00    +0.061 C 
ATOM     10  C   UNL     1      -3.375  -0.164  24.493  0.00  0.00    +0.116 C 
ATOM     11  C   UNL     1      -2.829  -1.579  24.522  0.00  0.00    +0.130 C 
ENDROOT
BRANCH   4   8
ATOM      1  O   UNL     1      -3.353   4.222  25.788  0.00  0.00    -0.380 OA
ATOM      8  C   UNL     1      -2.395   2.033  24.183  0.00  0.00    +0.062 C 
ATOM     15  C   UNL     1      -3.882   2.382  24.292  0.00  0.00    +0.047 C 
ATOM     16  C   UNL     1      -1.647   2.529  25.424  0.00  0.00    +0.047 C 
ATOM     19  C   UNL     1      -4.057   3.864  24.599  0.00  0.00    +0.161 C 
ATOM     20  C   UNL     1      -1.947   4.004  25.669  0.00  0.00    +0.161 C 
ENDBRANCH   4   8
BRANCH   7  17
ATOM      3  O   UNL     1       0.300  -0.596  22.777  0.00  0.00    -0.336 OA
ATOM      5  N   UNL     1       1.285   0.915  24.106  0.00  0.00    -0.194 NA
ATOM      6  N   UNL     1       1.545  -0.319  22.196  0.00  0.00    -0.061 NA
ATOM     17  C   UNL     1       0.228   0.172  23.896  0.00  0.00    +0.245 A 
ATOM     18  C   UNL     1       2.066   0.580  23.038  0.00  0.00    +0.175 A 
BRANCH  18  12
ATOM     12  C   UNL     1       3.451   1.192  22.815  0.00  0.00    +0.060 C 
ATOM     13  C   UNL     1       4.469   0.412  22.035  0.00  0.00    +0.012 C 
ATOM     14  C   UNL     1       4.630   0.584  23.517  0.00  0.00    +0.012 C 
ENDBRANCH  18  12
ENDBRANCH   7  17
BRANCH  11   2
ATOM      2  O   UNL     1      -3.579  -2.413  25.384  0.00  0.00    -0.390 OA
ATOM     21  H   UNL     1      -3.090  -2.482  26.222  0.00  0.00    +0.210 HD
ENDBRANCH  11   2
TORSDOF 4
ENDMDL
MODEL 5
REMARK VINA RESULT:      -5.0      1.913      5.937
REMARK  Name = 26744270
REMARK  4 active torsions:
REMARK  status: ('A' for Active; 'I' for Inactive)
REMARK    1  A    between atoms: O_2  and  C_11
REMARK    2  A    between atoms: N_4  and  C_8
REMARK    3  A    between atoms: C_7  and  C_17
REMARK    4  A    between atoms: C_12  and  C_18
REMARK                            x       y       z     vdW  Elec       q    Type
REMARK                         _______ _______ _______ _____ _____    ______ ____
ROOT
ATOM      4  N   UNL     1      -0.951   0.346  23.714  0.00  0.00    -0.286 NA
ATOM      7  C   UNL     1      -0.824   1.110  24.972  0.00  0.00    +0.149 C 
ATOM      9  C   UNL     1       0.494   1.892  24.825  0.00  0.00    +0.061 C 
ATOM     10  C   UNL     1       0.408   0.120  23.227  0.00  0.00    +0.116 C 
ATOM     11  C   UNL     1       1.056   1.469  23.474  0.00  0.00    +0.130 C 
ENDROOT
BRANCH   4   8
ATOM      1  O   UNL     1      -3.640  -2.448  25.325  0.00  0.00    -0.380 OA
ATOM      8  C   UNL     1      -1.694  -0.903  23.872  0.00  0.00    +0.062 C 
ATOM     15  C   UNL     1      -1.389  -1.537  25.232  0.00  0.00    +0.047 C 
ATOM     16  C   UNL     1      -3.202  -0.670  23.728  0.00  0.00    +0.047 C 
ATOM     19  C   UNL     1      -2.255  -2.772  25.447  0.00  0.00    +0.161 C 
ATOM     20  C   UNL     1      -3.968  -1.953  24.026  0.00  0.00    +0.161 C 
ENDBRANCH   4   8
BRANCH   7  17
ATOM      3  O   UNL     1      -1.742   3.256  25.696  0.00  0.00    -0.336 OA
ATOM      5  N   UNL     1      -3.290   1.763  25.070  0.00  0.00    -0.194 NA
ATOM      6  N   UNL     1      -2.981   3.890  25.854  0.00  0.00    -0.061 NA
ATOM     17  C   UNL     1      -2.014   2.008  25.231  0.00  0.00    +0.245 A 
ATOM     18  C   UNL     1      -3.844   2.946  25.464  0.00  0.00    +0.175 A 
BRANCH  18  12
ATOM     12  C   UNL     1      -5.357   3.180  25.463  0.00  0.00    +0.060 C 
ATOM     13  C   UNL     1      -6.216   2.355  26.376  0.00  0.00    +0.012 C 
ATOM     14  C   UNL     1      -6.250   2.117  24.895  0.00  0.00    +0.012 C 
ENDBRANCH  18  12
ENDBRANCH   7  17
BRANCH  11   2
ATOM      2  O   UNL     1       2.466   1.373  23.525  0.00  0.00    -0.390 OA
ATOM     21  H   UNL     1       2.817   2.274  23.628  0.00  0.00    +0.210 HD
ENDBRANCH  11   2
TORSDOF 4
ENDMDL
MODEL 6
REMARK VINA RESULT:      -4.8      2.666      4.730
REMARK  Name = 26744270
REMARK  4 active torsions:
REMARK  status: ('A' for Active; 'I' for Inactive)
REMARK    1  A    between atoms: O_2  and  C_11
REMARK    2  A    between atoms: N_4  and  C_8
REMARK    3  A    between atoms: C_7  and  C_17
REMARK    4  A    between atoms: C_12  and  C_18
REMARK                            x       y       z     vdW  Elec       q    Type
REMARK                         _______ _______ _______ _____ _____    ______ ____
ROOT
ATOM      4  N   UNL     1      -2.553   2.990  25.059  0.00  0.00    -0.286 NA
ATOM      7  C   UNL     1      -1.757   2.416  23.956  0.00  0.00    +0.149 C 
ATOM      9  C   UNL     1      -0.457   3.239  23.938  0.00  0.00    +0.061 C 
ATOM     10  C   UNL     1      -2.140   4.387  25.183  0.00  0.00    +0.116 C 
ATOM     11  C   UNL     1      -0.634   4.281  25.035  0.00  0.00    +0.130 C 
ENDROOT
BRANCH   4   8
ATOM      1  O   UNL     1      -6.589   2.242  25.943  0.00  0.00    -0.380 OA
ATOM      8  C   UNL     1      -3.995   2.859  24.858  0.00  0.00    +0.062 C 
ATOM     15  C   UNL     1      -4.445   1.424  25.145  0.00  0.00    +0.047 C 
ATOM     16  C   UNL     1      -4.767   3.839  25.748  0.00  0.00    +0.047 C 
ATOM     19  C   UNL     1      -5.962   1.316  25.056  0.00  0.00    +0.161 C 
ATOM     20  C   UNL     1      -6.267   3.597  25.626  0.00  0.00    +0.161 C 
ENDBRANCH   4   8
BRANCH   7  17
ATOM      3  O   UNL     1      -0.213   0.526  24.092  0.00  0.00    -0.336 OA
ATOM      5  N   UNL     1      -2.370  -0.038  24.313  0.00  0.00    -0.194 NA
ATOM      6  N   UNL     1      -0.236  -0.863  24.274  0.00  0.00    -0.061 NA
ATOM     17  C   UNL     1      -1.509   0.932  24.128  0.00  0.00    +0.245 A 
ATOM     18  C   UNL     1      -1.543  -1.119  24.397  0.00  0.00    +0.175 A 
BRANCH  18  12
ATOM     12  C   UNL     1      -2.074  -2.538  24.617  0.00  0.00    +0.060 C 
ATOM     13  C   UNL     1      -3.423  -2.898  24.067  0.00  0.00    +0.012 C 
ATOM     14  C   UNL     1      -3.235  -2.737  25.546  0.00  0.00    +0.012 C 
ENDBRANCH  18  12
ENDBRANCH   7  17
BRANCH  11   2
ATOM      2  O   UNL     1      -0.056   5.514  24.655  0.00  0.00    -0.390 OA
ATOM     21  H   UNL     1       0.216   5.972  25.468  0.00  0.00    +0.210 HD
ENDBRANCH  11   2
TORSDOF 4
ENDMDL
MODEL 7
REMARK VINA RESULT:      -4.6      2.583      5.378
REMARK  Name = 26744270
REMARK  4 active torsions:
REMARK  status: ('A' for Active; 'I' for Inactive)
REMARK    1  A    between atoms: O_2  and  C_11
REMARK    2  A    between atoms: N_4  and  C_8
REMARK    3  A    between atoms: C_7  and  C_17
REMARK    4  A    between atoms: C_12  and  C_18
REMARK                            x       y       z     vdW  Elec       q    Type
REMARK                         _______ _______ _______ _____ _____    ______ ____
ROOT
ATOM      4  N   UNL     1      -3.510   3.044  24.638  0.00  0.00    -0.286 NA
ATOM      7  C   UNL     1      -4.024   2.125  25.673  0.00  0.00    +0.149 C 
ATOM      9  C   UNL     1      -5.444   2.633  25.980  0.00  0.00    +0.061 C 
ATOM     10  C   UNL     1      -4.198   4.318  24.837  0.00  0.00    +0.116 C 
ATOM     11  C   UNL     1      -5.621   3.866  25.103  0.00  0.00    +0.130 C 
ENDROOT
BRANCH   4   8
ATOM      1  O   UNL     1       0.527   2.051  25.225  0.00  0.00    -0.380 OA
ATOM      8  C   UNL     1      -2.056   3.193  24.669  0.00  0.00    +0.062 C 
ATOM     15  C   UNL     1      -1.532   3.003  26.096  0.00  0.00    +0.047 C 
ATOM     16  C   UNL     1      -1.379   2.194  23.724  0.00  0.00    +0.047 C 
ATOM     19  C   UNL     1      -0.009   3.035  26.109  0.00  0.00    +0.161 C 
ATOM     20  C   UNL     1       0.136   2.272  23.869  0.00  0.00    +0.161 C 
ENDBRANCH   4   8
BRANCH   7  17
ATOM      3  O   UNL     1      -4.952   0.304  24.332  0.00  0.00    -0.336 OA
ATOM      5  N   UNL     1      -3.191  -0.287  25.584  0.00  0.00    -0.194 NA
ATOM      6  N   UNL     1      -4.731  -1.055  24.076  0.00  0.00    -0.061 NA
ATOM     17  C   UNL     1      -4.002   0.678  25.230  0.00  0.00    +0.245 A 
ATOM     18  C   UNL     1      -3.677  -1.330  24.851  0.00  0.00    +0.175 A 
BRANCH  18  12
ATOM     12  C   UNL     1      -3.056  -2.729  24.910  0.00  0.00    +0.060 C 
ATOM     13  C   UNL     1      -1.574  -2.869  24.722  0.00  0.00    +0.012 C 
ATOM     14  C   UNL     1      -2.514  -3.330  23.647  0.00  0.00    +0.012 C 
ENDBRANCH  18  12
ENDBRANCH   7  17
BRANCH  11   2
ATOM      2  O   UNL     1      -6.370   4.859  25.778  0.00  0.00    -0.390 OA
ATOM     21  H   UNL     1      -5.764   5.324  26.379  0.00  0.00    +0.210 HD
ENDBRANCH  11   2
TORSDOF 4
ENDMDL
MODEL 8
REMARK VINA RESULT:      -4.2      1.768      5.488
REMARK  Name = 26744270
REMARK  4 active torsions:
REMARK  status: ('A' for Active; 'I' for Inactive)
REMARK    1  A    between atoms: O_2  and  C_11
REMARK    2  A    between atoms: N_4  and  C_8
REMARK    3  A    between atoms: C_7  and  C_17
REMARK    4  A    between atoms: C_12  and  C_18
REMARK                            x       y       z     vdW  Elec       q    Type
REMARK                         _______ _______ _______ _____ _____    ______ ____
ROOT
ATOM      4  N   UNL     1      -2.044  -0.495  24.475  0.00  0.00    -0.286 NA
ATOM      7  C   UNL     1      -3.372  -0.193  23.906  0.00  0.00    +0.149 C 
ATOM      9  C   UNL     1      -4.213  -1.454  24.176  0.00  0.00    +0.061 C 
ATOM     10  C   UNL     1      -1.889  -1.948  24.416  0.00  0.00    +0.116 C 
ATOM     11  C   UNL     1      -3.259  -2.425  24.859  0.00  0.00    +0.130 C 
ENDROOT
BRANCH   4   8
ATOM      1  O   UNL     1       1.799   1.044  23.772  0.00  0.00    -0.380 OA
ATOM      8  C   UNL     1      -0.953   0.202  23.795  0.00  0.00    +0.062 C 
ATOM     15  C   UNL     1      -0.442   1.360  24.657  0.00  0.00    +0.047 C 
ATOM     16  C   UNL     1       0.196  -0.757  23.469  0.00  0.00    +0.047 C 
ATOM     19  C   UNL     1       0.773   2.008  24.005  0.00  0.00    +0.161 C 
ATOM     20  C   UNL     1       1.376   0.009  22.883  0.00  0.00    +0.161 C 
ENDBRANCH   4   8
BRANCH   7  17
ATOM      3  O   UNL     1      -5.336   1.055  24.656  0.00  0.00    -0.336 OA
ATOM      5  N   UNL     1      -3.405   2.166  24.884  0.00  0.00    -0.194 NA
ATOM      6  N   UNL     1      -5.665   2.298  25.211  0.00  0.00    -0.061 NA
ATOM     17  C   UNL     1      -3.987   1.059  24.495  0.00  0.00    +0.245 A 
ATOM     18  C   UNL     1      -4.474   2.896  25.315  0.00  0.00    +0.175 A 
BRANCH  18  12
ATOM     12  C   UNL     1      -4.322   4.310  25.882  0.00  0.00    +0.060 C 
ATOM     13  C   UNL     1      -3.026   5.036  25.673  0.00  0.00    +0.012 C 
ATOM     14  C   UNL     1      -3.388   4.527  27.036  0.00  0.00    +0.012 C 
ENDBRANCH  18  12
ENDBRANCH   7  17
BRANCH  11   2
ATOM      2  O   UNL     1      -3.512  -3.753  24.444  0.00  0.00    -0.390 OA
ATOM     21  H   UNL     1      -4.395  -3.768  24.036  0.00  0.00    +0.210 HD
ENDBRANCH  11   2
TORSDOF 4
ENDMDL
MODEL 9
REMARK VINA RESULT:      -3.9      2.392      3.085
REMARK  Name = 26744270
REMARK  4 active torsions:
REMARK  status: ('A' for Active; 'I' for Inactive)
REMARK    1  A    between atoms: O_2  and  C_11
REMARK    2  A    between atoms: N_4  and  C_8
REMARK    3  A    between atoms: C_7  and  C_17
REMARK    4  A    between atoms: C_12  and  C_18
REMARK                            x       y       z     vdW  Elec       q    Type
REMARK                         _______ _______ _______ _____ _____    ______ ____
ROOT
ATOM      4  N   UNL     1      -3.882  -0.004  24.247  0.00  0.00    -0.286 NA
ATOM      7  C   UNL     1      -2.819  -0.093  25.268  0.00  0.00    +0.149 C 
ATOM      9  C   UNL     1      -2.286  -1.533  25.157  0.00  0.00    +0.061 C 
ATOM     10  C   UNL     1      -4.409  -1.357  24.079  0.00  0.00    +0.116 C 
ATOM     11  C   UNL     1      -3.141  -2.188  24.080  0.00  0.00    +0.130 C 
ENDROOT
BRANCH   4   8
ATOM      1  O   UNL     1      -5.805   3.189  26.180  0.00  0.00    -0.380 OA
ATOM      8  C   UNL     1      -4.930   0.956  24.588  0.00  0.00    +0.062 C 
ATOM     15  C   UNL     1      -5.330   0.809  26.058  0.00  0.00    +0.047 C 
ATOM     16  C   UNL     1      -4.474   2.392  24.310  0.00  0.00    +0.047 C 
ATOM     19  C   UNL     1      -6.333   1.889  26.446  0.00  0.00    +0.161 C 
ATOM     20  C   UNL     1      -5.524   3.385  24.794  0.00  0.00    +0.161 C 
ENDBRANCH   4   8
BRANCH   7  17
ATOM      3  O   UNL     1      -0.551   0.508  24.583  0.00  0.00    -0.336 OA
ATOM      5  N   UNL     1      -1.774   2.236  25.313  0.00  0.00    -0.194 NA
ATOM      6  N   UNL     1       0.275   1.636  24.491  0.00  0.00    -0.061 NA
ATOM     17  C   UNL     1      -1.738   0.949  25.076  0.00  0.00    +0.245 A 
ATOM     18  C   UNL     1      -0.518   2.615  24.940  0.00  0.00    +0.175 A 
BRANCH  18  12
ATOM     12  C   UNL     1      -0.042   4.067  25.028  0.00  0.00    +0.060 C 
ATOM     13  C   UNL     1      -1.068   5.162  25.062  0.00  0.00    +0.012 C 
ATOM     14  C   UNL     1      -0.226   4.959  23.836  0.00  0.00    +0.012 C 
ENDBRANCH  18  12
ENDBRANCH   7  17
BRANCH  11   2
ATOM      2  O   UNL     1      -3.399  -3.541  24.399  0.00  0.00    -0.390 OA
ATOM     21  H   UNL     1      -2.543  -4.001  24.441  0.00  0.00    +0.210 HD
ENDBRANCH  11   2
TORSDOF 4
ENDMDL
MODEL 10
REMARK VINA RESULT:      -3.3      2.085      5.160
REMARK  Name = 26744270
REMARK  4 active torsions:
REMARK  status: ('A' for Active; 'I' for Inactive)
REMARK    1  A    between atoms: O_2  and  C_11
REMARK    2  A    between atoms: N_4  and  C_8
REMARK    3  A    between atoms: C_7  and  C_17
REMARK    4  A    between atoms: C_12  and  C_18
REMARK                            x       y       z     vdW  Elec       q    Type
REMARK                         _______ _______ _______ _____ _____    ______ ____
ROOT
ATOM      4  N   UNL     1       0.298   1.718  24.222  0.00  0.00    -0.286 NA
ATOM      7  C   UNL     1      -0.034   0.593  23.325  0.00  0.00    +0.149 C 
ATOM      9  C   UNL     1       1.326   0.081  22.815  0.00  0.00    +0.061 C 
ATOM     10  C   UNL     1       1.566   2.268  23.744  0.00  0.00    +0.116 C 
ATOM     11  C   UNL     1       2.357   1.009  23.444  0.00  0.00    +0.130 C 
ENDROOT
BRANCH   4   8
ATOM      1  O   UNL     1      -2.351   4.529  25.868  0.00  0.00    -0.380 OA
ATOM      8  C   UNL     1      -0.752   2.733  24.286  0.00  0.00    +0.062 C 
ATOM     15  C   UNL     1      -1.910   2.246  25.162  0.00  0.00    +0.047 C 
ATOM     16  C   UNL     1      -0.206   4.058  24.828  0.00  0.00    +0.047 C 
ATOM     19  C   UNL     1      -2.948   3.349  25.329  0.00  0.00    +0.161 C 
ATOM     20  C   UNL     1      -1.339   5.061  25.014  0.00  0.00    +0.161 C 
ENDBRANCH   4   8
BRANCH   7  17
ATOM      3  O   UNL     1      -0.195  -1.217  24.960  0.00  0.00    -0.336 OA
ATOM      5  N   UNL     1      -2.096  -0.821  23.844  0.00  0.00    -0.194 NA
ATOM      6  N   UNL     1      -1.135  -2.132  25.454  0.00  0.00    -0.061 NA
ATOM     17  C   UNL     1      -0.843  -0.484  24.017  0.00  0.00    +0.245 A 
ATOM     18  C   UNL     1      -2.230  -1.835  24.746  0.00  0.00    +0.175 A 
BRANCH  18  12
ATOM     12  C   UNL     1      -3.549  -2.589  24.938  0.00  0.00    +0.060 C 
ATOM     13  C   UNL     1      -3.919  -3.659  23.953  0.00  0.00    +0.012 C 
ATOM     14  C   UNL     1      -4.662  -2.355  23.959  0.00  0.00    +0.012 C 
ENDBRANCH  18  12
ENDBRANCH   7  17
BRANCH  11   2
ATOM      2  O   UNL     1       3.420   1.260  22.545  0.00  0.00    -0.390 OA
ATOM     21  H   UNL     1       3.650   0.416  22.121  0.00  0.00    +0.210 HD
ENDBRANCH  11   2
TORSDOF 4
ENDMDL
