MODEL 1
REMARK VINA RESULT:      -0.9      0.000      0.000
REMARK  Name = 51136908
REMARK  5 active torsions:
REMARK  status: ('A' for Active; 'I' for Inactive)
REMARK    1  A    between atoms: N_3  and  C_13
REMARK    2  A    between atoms: C_9  and  C_14
REMARK    3  A    between atoms: C_13  and  C_15
REMARK    4  A    between atoms: C_18  and  C_21
REMARK    5  A    between atoms: C_26  and  C_27
REMARK                            x       y       z     vdW  Elec       q    Type
REMARK                         _______ _______ _______ _____ _____    ______ ____
ROOT
ATOM      2  O   UNL     1      -3.286   2.622  22.354  0.00  0.00    -0.336 OA
ATOM      4  N   UNL     1      -2.382   1.485  24.060  0.00  0.00    -0.190 NA
ATOM      5  N   UNL     1      -1.966   2.342  21.980  0.00  0.00    -0.056 NA
ATOM     14  C   UNL     1      -3.448   2.083  23.591  0.00  0.00    +0.245 A 
ATOM     18  C   UNL     1      -1.499   1.670  23.036  0.00  0.00    +0.204 A 
ENDROOT
BRANCH  18  21
ATOM      6  N   UNL     1       2.125   1.473  23.846  0.00  0.00    -0.254 NA
ATOM     21  C   UNL     1      -0.156   1.171  23.102  0.00  0.00    +0.041 A 
ATOM     23  C   UNL     1       0.187  -0.043  22.519  0.00  0.00    +0.015 A 
ATOM     24  C   UNL     1       0.841   1.885  23.748  0.00  0.00    +0.123 A 
ATOM     25  C   UNL     1       1.498  -0.501  22.599  0.00  0.00    +0.029 A 
ATOM     26  C   UNL     1       2.421   0.287  23.267  0.00  0.00    +0.074 A 
BRANCH  26  27
ATOM      7  N   UNL     1       5.429  -1.813  23.926  0.00  0.00    -0.243 NA
ATOM      8  N   UNL     1       6.148   0.375  23.219  0.00  0.00    -0.243 NA
ATOM     27  C   UNL     1       3.799  -0.125  23.390  0.00  0.00    +0.037 A 
ATOM     28  C   UNL     1       4.152  -1.395  23.798  0.00  0.00    +0.124 A 
ATOM     29  C   UNL     1       4.849   0.727  23.111  0.00  0.00    +0.124 A 
ATOM     30  C   UNL     1       6.362  -0.890  23.625  0.00  0.00    +0.221 A 
ENDBRANCH  26  27
ENDBRANCH  18  21
BRANCH  14   9
ATOM      3  N   UNL     1      -4.924   1.561  25.526  0.00  0.00    -0.287 NA
ATOM      9  C   UNL     1      -4.813   2.251  24.225  0.00  0.00    +0.146 C 
ATOM     10  C   UNL     1      -5.147   3.722  24.534  0.00  0.00    +0.030 C 
ATOM     11  C   UNL     1      -5.490   3.750  26.016  0.00  0.00    +0.017 C 
ATOM     12  C   UNL     1      -5.893   2.320  26.317  0.00  0.00    +0.085 C 
BRANCH   3  13
ATOM     13  C   UNL     1      -5.297   0.157  25.402  0.00  0.00    +0.123 C 
BRANCH  13  15
ATOM      1  F   UNL     1      -5.205  -2.002  23.571  0.00  0.00    -0.205 F 
ATOM     15  C   UNL     1      -4.092  -0.730  25.238  0.00  0.00    +0.002 A 
ATOM     16  C   UNL     1      -4.114  -1.777  24.316  0.00  0.00    +0.128 A 
ATOM     17  C   UNL     1      -2.952  -0.504  26.009  0.00  0.00    +0.008 A 
ATOM     19  C   UNL     1      -2.996  -2.598  24.166  0.00  0.00    +0.038 A 
ATOM     20  C   UNL     1      -1.834  -1.324  25.859  0.00  0.00    +0.000 A 
ATOM     22  C   UNL     1      -1.856  -2.371  24.937  0.00  0.00    +0.003 A 
ENDBRANCH  13  15
ENDBRANCH   3  13
ENDBRANCH  14   9
TORSDOF 5
ENDMDL
MODEL 2
REMARK VINA RESULT:       3.0      2.125      3.304
REMARK  Name = 51136908
REMARK  5 active torsions:
REMARK  status: ('A' for Active; 'I' for Inactive)
REMARK    1  A    between atoms: N_3  and  C_13
REMARK    2  A    between atoms: C_9  and  C_14
REMARK    3  A    between atoms: C_13  and  C_15
REMARK    4  A    between atoms: C_18  and  C_21
REMARK    5  A    between atoms: C_26  and  C_27
REMARK                            x       y       z     vdW  Elec       q    Type
REMARK                         _______ _______ _______ _____ _____    ______ ____
ROOT
ATOM      2  O   UNL     1      -3.532   1.757  23.087  0.00  0.00    -0.336 OA
ATOM      4  N   UNL     1      -2.302   0.932  24.768  0.00  0.00    -0.190 NA
ATOM      5  N   UNL     1      -2.254   1.533  22.561  0.00  0.00    -0.056 NA
ATOM     14  C   UNL     1      -3.473   1.377  24.391  0.00  0.00    +0.245 A 
ATOM     18  C   UNL     1      -1.586   1.046  23.611  0.00  0.00    +0.204 A 
ENDROOT
BRANCH  18  21
ATOM      6  N   UNL     1       2.120   1.272  23.808  0.00  0.00    -0.254 NA
ATOM     21  C   UNL     1      -0.205   0.666  23.540  0.00  0.00    +0.041 A 
ATOM     23  C   UNL     1       0.166  -0.616  23.152  0.00  0.00    +0.015 A 
ATOM     24  C   UNL     1       0.801   1.565  23.855  0.00  0.00    +0.123 A 
ATOM     25  C   UNL     1       1.513  -0.955  23.092  0.00  0.00    +0.029 A 
ATOM     26  C   UNL     1       2.443   0.016  23.427  0.00  0.00    +0.074 A 
BRANCH  26  27
ATOM      7  N   UNL     1       5.689  -1.789  23.729  0.00  0.00    -0.243 NA
ATOM      8  N   UNL     1       6.114   0.449  22.945  0.00  0.00    -0.243 NA
ATOM     27  C   UNL     1       3.859  -0.265  23.388  0.00  0.00    +0.037 A 
ATOM     28  C   UNL     1       4.373  -1.492  23.750  0.00  0.00    +0.124 A 
ATOM     29  C   UNL     1       4.784   0.677  22.989  0.00  0.00    +0.124 A 
ATOM     30  C   UNL     1       6.491  -0.787  23.322  0.00  0.00    +0.221 A 
ENDBRANCH  26  27
ENDBRANCH  18  21
BRANCH  14   9
ATOM      3  N   UNL     1      -5.352   2.864  25.062  0.00  0.00    -0.287 NA
ATOM      9  C   UNL     1      -4.750   1.522  25.193  0.00  0.00    +0.146 C 
ATOM     10  C   UNL     1      -5.853   0.552  24.734  0.00  0.00    +0.030 C 
ATOM     11  C   UNL     1      -7.055   1.433  24.425  0.00  0.00    +0.017 C 
ATOM     12  C   UNL     1      -6.795   2.688  25.233  0.00  0.00    +0.085 C 
BRANCH   3  13
ATOM     13  C   UNL     1      -4.804   3.835  26.002  0.00  0.00    +0.123 C 
BRANCH  13  15
ATOM      1  F   UNL     1      -3.840   5.305  23.780  0.00  0.00    -0.205 F 
ATOM     15  C   UNL     1      -3.340   4.086  25.756  0.00  0.00    +0.002 A 
ATOM     16  C   UNL     1      -2.933   4.820  24.641  0.00  0.00    +0.128 A 
ATOM     17  C   UNL     1      -2.390   3.585  26.645  0.00  0.00    +0.008 A 
ATOM     19  C   UNL     1      -1.577   5.051  24.415  0.00  0.00    +0.038 A 
ATOM     20  C   UNL     1      -1.033   3.817  26.420  0.00  0.00    +0.000 A 
ATOM     22  C   UNL     1      -0.627   4.550  25.305  0.00  0.00    +0.003 A 
ENDBRANCH  13  15
ENDBRANCH   3  13
ENDBRANCH  14   9
TORSDOF 5
ENDMDL
