MODEL 1
REMARK VINA RESULT:      -2.4      0.000      0.000
REMARK  Name = 11912176
REMARK  9 active torsions:
REMARK  status: ('A' for Active; 'I' for Inactive)
REMARK    1  A    between atoms: O_3  and  C_24
REMARK    2  A    between atoms: O_3  and  C_30
REMARK    3  A    between atoms: N_5  and  C_17
REMARK    4  A    between atoms: N_6  and  C_18
REMARK    5  A    between atoms: C_7  and  C_13
REMARK    6  A    between atoms: C_8  and  C_12
REMARK    7  A    between atoms: C_12  and  C_14
REMARK    8  A    between atoms: C_13  and  C_16
REMARK    9  A    between atoms: C_17  and  C_19
REMARK                            x       y       z     vdW  Elec       q    Type
REMARK                         _______ _______ _______ _____ _____    ______ ____
ROOT
ATOM      1  O   UNL     1      16.303  -4.750  28.187  0.00  0.00    -0.252 OA
ATOM      4  N   UNL     1      16.797  -6.993  28.455  0.00  0.00    -0.285 N 
ATOM      6  N   UNL     1      17.405  -5.862  26.476  0.00  0.00    -0.269 N 
ATOM      7  C   UNL     1      15.603  -9.475  29.343  0.00  0.00    +0.004 C 
ATOM      8  C   UNL     1      16.324  -9.377  27.972  0.00  0.00    +0.010 C 
ATOM      9  C   UNL     1      15.074  -8.106  29.810  0.00  0.00    +0.023 C 
ATOM     10  C   UNL     1      17.389  -8.269  28.028  0.00  0.00    +0.113 C 
ATOM     11  C   UNL     1      16.170  -7.041  29.777  0.00  0.00    +0.109 C 
ATOM     15  C   UNL     1      16.809  -5.780  27.734  0.00  0.00    +0.306 C 
ATOM     32  H   UNL     1      18.140  -6.545  26.335  0.00  0.00    +0.156 HD
ENDROOT
BRANCH   6  18
ATOM     18  C   UNL     1      17.094  -5.097  25.325  0.00  0.00    +0.038 A 
ATOM     20  C   UNL     1      16.788  -3.742  25.451  0.00  0.00    +0.069 A 
ATOM     21  C   UNL     1      17.093  -5.699  24.066  0.00  0.00    +0.023 A 
ATOM     24  C   UNL     1      16.480  -2.989  24.318  0.00  0.00    +0.122 A 
ATOM     25  C   UNL     1      16.786  -4.945  22.934  0.00  0.00    +0.005 A 
ATOM     26  C   UNL     1      16.479  -3.590  23.060  0.00  0.00    +0.046 A 
BRANCH  24   3
ATOM      3  O   UNL     1      16.181  -1.666  24.441  0.00  0.00    -0.495 OA
ATOM     30  C   UNL     1      16.831  -0.948  25.488  0.00  0.00    +0.277 C 
ENDBRANCH  24   3
ENDBRANCH   6  18
BRANCH   8  12
ATOM     12  C   UNL     1      15.380  -9.154  26.784  0.00  0.00    +0.002 C 
ATOM     14  C   UNL     1      16.144  -8.718  25.552  0.00  0.00    +0.004 C 
ENDBRANCH   8  12
BRANCH   7  13
ATOM     13  C   UNL     1      14.487 -10.519  29.361  0.00  0.00    +0.099 C 
BRANCH  13  16
ATOM      2  O   UNL     1      12.220  -9.947  29.982  0.00  0.00    -0.276 OA
ATOM      5  N   UNL     1      13.853 -10.092  31.630  0.00  0.00    -0.311 N 
ATOM     16  C   UNL     1      13.380 -10.156  30.327  0.00  0.00    +0.214 C 
ATOM     31  H   UNL     1      14.830 -10.300  31.813  0.00  0.00    +0.149 HD
BRANCH   5  17
ATOM     17  C   UNL     1      13.013  -9.764  32.760  0.00  0.00    +0.139 C 
BRANCH  17  19
ATOM     19  C   UNL     1      12.527  -8.345  32.705  0.00  0.00    -0.030 A 
ATOM     22  C   UNL     1      13.428  -7.292  32.868  0.00  0.00    +0.005 A 
ATOM     23  C   UNL     1      11.175  -8.079  32.490  0.00  0.00    +0.005 A 
ATOM     27  C   UNL     1      12.977  -5.974  32.817  0.00  0.00    +0.000 A 
ATOM     28  C   UNL     1      10.724  -6.759  32.439  0.00  0.00    +0.000 A 
ATOM     29  C   UNL     1      11.625  -5.708  32.602  0.00  0.00    +0.000 A 
ENDBRANCH  17  19
ENDBRANCH   5  17
ENDBRANCH  13  16
ENDBRANCH   7  13
TORSDOF 7
ENDMDL
MODEL 2
REMARK VINA RESULT:      -2.3     17.275     19.336
REMARK  Name = 11912176
REMARK  9 active torsions:
REMARK  status: ('A' for Active; 'I' for Inactive)
REMARK    1  A    between atoms: O_3  and  C_24
REMARK    2  A    between atoms: O_3  and  C_30
REMARK    3  A    between atoms: N_5  and  C_17
REMARK    4  A    between atoms: N_6  and  C_18
REMARK    5  A    between atoms: C_7  and  C_13
REMARK    6  A    between atoms: C_8  and  C_12
REMARK    7  A    between atoms: C_12  and  C_14
REMARK    8  A    between atoms: C_13  and  C_16
REMARK    9  A    between atoms: C_17  and  C_19
REMARK                            x       y       z     vdW  Elec       q    Type
REMARK                         _______ _______ _______ _____ _____    ______ ____
ROOT
ATOM      1  O   UNL     1      -0.390  -1.353  25.838  0.00  0.00    -0.252 OA
ATOM      4  N   UNL     1      -2.339  -1.096  24.621  0.00  0.00    -0.285 N 
ATOM      6  N   UNL     1      -0.238  -0.955  23.557  0.00  0.00    -0.269 N 
ATOM      7  C   UNL     1      -4.897   0.254  24.718  0.00  0.00    +0.004 C 
ATOM      8  C   UNL     1      -3.984   0.356  23.467  0.00  0.00    +0.010 C 
ATOM      9  C   UNL     1      -4.089  -0.048  25.994  0.00  0.00    +0.023 C 
ATOM     10  C   UNL     1      -3.096  -0.896  23.376  0.00  0.00    +0.113 C 
ATOM     11  C   UNL     1      -3.180  -1.262  25.807  0.00  0.00    +0.109 C 
ATOM     15  C   UNL     1      -0.935  -1.159  24.747  0.00  0.00    +0.306 C 
ATOM     32  H   UNL     1      -0.683  -1.221  22.687  0.00  0.00    +0.156 HD
ENDROOT
BRANCH   6  18
ATOM     18  C   UNL     1       1.051  -0.389  23.402  0.00  0.00    +0.038 A 
ATOM     20  C   UNL     1       2.186  -1.176  23.599  0.00  0.00    +0.069 A 
ATOM     21  C   UNL     1       1.186   0.955  23.053  0.00  0.00    +0.023 A 
ATOM     24  C   UNL     1       3.456  -0.619  23.447  0.00  0.00    +0.122 A 
ATOM     25  C   UNL     1       2.456   1.512  22.901  0.00  0.00    +0.005 A 
ATOM     26  C   UNL     1       3.591   0.725  23.098  0.00  0.00    +0.046 A 
BRANCH  24   3
ATOM      3  O   UNL     1       4.563  -1.386  23.640  0.00  0.00    -0.495 OA
ATOM     30  C   UNL     1       5.741  -0.723  24.098  0.00  0.00    +0.277 C 
ENDBRANCH  24   3
ENDBRANCH   6  18
BRANCH   8  12
ATOM     12  C   UNL     1      -3.128   1.626  23.421  0.00  0.00    +0.002 C 
ATOM     14  C   UNL     1      -2.454   1.783  22.074  0.00  0.00    +0.004 C 
ENDBRANCH   8  12
BRANCH   7  13
ATOM     13  C   UNL     1      -5.780   1.485  24.919  0.00  0.00    +0.099 C 
BRANCH  13  16
ATOM      2  O   UNL     1      -4.783   3.497  24.020  0.00  0.00    -0.276 OA
ATOM      5  N   UNL     1      -4.489   2.983  26.268  0.00  0.00    -0.311 N 
ATOM     16  C   UNL     1      -4.974   2.764  24.986  0.00  0.00    +0.214 C 
ATOM     31  H   UNL     1      -4.719   2.323  27.004  0.00  0.00    +0.149 HD
BRANCH   5  17
ATOM     17  C   UNL     1      -3.683   4.129  26.622  0.00  0.00    +0.139 C 
BRANCH  17  19
ATOM     19  C   UNL     1      -2.328   4.083  25.978  0.00  0.00    -0.030 A 
ATOM     22  C   UNL     1      -1.519   2.958  26.135  0.00  0.00    +0.005 A 
ATOM     23  C   UNL     1      -1.877   5.166  25.223  0.00  0.00    +0.005 A 
ATOM     27  C   UNL     1      -0.260   2.914  25.538  0.00  0.00    +0.000 A 
ATOM     28  C   UNL     1      -0.617   5.122  24.625  0.00  0.00    +0.000 A 
ATOM     29  C   UNL     1       0.191   3.997  24.782  0.00  0.00    +0.000 A 
ENDBRANCH  17  19
ENDBRANCH   5  17
ENDBRANCH  13  16
ENDBRANCH   7  13
TORSDOF 7
ENDMDL
MODEL 3
REMARK VINA RESULT:       0.8     17.574     19.685
REMARK  Name = 11912176
REMARK  9 active torsions:
REMARK  status: ('A' for Active; 'I' for Inactive)
REMARK    1  A    between atoms: O_3  and  C_24
REMARK    2  A    between atoms: O_3  and  C_30
REMARK    3  A    between atoms: N_5  and  C_17
REMARK    4  A    between atoms: N_6  and  C_18
REMARK    5  A    between atoms: C_7  and  C_13
REMARK    6  A    between atoms: C_8  and  C_12
REMARK    7  A    between atoms: C_12  and  C_14
REMARK    8  A    between atoms: C_13  and  C_16
REMARK    9  A    between atoms: C_17  and  C_19
REMARK                            x       y       z     vdW  Elec       q    Type
REMARK                         _______ _______ _______ _____ _____    ______ ____
ROOT
ATOM      1  O   UNL     1      -1.500   1.675  21.758  0.00  0.00    -0.252 OA
ATOM      4  N   UNL     1      -2.014   3.288  23.333  0.00  0.00    -0.285 N 
ATOM      6  N   UNL     1       0.161   2.380  23.216  0.00  0.00    -0.269 N 
ATOM      7  C   UNL     1      -4.051   3.984  25.267  0.00  0.00    +0.004 C 
ATOM      8  C   UNL     1      -2.552   3.928  25.667  0.00  0.00    +0.010 C 
ATOM      9  C   UNL     1      -4.354   3.083  24.056  0.00  0.00    +0.023 C 
ATOM     10  C   UNL     1      -1.680   4.207  24.431  0.00  0.00    +0.113 C 
ATOM     11  C   UNL     1      -3.407   3.370  22.892  0.00  0.00    +0.109 C 
ATOM     15  C   UNL     1      -1.130   2.395  22.690  0.00  0.00    +0.306 C 
ATOM     32  H   UNL     1       0.516   3.227  23.644  0.00  0.00    +0.156 HD
ENDROOT
BRANCH   6  18
ATOM     18  C   UNL     1       1.066   1.291  23.244  0.00  0.00    +0.038 A 
ATOM     20  C   UNL     1       2.425   1.508  23.011  0.00  0.00    +0.069 A 
ATOM     21  C   UNL     1       0.599   0.002  23.502  0.00  0.00    +0.023 A 
ATOM     24  C   UNL     1       3.316   0.435  23.037  0.00  0.00    +0.122 A 
ATOM     25  C   UNL     1       1.491  -1.070  23.528  0.00  0.00    +0.005 A 
ATOM     26  C   UNL     1       2.849  -0.853  23.295  0.00  0.00    +0.046 A 
BRANCH  24   3
ATOM      3  O   UNL     1       4.642   0.647  22.810  0.00  0.00    -0.495 OA
ATOM     30  C   UNL     1       5.562  -0.022  23.671  0.00  0.00    +0.277 C 
ENDBRANCH  24   3
ENDBRANCH   6  18
BRANCH   8  12
ATOM     12  C   UNL     1      -2.132   2.613  26.334  0.00  0.00    +0.002 C 
ATOM     14  C   UNL     1      -0.625   2.492  26.405  0.00  0.00    +0.004 C 
ENDBRANCH   8  12
BRANCH   7  13
ATOM     13  C   UNL     1      -4.994   3.664  26.427  0.00  0.00    +0.099 C 
BRANCH  13  16
ATOM      2  O   UNL     1      -6.694   1.996  26.852  0.00  0.00    -0.276 OA
ATOM      5  N   UNL     1      -4.965   1.514  25.375  0.00  0.00    -0.311 N 
ATOM     16  C   UNL     1      -5.665   2.317  26.264  0.00  0.00    +0.214 C 
ATOM     31  H   UNL     1      -4.131   1.880  24.927  0.00  0.00    +0.149 HD
BRANCH   5  17
ATOM     17  C   UNL     1      -5.377   0.171  25.032  0.00  0.00    +0.139 C 
BRANCH  17  19
ATOM     19  C   UNL     1      -4.205  -0.756  24.884  0.00  0.00    -0.030 A 
ATOM     22  C   UNL     1      -3.017  -0.492  25.566  0.00  0.00    +0.005 A 
ATOM     23  C   UNL     1      -4.306  -1.881  24.066  0.00  0.00    +0.005 A 
ATOM     27  C   UNL     1      -1.929  -1.353  25.429  0.00  0.00    +0.000 A 
ATOM     28  C   UNL     1      -3.217  -2.743  23.930  0.00  0.00    +0.000 A 
ATOM     29  C   UNL     1      -2.029  -2.479  24.611  0.00  0.00    +0.000 A 
ENDBRANCH  17  19
ENDBRANCH   5  17
ENDBRANCH  13  16
ENDBRANCH   7  13
TORSDOF 7
ENDMDL
