MODEL 1
REMARK VINA RESULT:      -2.9      0.000      0.000
REMARK  Name = 40586329
REMARK  4 active torsions:
REMARK  status: ('A' for Active; 'I' for Inactive)
REMARK    1  A    between atoms: N_6  and  C_30
REMARK    2  A    between atoms: C_14  and  C_15
REMARK    3  A    between atoms: C_23  and  C_25
REMARK    4  A    between atoms: C_31  and  C_32
REMARK                            x       y       z     vdW  Elec       q    Type
REMARK                         _______ _______ _______ _____ _____    ______ ____
ROOT
ATOM      1  O   UNL     1      15.143  -6.118  26.933  0.00  0.00    -0.275 OA
ATOM      2  O   UNL     1      12.395  -6.149  31.521  0.00  0.00    -0.267 OA
ATOM      4  N   UNL     1      16.564  -6.452  28.739  0.00  0.00    -0.300 N 
ATOM      5  N   UNL     1      14.675  -6.595  31.310  0.00  0.00    -0.311 N 
ATOM      7  C   UNL     1      16.368  -4.807  30.609  0.00  0.00    +0.027 C 
ATOM      8  C   UNL     1      17.132  -7.097  31.074  0.00  0.00    +0.054 C 
ATOM      9  C   UNL     1      17.362  -5.628  31.420  0.00  0.00    +0.018 C 
ATOM     10  C   UNL     1      16.585  -5.034  29.102  0.00  0.00    +0.113 C 
ATOM     11  C   UNL     1      17.404  -7.324  29.574  0.00  0.00    +0.117 C 
ATOM     12  C   UNL     1      14.946  -5.175  31.048  0.00  0.00    +0.130 C 
ATOM     13  C   UNL     1      15.714  -7.523  31.408  0.00  0.00    +0.027 A 
ATOM     15  C   UNL     1      15.843  -6.865  27.619  0.00  0.00    +0.219 C 
ATOM     18  C   UNL     1      15.454  -8.790  31.769  0.00  0.00    +0.022 A 
ATOM     21  C   UNL     1      13.335  -6.945  31.565  0.00  0.00    +0.259 A 
ATOM     23  C   UNL     1      13.069  -8.382  31.931  0.00  0.00    +0.047 A 
ATOM     24  C   UNL     1      14.111  -9.222  32.028  0.00  0.00    +0.015 A 
ENDROOT
BRANCH  15  14
ATOM     14  C   UNL     1      15.937  -8.316  27.257  0.00  0.00    +0.075 C 
ATOM     16  C   UNL     1      14.899  -9.118  28.044  0.00  0.00    +0.013 C 
ATOM     17  C   UNL     1      15.743  -8.474  25.748  0.00  0.00    +0.013 C 
ATOM     19  C   UNL     1      14.893 -10.586  27.628  0.00  0.00    +0.001 C 
ATOM     20  C   UNL     1      15.733  -9.943  25.335  0.00  0.00    +0.001 C 
ATOM     22  C   UNL     1      14.698 -10.743  26.122  0.00  0.00    +0.000 C 
ENDBRANCH  15  14
BRANCH  23  25
ATOM     25  C   UNL     1      11.700  -8.868  32.173  0.00  0.00    -0.013 A 
ATOM     26  C   UNL     1      11.401 -10.220  32.007  0.00  0.00    +0.010 A 
ATOM     27  C   UNL     1      10.702  -7.976  32.566  0.00  0.00    +0.010 A 
ATOM     28  C   UNL     1      10.104 -10.681  32.236  0.00  0.00    +0.024 A 
ATOM     29  C   UNL     1       9.406  -8.437  32.794  0.00  0.00    +0.024 A 
ATOM     30  C   UNL     1       9.107  -9.789  32.629  0.00  0.00    +0.033 A 
BRANCH  30   6
ATOM      3  O   UNL     1       6.639  -9.614  30.913  0.00  0.00    -0.276 OA
ATOM      6  N   UNL     1       7.809 -10.250  32.858  0.00  0.00    -0.286 N 
ATOM     31  C   UNL     1       6.692 -10.140  32.019  0.00  0.00    +0.214 C 
ATOM     32  C   UNL     1       5.468 -10.771  32.634  0.00  0.00    +0.109 C 
ATOM     33  H   UNL     1       7.669 -10.723  33.747  0.00  0.00    +0.155 HD
ENDBRANCH  30   6
ENDBRANCH  23  25
TORSDOF 3
ENDMDL
