MODEL 1
REMARK VINA RESULT:       7.7      0.000      0.000
REMARK  Name = 7156516
REMARK  15 active torsions:
REMARK  status: ('A' for Active; 'I' for Inactive)
REMARK    1  A    between atoms: O_2  and  C_14
REMARK    2  A    between atoms: O_3  and  C_19
REMARK    3  A    between atoms: O_5  and  C_30
REMARK    4  A    between atoms: N_7  and  CA_26
REMARK    5  A    between atoms: C_9  and  C_17
REMARK    6  A    between atoms: C_11  and  C_19
REMARK    7  A    between atoms: C_11  and  C_20
REMARK    8  A    between atoms: C_12  and  C_22
REMARK    9  A    between atoms: C_22  and  C_23
REMARK   10  A    between atoms: C_24  and  C_25
REMARK   11  A    between atoms: CA_26  and  CB_27
REMARK   12  A    between atoms: CA_26  and  C_30
REMARK   13  A    between atoms: CB_27  and  CG_31
REMARK   14  A    between atoms: CG_31  and  CD1_33
REMARK   15  A    between atoms: CG_31  and  CD2_34
REMARK                            x       y       z     vdW  Elec       q    Type
REMARK                         _______ _______ _______ _____ _____    ______ ____
ROOT
ATOM      1  S   UNL     1       0.665   2.086  25.285  0.00  0.00    -0.072 S 
ATOM      6  N   UNL     1      -0.300   1.130  23.084  0.00  0.00    -0.243 NA
ATOM      9  C   UNL     1      -3.806   2.130  24.340  0.00  0.00    -0.020 C 
ATOM     10  C   UNL     1      -3.244   3.374  25.160  0.00  0.00    +0.011 C 
ATOM     11  C   UNL     1      -4.276   4.170  26.049  0.00  0.00    +0.021 C 
ATOM     12  C   UNL     1      -2.739   1.763  23.208  0.00  0.00    +0.053 C 
ATOM     13  C   UNL     1      -5.136   2.527  23.647  0.00  0.00    +0.010 C 
ATOM     14  C   UNL     1      -5.562   4.445  25.220  0.00  0.00    +0.123 C 
ATOM     15  C   UNL     1      -1.923   3.016  25.901  0.00  0.00    +0.049 C 
ATOM     16  C   UNL     1      -6.143   3.189  24.578  0.00  0.00    +0.032 C 
ATOM     17  C   UNL     1      -4.061   0.888  25.230  0.00  0.00    +0.012 C 
ATOM     18  C   UNL     1      -1.342   1.722  23.774  0.00  0.00    +0.056 A 
ATOM     20  C   UNL     1      -3.664   5.550  26.423  0.00  0.00    +0.016 C 
ATOM     21  C   UNL     1      -0.994   2.306  24.974  0.00  0.00    +0.014 A 
ATOM     24  C   UNL     1       0.803   1.255  23.789  0.00  0.00    +0.110 A 
ENDROOT
BRANCH  24  25
ATOM      8  N   UNL     1       3.576  -1.138  23.102  0.00  0.00    -0.263 NA
ATOM     25  C   UNL     1       2.098   0.751  23.395  0.00  0.00    +0.025 A 
ATOM     28  C   UNL     1       3.093   1.610  22.942  0.00  0.00    +0.013 A 
ATOM     29  C   UNL     1       2.386  -0.602  23.455  0.00  0.00    +0.121 A 
ATOM     32  C   UNL     1       4.330   1.096  22.569  0.00  0.00    +0.020 A 
ATOM     35  C   UNL     1       4.520  -0.273  22.667  0.00  0.00    +0.111 A 
ENDBRANCH  24  25
BRANCH  14   2
ATOM      2  O   UNL     1      -6.565   5.050  26.033  0.00  0.00    -0.391 OA
ATOM     36  H   UNL     1      -6.649   5.979  25.756  0.00  0.00    +0.210 HD
ENDBRANCH  14   2
BRANCH  11  19
ATOM     19  C   UNL     1      -4.621   3.492  27.394  0.00  0.00    +0.165 C 
BRANCH  19   3
ATOM      3  O   UNL     1      -5.780   2.714  27.199  0.00  0.00    -0.394 OA
ATOM     37  H   UNL     1      -5.502   1.878  26.786  0.00  0.00    +0.209 HD
ENDBRANCH  19   3
ENDBRANCH  11  19
BRANCH  12  22
ATOM     22  C   UNL     1      -3.062   0.488  22.417  0.00  0.00    +0.106 C 
BRANCH  22  23
ATOM      4  O   UNL     1      -4.856  -0.691  23.532  0.00  0.00    -0.276 OA
ATOM      7  N   UNL     1      -2.667  -1.427  23.791  0.00  0.00    -0.310 N 
ATOM     23  C   ACE A   0      -3.656  -0.588  23.296  0.00  0.00    +0.214 C 
ATOM     38  H   UNL     1      -1.694  -1.215  23.594  0.00  0.00    +0.149 HD
BRANCH   7  26
ATOM     26  CA  UNL     1      -2.944  -2.545  24.663  0.00  0.00    +0.098 C 
BRANCH  26  27
ATOM     27  CB  UNL     1      -1.675  -2.991  25.408  0.00  0.00    +0.027 C 
BRANCH  27  31
ATOM     31  CG  UNL     1      -0.537  -1.949  25.444  0.00  0.00    -0.015 C 
ATOM     33  CD1 UNL     1       0.795  -2.649  25.734  0.00  0.00    +0.007 C 
ATOM     34  CD2 UNL     1      -0.777  -0.853  26.483  0.00  0.00    +0.007 C 
ENDBRANCH  27  31
ENDBRANCH  26  27
BRANCH  26  30
ATOM     30  C   UNL     1      -3.569  -3.692  23.862  0.00  0.00    +0.178 C 
BRANCH  30   5
ATOM      5  O   UNL     1      -4.922  -3.402  23.535  0.00  0.00    -0.393 OA
ATOM     39  H   UNL     1      -4.910  -2.800  22.771  0.00  0.00    +0.209 HD
ENDBRANCH  30   5
ENDBRANCH  26  30
ENDBRANCH   7  26
ENDBRANCH  22  23
ENDBRANCH  12  22
TORSDOF 11
ENDMDL
MODEL 2
REMARK VINA RESULT:       8.1      0.977      1.847
REMARK  Name = 7156516
REMARK  15 active torsions:
REMARK  status: ('A' for Active; 'I' for Inactive)
REMARK    1  A    between atoms: O_2  and  C_14
REMARK    2  A    between atoms: O_3  and  C_19
REMARK    3  A    between atoms: O_5  and  C_30
REMARK    4  A    between atoms: N_7  and  CA_26
REMARK    5  A    between atoms: C_9  and  C_17
REMARK    6  A    between atoms: C_11  and  C_19
REMARK    7  A    between atoms: C_11  and  C_20
REMARK    8  A    between atoms: C_12  and  C_22
REMARK    9  A    between atoms: C_22  and  C_23
REMARK   10  A    between atoms: C_24  and  C_25
REMARK   11  A    between atoms: CA_26  and  CB_27
REMARK   12  A    between atoms: CA_26  and  C_30
REMARK   13  A    between atoms: CB_27  and  CG_31
REMARK   14  A    between atoms: CG_31  and  CD1_33
REMARK   15  A    between atoms: CG_31  and  CD2_34
REMARK                            x       y       z     vdW  Elec       q    Type
REMARK                         _______ _______ _______ _____ _____    ______ ____
ROOT
ATOM      1  S   UNL     1       0.776   2.104  25.355  0.00  0.00    -0.072 S 
ATOM      6  N   UNL     1      -0.110   1.300  23.062  0.00  0.00    -0.243 NA
ATOM      9  C   UNL     1      -3.648   2.301  24.225  0.00  0.00    -0.020 C 
ATOM     10  C   UNL     1      -3.098   3.482  25.140  0.00  0.00    +0.011 C 
ATOM     11  C   UNL     1      -4.153   4.247  26.030  0.00  0.00    +0.021 C 
ATOM     12  C   UNL     1      -2.540   1.977  23.120  0.00  0.00    +0.053 C 
ATOM     13  C   UNL     1      -4.938   2.767  23.501  0.00  0.00    +0.010 C 
ATOM     14  C   UNL     1      -5.395   4.598  25.165  0.00  0.00    +0.123 C 
ATOM     15  C   UNL     1      -1.818   3.052  25.914  0.00  0.00    +0.049 C 
ATOM     16  C   UNL     1      -5.972   3.395  24.426  0.00  0.00    +0.032 C 
ATOM     17  C   UNL     1      -3.966   1.015  25.027  0.00  0.00    +0.012 C 
ATOM     18  C   UNL     1      -1.170   1.872  23.741  0.00  0.00    +0.056 A 
ATOM     20  C   UNL     1      -3.531   5.589  26.511  0.00  0.00    +0.016 C 
ATOM     21  C   UNL     1      -0.864   2.378  24.988  0.00  0.00    +0.014 A 
ATOM     24  C   UNL     1       0.963   1.359  23.820  0.00  0.00    +0.110 A 
ENDROOT
BRANCH  24  25
ATOM      8  N   UNL     1       3.755  -1.038  23.228  0.00  0.00    -0.263 NA
ATOM     25  C   UNL     1       2.264   0.851  23.452  0.00  0.00    +0.025 A 
ATOM     28  C   UNL     1       3.259   1.701  22.982  0.00  0.00    +0.013 A 
ATOM     29  C   UNL     1       2.559  -0.498  23.555  0.00  0.00    +0.121 A 
ATOM     32  C   UNL     1       4.501   1.183  22.635  0.00  0.00    +0.020 A 
ATOM     35  C   UNL     1       4.697  -0.181  22.775  0.00  0.00    +0.111 A 
ENDBRANCH  24  25
BRANCH  14   2
ATOM      2  O   UNL     1      -6.421   5.177  25.970  0.00  0.00    -0.391 OA
ATOM     36  H   UNL     1      -7.197   4.592  25.924  0.00  0.00    +0.210 HD
ENDBRANCH  14   2
BRANCH  11  19
ATOM     19  C   UNL     1      -4.569   3.499  27.317  0.00  0.00    +0.165 C 
BRANCH  19   3
ATOM      3  O   UNL     1      -5.743   2.772  27.031  0.00  0.00    -0.394 OA
ATOM     37  H   UNL     1      -6.492   3.385  27.120  0.00  0.00    +0.209 HD
ENDBRANCH  19   3
ENDBRANCH  11  19
BRANCH  12  22
ATOM     22  C   UNL     1      -2.852   0.759  22.241  0.00  0.00    +0.106 C 
BRANCH  22  23
ATOM      4  O   UNL     1      -4.002  -1.166  23.150  0.00  0.00    -0.276 OA
ATOM      7  N   UNL     1      -1.763  -0.819  23.667  0.00  0.00    -0.310 N 
ATOM     23  C   ACE A   0      -2.969  -0.510  23.054  0.00  0.00    +0.214 C 
ATOM     38  H   UNL     1      -0.984  -0.173  23.582  0.00  0.00    +0.149 HD
BRANCH   7  26
ATOM     26  CA  UNL     1      -1.580  -1.978  24.510  0.00  0.00    +0.098 C 
BRANCH  26  27
ATOM     27  CB  UNL     1      -2.920  -2.443  25.107  0.00  0.00    +0.027 C 
BRANCH  27  31
ATOM     31  CG  UNL     1      -3.564  -3.657  24.402  0.00  0.00    -0.015 C 
ATOM     33  CD1 UNL     1      -2.605  -4.203  23.339  0.00  0.00    +0.007 C 
ATOM     34  CD2 UNL     1      -4.906  -3.315  23.755  0.00  0.00    +0.007 C 
ENDBRANCH  27  31
ENDBRANCH  26  27
BRANCH  26  30
ATOM     30  C   UNL     1      -0.544  -1.676  25.598  0.00  0.00    +0.178 C 
BRANCH  30   5
ATOM      5  O   UNL     1      -1.018  -0.666  26.480  0.00  0.00    -0.393 OA
ATOM     39  H   UNL     1      -1.264   0.099  25.933  0.00  0.00    +0.209 HD
ENDBRANCH  30   5
ENDBRANCH  26  30
ENDBRANCH   7  26
ENDBRANCH  22  23
ENDBRANCH  12  22
TORSDOF 11
ENDMDL
MODEL 3
REMARK VINA RESULT:       8.6      2.306      5.090
REMARK  Name = 7156516
REMARK  15 active torsions:
REMARK  status: ('A' for Active; 'I' for Inactive)
REMARK    1  A    between atoms: O_2  and  C_14
REMARK    2  A    between atoms: O_3  and  C_19
REMARK    3  A    between atoms: O_5  and  C_30
REMARK    4  A    between atoms: N_7  and  CA_26
REMARK    5  A    between atoms: C_9  and  C_17
REMARK    6  A    between atoms: C_11  and  C_19
REMARK    7  A    between atoms: C_11  and  C_20
REMARK    8  A    between atoms: C_12  and  C_22
REMARK    9  A    between atoms: C_22  and  C_23
REMARK   10  A    between atoms: C_24  and  C_25
REMARK   11  A    between atoms: CA_26  and  CB_27
REMARK   12  A    between atoms: CA_26  and  C_30
REMARK   13  A    between atoms: CB_27  and  CG_31
REMARK   14  A    between atoms: CG_31  and  CD1_33
REMARK   15  A    between atoms: CG_31  and  CD2_34
REMARK                            x       y       z     vdW  Elec       q    Type
REMARK                         _______ _______ _______ _____ _____    ______ ____
ROOT
ATOM      1  S   UNL     1       1.243  -1.489  23.974  0.00  0.00    -0.072 S 
ATOM      6  N   UNL     1       1.601   1.044  23.592  0.00  0.00    -0.243 NA
ATOM      9  C   UNL     1      -2.234   1.444  23.531  0.00  0.00    -0.020 C 
ATOM     10  C   UNL     1      -2.455   0.231  24.539  0.00  0.00    +0.011 C 
ATOM     11  C   UNL     1      -3.946  -0.194  24.831  0.00  0.00    +0.021 C 
ATOM     12  C   UNL     1      -0.739   1.977  23.722  0.00  0.00    +0.053 C 
ATOM     13  C   UNL     1      -3.212   2.594  23.886  0.00  0.00    +0.010 C 
ATOM     14  C   UNL     1      -4.794   1.076  25.121  0.00  0.00    +0.123 C 
ATOM     15  C   UNL     1      -1.516  -0.964  24.205  0.00  0.00    +0.049 C 
ATOM     16  C   UNL     1      -4.659   2.148  24.043  0.00  0.00    +0.032 C 
ATOM     17  C   UNL     1      -2.453   1.044  22.051  0.00  0.00    +0.012 C 
ATOM     18  C   UNL     1       0.244   0.834  23.751  0.00  0.00    +0.056 A 
ATOM     20  C   UNL     1      -3.980  -1.074  26.112  0.00  0.00    +0.016 C 
ATOM     21  C   UNL     1      -0.124  -0.475  23.988  0.00  0.00    +0.014 A 
ATOM     24  C   UNL     1       2.225  -0.111  23.682  0.00  0.00    +0.110 A 
ENDROOT
BRANCH  24  25
ATOM      8  N   UNL     1       5.576  -1.740  23.775  0.00  0.00    -0.263 NA
ATOM     25  C   UNL     1       3.652  -0.293  23.557  0.00  0.00    +0.025 A 
ATOM     28  C   UNL     1       4.470   0.742  23.119  0.00  0.00    +0.013 A 
ATOM     29  C   UNL     1       4.247  -1.504  23.870  0.00  0.00    +0.121 A 
ATOM     32  C   UNL     1       5.841   0.537  23.008  0.00  0.00    +0.020 A 
ATOM     35  C   UNL     1       6.340  -0.710  23.345  0.00  0.00    +0.111 A 
ENDBRANCH  24  25
BRANCH  14   2
ATOM      2  O   UNL     1      -6.173   0.740  25.262  0.00  0.00    -0.391 OA
ATOM     36  H   UNL     1      -6.493   1.148  26.084  0.00  0.00    +0.210 HD
ENDBRANCH  14   2
BRANCH  11  19
ATOM     19  C   UNL     1      -4.597  -1.050  23.722  0.00  0.00    +0.165 C 
BRANCH  19   3
ATOM      3  O   UNL     1      -4.353  -2.405  24.025  0.00  0.00    -0.394 OA
ATOM     37  H   UNL     1      -4.680  -2.933  23.276  0.00  0.00    +0.209 HD
ENDBRANCH  19   3
ENDBRANCH  11  19
BRANCH  12  22
ATOM     22  C   UNL     1      -0.314   3.057  22.718  0.00  0.00    +0.106 C 
BRANCH  22  23
ATOM      4  O   UNL     1       0.417   5.338  23.051  0.00  0.00    -0.276 OA
ATOM      7  N   UNL     1      -1.448   4.554  24.195  0.00  0.00    -0.310 N 
ATOM     23  C   ACE A   0      -0.379   4.443  23.316  0.00  0.00    +0.214 C 
ATOM     38  H   UNL     1      -2.008   3.732  24.401  0.00  0.00    +0.149 HD
BRANCH   7  26
ATOM     26  CA  UNL     1      -1.752   5.768  24.917  0.00  0.00    +0.098 C 
BRANCH  26  27
ATOM     27  CB  UNL     1      -2.533   5.462  26.207  0.00  0.00    +0.027 C 
BRANCH  27  31
ATOM     31  CG  UNL     1      -2.827   3.967  26.454  0.00  0.00    -0.015 C 
ATOM     33  CD1 UNL     1      -3.890   3.826  27.548  0.00  0.00    +0.007 C 
ATOM     34  CD2 UNL     1      -1.576   3.181  26.850  0.00  0.00    +0.007 C 
ENDBRANCH  27  31
ENDBRANCH  26  27
BRANCH  26  30
ATOM     30  C   UNL     1      -2.510   6.742  24.008  0.00  0.00    +0.178 C 
BRANCH  30   5
ATOM      5  O   UNL     1      -3.602   6.092  23.370  0.00  0.00    -0.393 OA
ATOM     39  H   UNL     1      -3.228   5.496  22.698  0.00  0.00    +0.209 HD
ENDBRANCH  30   5
ENDBRANCH  26  30
ENDBRANCH   7  26
ENDBRANCH  22  23
ENDBRANCH  12  22
TORSDOF 11
ENDMDL
MODEL 4
REMARK VINA RESULT:       9.0      2.959      7.272
REMARK  Name = 7156516
REMARK  15 active torsions:
REMARK  status: ('A' for Active; 'I' for Inactive)
REMARK    1  A    between atoms: O_2  and  C_14
REMARK    2  A    between atoms: O_3  and  C_19
REMARK    3  A    between atoms: O_5  and  C_30
REMARK    4  A    between atoms: N_7  and  CA_26
REMARK    5  A    between atoms: C_9  and  C_17
REMARK    6  A    between atoms: C_11  and  C_19
REMARK    7  A    between atoms: C_11  and  C_20
REMARK    8  A    between atoms: C_12  and  C_22
REMARK    9  A    between atoms: C_22  and  C_23
REMARK   10  A    between atoms: C_24  and  C_25
REMARK   11  A    between atoms: CA_26  and  CB_27
REMARK   12  A    between atoms: CA_26  and  C_30
REMARK   13  A    between atoms: CB_27  and  CG_31
REMARK   14  A    between atoms: CG_31  and  CD1_33
REMARK   15  A    between atoms: CG_31  and  CD2_34
REMARK                            x       y       z     vdW  Elec       q    Type
REMARK                         _______ _______ _______ _____ _____    ______ ____
ROOT
ATOM      1  S   UNL     1       0.001   3.551  23.935  0.00  0.00    -0.072 S 
ATOM      6  N   UNL     1      -1.205   1.357  24.586  0.00  0.00    -0.243 NA
ATOM      9  C   UNL     1       1.940  -0.558  23.438  0.00  0.00    -0.020 C 
ATOM     10  C   UNL     1       2.910   0.640  23.839  0.00  0.00    +0.011 C 
ATOM     11  C   UNL     1       4.436   0.477  23.470  0.00  0.00    +0.021 C 
ATOM     12  C   UNL     1       0.585  -0.392  24.271  0.00  0.00    +0.053 C 
ATOM     13  C   UNL     1       2.595  -1.907  23.834  0.00  0.00    +0.010 C 
ATOM     14  C   UNL     1       4.917  -0.940  23.891  0.00  0.00    +0.123 C 
ATOM     15  C   UNL     1       2.311   2.017  23.433  0.00  0.00    +0.049 C 
ATOM     16  C   UNL     1       4.031  -2.060  23.354  0.00  0.00    +0.032 C 
ATOM     17  C   UNL     1       1.614  -0.588  21.925  0.00  0.00    +0.012 C 
ATOM     18  C   UNL     1       0.087   1.029  24.219  0.00  0.00    +0.056 A 
ATOM     20  C   UNL     1       5.267   1.508  24.285  0.00  0.00    +0.016 C 
ATOM     21  C   UNL     1       0.884   2.097  23.858  0.00  0.00    +0.014 A 
ATOM     24  C   UNL     1      -1.365   2.657  24.469  0.00  0.00    +0.110 A 
ENDROOT
BRANCH  24  25
ATOM      8  N   UNL     1      -4.680   4.282  23.958  0.00  0.00    -0.263 NA
ATOM     25  C   UNL     1      -2.588   3.369  24.754  0.00  0.00    +0.025 A 
ATOM     28  C   UNL     1      -2.871   3.821  26.038  0.00  0.00    +0.013 A 
ATOM     29  C   UNL     1      -3.517   3.622  23.758  0.00  0.00    +0.121 A 
ATOM     32  C   UNL     1      -4.058   4.502  26.284  0.00  0.00    +0.020 A 
ATOM     35  C   UNL     1      -4.921   4.706  25.219  0.00  0.00    +0.111 A 
ENDBRANCH  24  25
BRANCH  14   2
ATOM      2  O   UNL     1       6.256  -1.166  23.456  0.00  0.00    -0.391 OA
ATOM     36  H   UNL     1       6.813  -0.467  23.841  0.00  0.00    +0.210 HD
ENDBRANCH  14   2
BRANCH  11  19
ATOM     19  C   UNL     1       4.771   0.755  21.987  0.00  0.00    +0.165 C 
BRANCH  19   3
ATOM      3  O   UNL     1       3.555   0.834  21.279  0.00  0.00    -0.394 OA
ATOM     37  H   UNL     1       2.977   1.450  21.762  0.00  0.00    +0.209 HD
ENDBRANCH  19   3
ENDBRANCH  11  19
BRANCH  12  22
ATOM     22  C   UNL     1      -0.520  -1.388  23.894  0.00  0.00    +0.106 C 
BRANCH  22  23
ATOM      4  O   UNL     1      -1.909  -1.047  25.845  0.00  0.00    -0.276 OA
ATOM      7  N   UNL     1      -2.856  -0.918  23.728  0.00  0.00    -0.310 N 
ATOM     23  C   ACE A   0      -1.812  -1.102  24.623  0.00  0.00    +0.214 C 
ATOM     38  H   UNL     1      -2.688  -1.055  22.735  0.00  0.00    +0.149 HD
BRANCH   7  26
ATOM     26  CA  UNL     1      -4.211  -0.633  24.142  0.00  0.00    +0.098 C 
BRANCH  26  27
ATOM     27  CB  UNL     1      -4.229   0.180  25.448  0.00  0.00    +0.027 C 
BRANCH  27  31
ATOM     31  CG  UNL     1      -5.281   1.309  25.502  0.00  0.00    -0.015 C 
ATOM     33  CD1 UNL     1      -6.031   1.251  26.836  0.00  0.00    +0.007 C 
ATOM     34  CD2 UNL     1      -6.280   1.233  24.347  0.00  0.00    +0.007 C 
ENDBRANCH  27  31
ENDBRANCH  26  27
BRANCH  26  30
ATOM     30  C   UNL     1      -5.005  -1.938  24.271  0.00  0.00    +0.178 C 
BRANCH  30   5
ATOM      5  O   UNL     1      -4.210  -3.052  23.887  0.00  0.00    -0.393 OA
ATOM     39  H   UNL     1      -3.619  -3.253  24.633  0.00  0.00    +0.209 HD
ENDBRANCH  30   5
ENDBRANCH  26  30
ENDBRANCH   7  26
ENDBRANCH  22  23
ENDBRANCH  12  22
TORSDOF 11
ENDMDL
MODEL 5
REMARK VINA RESULT:      10.3      2.981      7.306
REMARK  Name = 7156516
REMARK  15 active torsions:
REMARK  status: ('A' for Active; 'I' for Inactive)
REMARK    1  A    between atoms: O_2  and  C_14
REMARK    2  A    between atoms: O_3  and  C_19
REMARK    3  A    between atoms: O_5  and  C_30
REMARK    4  A    between atoms: N_7  and  CA_26
REMARK    5  A    between atoms: C_9  and  C_17
REMARK    6  A    between atoms: C_11  and  C_19
REMARK    7  A    between atoms: C_11  and  C_20
REMARK    8  A    between atoms: C_12  and  C_22
REMARK    9  A    between atoms: C_22  and  C_23
REMARK   10  A    between atoms: C_24  and  C_25
REMARK   11  A    between atoms: CA_26  and  CB_27
REMARK   12  A    between atoms: CA_26  and  C_30
REMARK   13  A    between atoms: CB_27  and  CG_31
REMARK   14  A    between atoms: CG_31  and  CD1_33
REMARK   15  A    between atoms: CG_31  and  CD2_34
REMARK                            x       y       z     vdW  Elec       q    Type
REMARK                         _______ _______ _______ _____ _____    ______ ____
ROOT
ATOM      1  S   UNL     1       0.091   3.609  23.853  0.00  0.00    -0.072 S 
ATOM      6  N   UNL     1      -1.036   1.438  24.695  0.00  0.00    -0.243 NA
ATOM      9  C   UNL     1       2.073  -0.492  23.478  0.00  0.00    -0.020 C 
ATOM     10  C   UNL     1       3.043   0.740  23.754  0.00  0.00    +0.011 C 
ATOM     11  C   UNL     1       4.548   0.579  23.308  0.00  0.00    +0.021 C 
ATOM     12  C   UNL     1       0.765  -0.300  24.376  0.00  0.00    +0.053 C 
ATOM     13  C   UNL     1       2.773  -1.807  23.911  0.00  0.00    +0.010 C 
ATOM     14  C   UNL     1       5.077  -0.804  23.781  0.00  0.00    +0.123 C 
ATOM     15  C   UNL     1       2.397   2.083  23.307  0.00  0.00    +0.049 C 
ATOM     16  C   UNL     1       4.183  -1.966  23.359  0.00  0.00    +0.032 C 
ATOM     17  C   UNL     1       1.663  -0.614  21.990  0.00  0.00    +0.012 C 
ATOM     18  C   UNL     1       0.239   1.109  24.273  0.00  0.00    +0.056 A 
ATOM     20  C   UNL     1       5.405   1.667  24.015  0.00  0.00    +0.016 C 
ATOM     21  C   UNL     1       0.995   2.167  23.807  0.00  0.00    +0.014 A 
ATOM     24  C   UNL     1      -1.226   2.727  24.513  0.00  0.00    +0.110 A 
ENDROOT
BRANCH  24  25
ATOM      8  N   UNL     1      -4.551   4.353  24.079  0.00  0.00    -0.263 NA
ATOM     25  C   UNL     1      -2.444   3.436  24.828  0.00  0.00    +0.025 A 
ATOM     28  C   UNL     1      -2.701   3.879  26.120  0.00  0.00    +0.013 A 
ATOM     29  C   UNL     1      -3.392   3.695  23.852  0.00  0.00    +0.121 A 
ATOM     32  C   UNL     1      -3.884   4.558  26.394  0.00  0.00    +0.020 A 
ATOM     35  C   UNL     1      -4.767   4.768  25.348  0.00  0.00    +0.111 A 
ENDBRANCH  24  25
BRANCH  14   2
ATOM      2  O   UNL     1       6.394  -1.035  23.283  0.00  0.00    -0.391 OA
ATOM     36  H   UNL     1       6.339  -1.082  22.313  0.00  0.00    +0.210 HD
ENDBRANCH  14   2
BRANCH  11  19
ATOM     19  C   UNL     1       4.794   0.777  21.796  0.00  0.00    +0.165 C 
BRANCH  19   3
ATOM      3  O   UNL     1       3.543   0.727  21.147  0.00  0.00    -0.394 OA
ATOM     37  H   UNL     1       2.858   0.804  21.832  0.00  0.00    +0.209 HD
ENDBRANCH  19   3
ENDBRANCH  11  19
BRANCH  12  22
ATOM     22  C   UNL     1      -0.341  -1.332  24.120  0.00  0.00    +0.106 C 
BRANCH  22  23
ATOM      4  O   UNL     1      -1.500  -1.241  26.242  0.00  0.00    -0.276 OA
ATOM      7  N   UNL     1      -2.658  -0.770  24.283  0.00  0.00    -0.310 N 
ATOM     23  C   ACE A   0      -1.536  -1.117  25.021  0.00  0.00    +0.214 C 
ATOM     38  H   UNL     1      -2.601  -0.763  23.268  0.00  0.00    +0.149 HD
BRANCH   7  26
ATOM     26  CA  UNL     1      -3.947  -0.507  24.882  0.00  0.00    +0.098 C 
BRANCH  26  27
ATOM     27  CB  UNL     1      -4.989  -1.542  24.423  0.00  0.00    +0.027 C 
BRANCH  27  31
ATOM     31  CG  UNL     1      -4.416  -2.751  23.653  0.00  0.00    -0.015 C 
ATOM     33  CD1 UNL     1      -5.564  -3.584  23.074  0.00  0.00    +0.007 C 
ATOM     34  CD2 UNL     1      -3.529  -3.637  24.528  0.00  0.00    +0.007 C 
ENDBRANCH  27  31
ENDBRANCH  26  27
BRANCH  26  30
ATOM     30  C   UNL     1      -4.388   0.926  24.567  0.00  0.00    +0.178 C 
BRANCH  30   5
ATOM      5  O   UNL     1      -5.322   1.391  25.533  0.00  0.00    -0.393 OA
ATOM     39  H   UNL     1      -6.114   0.832  25.458  0.00  0.00    +0.209 HD
ENDBRANCH  30   5
ENDBRANCH  26  30
ENDBRANCH   7  26
ENDBRANCH  22  23
ENDBRANCH  12  22
TORSDOF 11
ENDMDL
MODEL 6
REMARK VINA RESULT:      11.2      3.619      5.174
REMARK  Name = 7156516
REMARK  15 active torsions:
REMARK  status: ('A' for Active; 'I' for Inactive)
REMARK    1  A    between atoms: O_2  and  C_14
REMARK    2  A    between atoms: O_3  and  C_19
REMARK    3  A    between atoms: O_5  and  C_30
REMARK    4  A    between atoms: N_7  and  CA_26
REMARK    5  A    between atoms: C_9  and  C_17
REMARK    6  A    between atoms: C_11  and  C_19
REMARK    7  A    between atoms: C_11  and  C_20
REMARK    8  A    between atoms: C_12  and  C_22
REMARK    9  A    between atoms: C_22  and  C_23
REMARK   10  A    between atoms: C_24  and  C_25
REMARK   11  A    between atoms: CA_26  and  CB_27
REMARK   12  A    between atoms: CA_26  and  C_30
REMARK   13  A    between atoms: CB_27  and  CG_31
REMARK   14  A    between atoms: CG_31  and  CD1_33
REMARK   15  A    between atoms: CG_31  and  CD2_34
REMARK                            x       y       z     vdW  Elec       q    Type
REMARK                         _______ _______ _______ _____ _____    ______ ____
ROOT
ATOM      1  S   UNL     1       0.381  -0.223  22.856  0.00  0.00    -0.072 S 
ATOM      6  N   UNL     1       1.328   1.419  24.616  0.00  0.00    -0.243 NA
ATOM      9  C   UNL     1      -2.244   2.805  25.053  0.00  0.00    -0.020 C 
ATOM     10  C   UNL     1      -2.914   1.401  24.715  0.00  0.00    +0.011 C 
ATOM     11  C   UNL     1      -4.488   1.366  24.617  0.00  0.00    +0.021 C 
ATOM     12  C   UNL     1      -0.743   2.532  25.531  0.00  0.00    +0.053 C 
ATOM     13  C   UNL     1      -3.013   3.476  26.221  0.00  0.00    +0.010 C 
ATOM     14  C   UNL     1      -5.095   2.118  25.835  0.00  0.00    +0.123 C 
ATOM     15  C   UNL     1      -2.196   0.700  23.526  0.00  0.00    +0.049 C 
ATOM     16  C   UNL     1      -4.522   3.519  26.022  0.00  0.00    +0.032 C 
ATOM     17  C   UNL     1      -2.231   3.773  23.845  0.00  0.00    +0.012 C 
ATOM     18  C   UNL     1      -0.046   1.570  24.603  0.00  0.00    +0.056 A 
ATOM     20  C   UNL     1      -4.968  -0.111  24.700  0.00  0.00    +0.016 C 
ATOM     21  C   UNL     1      -0.718   0.744  23.725  0.00  0.00    +0.014 A 
ATOM     24  C   UNL     1       1.666   0.507  23.731  0.00  0.00    +0.110 A 
ENDROOT
BRANCH  24  25
ATOM      8  N   UNL     1       4.717  -1.630  23.589  0.00  0.00    -0.263 NA
ATOM     25  C   UNL     1       3.019   0.085  23.452  0.00  0.00    +0.025 A 
ATOM     28  C   UNL     1       3.914   0.930  22.806  0.00  0.00    +0.013 A 
ATOM     29  C   UNL     1       3.464  -1.174  23.820  0.00  0.00    +0.121 A 
ATOM     32  C   UNL     1       5.210   0.496  22.551  0.00  0.00    +0.020 A 
ATOM     35  C   UNL     1       5.559  -0.781  22.959  0.00  0.00    +0.111 A 
ENDBRANCH  24  25
BRANCH  14   2
ATOM      2  O   UNL     1      -6.513   2.215  25.710  0.00  0.00    -0.391 OA
ATOM     36  H   UNL     1      -6.813   2.922  26.307  0.00  0.00    +0.210 HD
ENDBRANCH  14   2
BRANCH  11  19
ATOM     19  C   UNL     1      -5.061   1.913  23.290  0.00  0.00    +0.165 C 
BRANCH  19   3
ATOM      3  O   UNL     1      -4.327   3.067  22.948  0.00  0.00    -0.394 OA
ATOM     37  H   UNL     1      -3.394   2.805  22.870  0.00  0.00    +0.209 HD
ENDBRANCH  19   3
ENDBRANCH  11  19
BRANCH  12  22
ATOM     22  C   UNL     1       0.094   3.798  25.758  0.00  0.00    +0.106 C 
BRANCH  22  23
ATOM      4  O   UNL     1       2.065   4.307  27.065  0.00  0.00    -0.276 OA
ATOM      7  N   UNL     1       0.584   2.680  27.813  0.00  0.00    -0.310 N 
ATOM     23  C   ACE A   0       1.037   3.650  26.930  0.00  0.00    +0.214 C 
ATOM     38  H   UNL     1      -0.243   2.141  27.574  0.00  0.00    +0.149 HD
BRANCH   7  26
ATOM     26  CA  UNL     1       1.288   2.323  29.023  0.00  0.00    +0.098 C 
BRANCH  26  27
ATOM     27  CB  UNL     1       0.558   2.862  30.265  0.00  0.00    +0.027 C 
BRANCH  27  31
ATOM     31  CG  UNL     1       0.707   2.000  31.537  0.00  0.00    -0.015 C 
ATOM     33  CD1 UNL     1       0.185   2.777  32.750  0.00  0.00    +0.007 C 
ATOM     34  CD2 UNL     1       2.153   1.568  31.787  0.00  0.00    +0.007 C 
ENDBRANCH  27  31
ENDBRANCH  26  27
BRANCH  26  30
ATOM     30  C   UNL     1       2.736   2.819  28.951  0.00  0.00    +0.178 C 
BRANCH  30   5
ATOM      5  O   UNL     1       3.576   1.840  28.355  0.00  0.00    -0.393 OA
ATOM     39  H   UNL     1       3.187   0.970  28.549  0.00  0.00    +0.209 HD
ENDBRANCH  30   5
ENDBRANCH  26  30
ENDBRANCH   7  26
ENDBRANCH  22  23
ENDBRANCH  12  22
TORSDOF 11
ENDMDL
