MODEL 1
REMARK VINA RESULT:      15.0      0.000      0.000
REMARK  Name = 11884218
REMARK  6 active torsions:
REMARK  status: ('A' for Active; 'I' for Inactive)
REMARK    1  A    between atoms: O_4  and  C_19
REMARK    2  A    between atoms: O_4  and  C_26
REMARK    3  A    between atoms: O_5  and  C_29
REMARK    4  A    between atoms: O_5  and  C_35
REMARK    5  A    between atoms: C_16  and  C_19
REMARK    6  A    between atoms: C_21  and  C_23
REMARK                            x       y       z     vdW  Elec       q    Type
REMARK                         _______ _______ _______ _____ _____    ______ ____
ROOT
ATOM      1  O   UNL     1      -3.669   2.024  23.374  0.00  0.00    -0.273 OA
ATOM      2  O   UNL     1       0.639   2.032  26.434  0.00  0.00    -0.270 OA
ATOM      3  O   UNL     1      -5.054   5.707  23.680  0.00  0.00    -0.272 OA
ATOM      6  N   UNL     1      -1.083   2.950  25.193  0.00  0.00    -0.283 N 
ATOM      7  N   UNL     1      -3.491   4.555  24.959  0.00  0.00    -0.295 N 
ATOM      8  N   UNL     1      -1.710   0.883  23.171  0.00  0.00    -0.283 N 
ATOM      9  C   UNL     1      -1.650   3.244  23.884  0.00  0.00    +0.180 C 
ATOM     10  C   UNL     1      -2.500   4.520  23.880  0.00  0.00    +0.140 C 
ATOM     11  C   UNL     1      -1.609   3.699  26.336  0.00  0.00    +0.128 C 
ATOM     12  C   UNL     1      -3.111   3.922  26.226  0.00  0.00    +0.127 C 
ATOM     13  C   UNL     1      -2.443   2.007  23.489  0.00  0.00    +0.239 C 
ATOM     14  C   UNL     1       0.034   2.138  25.366  0.00  0.00    +0.249 C 
ATOM     15  C   UNL     1       0.519   1.327  24.219  0.00  0.00    +0.059 A 
ATOM     16  C   UNL     1      -4.724   5.172  24.741  0.00  0.00    +0.253 C 
ATOM     17  C   UNL     1      -0.319   0.685  23.293  0.00  0.00    +0.046 A 
ATOM     18  C   UNL     1       1.900   1.058  24.198  0.00  0.00    +0.023 A 
ATOM     20  C   UNL     1       0.236  -0.261  22.414  0.00  0.00    +0.024 A 
ATOM     21  C   UNL     1       2.442   0.154  23.286  0.00  0.00    -0.017 A 
ATOM     22  C   UNL     1       1.606  -0.518  22.402  0.00  0.00    +0.010 A 
ATOM     36  H   UNL     1      -2.227   0.144  22.700  0.00  0.00    +0.155 HD
ENDROOT
BRANCH  21  23
ATOM     23  C   UNL     1       3.865  -0.105  23.276  0.00  0.00    -0.018 A 
ATOM     24  C   UNL     1       4.747   0.863  22.794  0.00  0.00    +0.012 A 
ATOM     25  C   UNL     1       4.355  -1.322  23.748  0.00  0.00    +0.012 A 
ATOM     27  C   UNL     1       6.119   0.611  22.784  0.00  0.00    +0.046 A 
ATOM     28  C   UNL     1       5.727  -1.573  23.737  0.00  0.00    +0.046 A 
ATOM     29  C   UNL     1       6.609  -0.607  23.255  0.00  0.00    +0.120 A 
BRANCH  29   5
ATOM      5  O   UNL     1       7.948  -0.851  23.244  0.00  0.00    -0.495 OA
ATOM     35  C   UNL     1       8.815   0.281  23.193  0.00  0.00    +0.277 C 
ENDBRANCH  29   5
ENDBRANCH  21  23
BRANCH  16  19
ATOM     19  C   UNL     1      -5.685   5.166  25.904  0.00  0.00    +0.324 C 
BRANCH  19   4
ATOM      4  O   UNL     1      -6.660   4.195  25.614  0.00  0.00    -0.483 OA
BRANCH   4  26
ATOM     26  C   UNL     1      -6.240   2.885  25.519  0.00  0.00    +0.121 A 
ATOM     30  C   UNL     1      -6.650   2.115  24.443  0.00  0.00    +0.045 A 
ATOM     31  C   UNL     1      -5.416   2.361  26.504  0.00  0.00    +0.045 A 
ATOM     32  C   UNL     1      -6.226   0.789  24.347  0.00  0.00    +0.004 A 
ATOM     33  C   UNL     1      -4.992   1.036  26.409  0.00  0.00    +0.004 A 
ATOM     34  C   UNL     1      -5.398   0.250  25.330  0.00  0.00    +0.000 A 
ENDBRANCH   4  26
ENDBRANCH  19   4
ENDBRANCH  16  19
TORSDOF 5
ENDMDL
