MODEL 1
REMARK VINA RESULT:      -4.7      0.000      0.000
REMARK  Name = 75536439
REMARK  7 active torsions:
REMARK  status: ('A' for Active; 'I' for Inactive)
REMARK    1  A    between atoms: O_2  and  C_10
REMARK    2  A    between atoms: N_4  and  C_18
REMARK    3  A    between atoms: N_6  and  C_14
REMARK    4  A    between atoms: C_8  and  C_13
REMARK    5  A    between atoms: C_11  and  C_14
REMARK    6  A    between atoms: C_13  and  C_15
REMARK    7  A    between atoms: C_18  and  C_21
REMARK                            x       y       z     vdW  Elec       q    Type
REMARK                         _______ _______ _______ _____ _____    ______ ____
ROOT
ATOM     13  C   UNL     1      -0.890   2.047  25.915  0.00  0.00    +0.090 C 
ENDROOT
BRANCH  13   8
ATOM      1  O   UNL     1      -3.041   1.885  24.902  0.00  0.00    -0.369 OA
ATOM      8  C   UNL     1      -2.042   2.830  25.297  0.00  0.00    +0.125 C 
ATOM      9  C   UNL     1      -2.616   3.833  26.296  0.00  0.00    +0.034 C 
ATOM     10  C   UNL     1      -4.855   3.507  25.200  0.00  0.00    +0.145 C 
ATOM     11  C   UNL     1      -4.209   2.452  24.294  0.00  0.00    +0.160 C 
ATOM     12  C   UNL     1      -3.845   4.528  25.716  0.00  0.00    +0.036 C 
BRANCH  10   2
ATOM      2  O   UNL     1      -5.429   2.850  26.334  0.00  0.00    -0.389 OA
ATOM     23  H   UNL     1      -6.117   2.245  26.005  0.00  0.00    +0.210 HD
ENDBRANCH  10   2
BRANCH  11  14
ATOM     14  C   UNL     1      -3.900   2.978  22.893  0.00  0.00    +0.112 C 
BRANCH  14   6
ATOM      6  N   UNL     1      -2.854   2.188  22.262  0.00  0.00    -0.328 NA
ATOM     25  H   UNL     1      -2.212   1.842  22.975  0.00  0.00    +0.118 HD
ATOM     26  H   UNL     1      -3.262   1.366  21.820  0.00  0.00    +0.118 HD
ENDBRANCH  14   6
ENDBRANCH  11  14
ENDBRANCH  13   8
BRANCH  13  15
ATOM      3  O   UNL     1       0.187  -0.760  23.926  0.00  0.00    -0.358 OA
ATOM      7  N   UNL     1      -0.548  -0.196  24.963  0.00  0.00    -0.083 NA
ATOM     15  C   UNL     1      -0.259   1.107  24.921  0.00  0.00    +0.086 A 
ATOM     21  C   UNL     1       0.892   0.213  23.296  0.00  0.00    +0.151 A 
ATOM     22  C   UNL     1       0.642   1.422  23.890  0.00  0.00    +0.072 A 
BRANCH  21  18
ATOM     18  C   UNL     1       1.729  -0.210  22.167  0.00  0.00    +0.161 C 
BRANCH  18   4
ATOM      4  N   UNL     1       3.140  -0.353  22.518  0.00  0.00    -0.293 NA
ATOM      5  N   UNL     1       5.373  -0.211  24.359  0.00  0.00    -0.314 NA
ATOM     16  C   UNL     1       3.711   0.937  22.922  0.00  0.00    +0.100 C 
ATOM     17  C   UNL     1       3.315  -1.352  23.580  0.00  0.00    +0.100 C 
ATOM     19  C   UNL     1       5.186   0.783  23.299  0.00  0.00    +0.096 C 
ATOM     20  C   UNL     1       4.793  -1.492  23.953  0.00  0.00    +0.096 C 
ATOM     24  H   UNL     1       6.369  -0.331  24.542  0.00  0.00    +0.122 HD
ENDBRANCH  18   4
ENDBRANCH  21  18
ENDBRANCH  13  15
TORSDOF 7
ENDMDL
MODEL 2
REMARK VINA RESULT:      -4.1      1.792      2.496
REMARK  Name = 75536439
REMARK  7 active torsions:
REMARK  status: ('A' for Active; 'I' for Inactive)
REMARK    1  A    between atoms: O_2  and  C_10
REMARK    2  A    between atoms: N_4  and  C_18
REMARK    3  A    between atoms: N_6  and  C_14
REMARK    4  A    between atoms: C_8  and  C_13
REMARK    5  A    between atoms: C_11  and  C_14
REMARK    6  A    between atoms: C_13  and  C_15
REMARK    7  A    between atoms: C_18  and  C_21
REMARK                            x       y       z     vdW  Elec       q    Type
REMARK                         _______ _______ _______ _____ _____    ______ ____
ROOT
ATOM     13  C   UNL     1      -2.533  -0.098  24.915  0.00  0.00    +0.090 C 
ENDROOT
BRANCH  13   8
ATOM      1  O   UNL     1      -3.631   1.865  25.701  0.00  0.00    -0.369 OA
ATOM      8  C   UNL     1      -3.502   1.021  24.554  0.00  0.00    +0.125 C 
ATOM      9  C   UNL     1      -2.988   1.818  23.355  0.00  0.00    +0.034 C 
ATOM     10  C   UNL     1      -4.114   3.842  24.334  0.00  0.00    +0.145 C 
ATOM     11  C   UNL     1      -4.515   2.982  25.539  0.00  0.00    +0.160 C 
ATOM     12  C   UNL     1      -3.898   3.010  23.073  0.00  0.00    +0.036 C 
BRANCH  10   2
ATOM      2  O   UNL     1      -2.884   4.508  24.634  0.00  0.00    -0.389 OA
ATOM     23  H   UNL     1      -2.976   4.912  25.514  0.00  0.00    +0.210 HD
ENDBRANCH  10   2
BRANCH  11  14
ATOM     14  C   UNL     1      -5.973   2.527  25.488  0.00  0.00    +0.112 C 
BRANCH  14   6
ATOM      6  N   UNL     1      -6.427   2.095  26.801  0.00  0.00    -0.328 NA
ATOM     25  H   UNL     1      -6.388   2.880  27.450  0.00  0.00    +0.118 HD
ATOM     26  H   UNL     1      -7.404   1.812  26.751  0.00  0.00    +0.118 HD
ENDBRANCH  14   6
ENDBRANCH  11  14
ENDBRANCH  13   8
BRANCH  13  15
ATOM      3  O   UNL     1       0.729   1.161  24.038  0.00  0.00    -0.358 OA
ATOM      7  N   UNL     1      -0.476   1.239  24.726  0.00  0.00    -0.083 NA
ATOM     15  C   UNL     1      -1.158   0.153  24.354  0.00  0.00    +0.086 A 
ATOM     21  C   UNL     1       0.737   0.037  23.276  0.00  0.00    +0.151 A 
ATOM     22  C   UNL     1      -0.441  -0.641  23.442  0.00  0.00    +0.072 A 
BRANCH  21  18
ATOM     18  C   UNL     1       1.945  -0.204  22.477  0.00  0.00    +0.161 C 
BRANCH  18   4
ATOM      4  N   UNL     1       3.179  -0.106  23.254  0.00  0.00    -0.293 NA
ATOM      5  N   UNL     1       6.050  -0.319  23.583  0.00  0.00    -0.314 NA
ATOM     16  C   UNL     1       3.838  -1.414  23.356  0.00  0.00    +0.100 C 
ATOM     17  C   UNL     1       4.087   0.886  22.665  0.00  0.00    +0.100 C 
ATOM     19  C   UNL     1       5.135  -1.306  24.160  0.00  0.00    +0.096 C 
ATOM     20  C   UNL     1       5.384   0.980  23.474  0.00  0.00    +0.096 C 
ATOM     24  H   UNL     1       6.875  -0.230  24.176  0.00  0.00    +0.122 HD
ENDBRANCH  18   4
ENDBRANCH  21  18
ENDBRANCH  13  15
TORSDOF 7
ENDMDL
MODEL 3
REMARK VINA RESULT:      -4.0      2.362      6.776
REMARK  Name = 75536439
REMARK  7 active torsions:
REMARK  status: ('A' for Active; 'I' for Inactive)
REMARK    1  A    between atoms: O_2  and  C_10
REMARK    2  A    between atoms: N_4  and  C_18
REMARK    3  A    between atoms: N_6  and  C_14
REMARK    4  A    between atoms: C_8  and  C_13
REMARK    5  A    between atoms: C_11  and  C_14
REMARK    6  A    between atoms: C_13  and  C_15
REMARK    7  A    between atoms: C_18  and  C_21
REMARK                            x       y       z     vdW  Elec       q    Type
REMARK                         _______ _______ _______ _____ _____    ______ ____
ROOT
ATOM     13  C   UNL     1      -1.303  -1.904  25.069  0.00  0.00    +0.090 C 
ENDROOT
BRANCH  13   8
ATOM      1  O   UNL     1      -0.265  -0.487  23.459  0.00  0.00    -0.369 OA
ATOM      8  C   UNL     1      -0.293  -0.783  24.858  0.00  0.00    +0.125 C 
ATOM      9  C   UNL     1      -0.681   0.457  25.663  0.00  0.00    +0.034 C 
ATOM     10  C   UNL     1       0.367   1.850  23.851  0.00  0.00    +0.145 C 
ATOM     11  C   UNL     1       0.642   0.555  23.075  0.00  0.00    +0.160 C 
ATOM     12  C   UNL     1       0.264   1.615  25.355  0.00  0.00    +0.036 C 
BRANCH  10   2
ATOM      2  O   UNL     1      -0.878   2.395  23.407  0.00  0.00    -0.389 OA
ATOM     23  H   UNL     1      -0.933   2.259  22.445  0.00  0.00    +0.210 HD
ENDBRANCH  10   2
BRANCH  11  14
ATOM     14  C   UNL     1       2.094   0.090  23.187  0.00  0.00    +0.112 C 
BRANCH  14   6
ATOM      6  N   UNL     1       3.009   1.213  23.058  0.00  0.00    -0.328 NA
ATOM     25  H   UNL     1       2.904   1.634  22.135  0.00  0.00    +0.118 HD
ATOM     26  H   UNL     1       2.764   1.935  23.732  0.00  0.00    +0.118 HD
ENDBRANCH  14   6
ENDBRANCH  11  14
ENDBRANCH  13   8
BRANCH  13  15
ATOM      3  O   UNL     1      -4.708  -1.472  23.966  0.00  0.00    -0.358 OA
ATOM      7  N   UNL     1      -3.504  -2.166  24.000  0.00  0.00    -0.083 NA
ATOM     15  C   UNL     1      -2.711  -1.443  24.795  0.00  0.00    +0.086 A 
ATOM     21  C   UNL     1      -4.605  -0.358  24.735  0.00  0.00    +0.151 A 
ATOM     22  C   UNL     1      -3.352  -0.293  25.287  0.00  0.00    +0.072 A 
BRANCH  21  18
ATOM     18  C   UNL     1      -5.795   0.498  24.813  0.00  0.00    +0.161 C 
BRANCH  18   4
ATOM      4  N   UNL     1      -5.497   1.916  24.627  0.00  0.00    -0.293 NA
ATOM      5  N   UNL     1      -3.906   4.301  25.053  0.00  0.00    -0.314 NA
ATOM     16  C   UNL     1      -5.520   2.627  25.912  0.00  0.00    +0.100 C 
ATOM     17  C   UNL     1      -4.200   2.094  23.962  0.00  0.00    +0.100 C 
ATOM     19  C   UNL     1      -5.198   4.110  25.716  0.00  0.00    +0.096 C 
ATOM     20  C   UNL     1      -3.886   3.581  23.778  0.00  0.00    +0.096 C 
ATOM     24  H   UNL     1      -3.752   5.295  24.886  0.00  0.00    +0.122 HD
ENDBRANCH  18   4
ENDBRANCH  21  18
ENDBRANCH  13  15
TORSDOF 7
ENDMDL
MODEL 4
REMARK VINA RESULT:      -4.0      3.175      5.829
REMARK  Name = 75536439
REMARK  7 active torsions:
REMARK  status: ('A' for Active; 'I' for Inactive)
REMARK    1  A    between atoms: O_2  and  C_10
REMARK    2  A    between atoms: N_4  and  C_18
REMARK    3  A    between atoms: N_6  and  C_14
REMARK    4  A    between atoms: C_8  and  C_13
REMARK    5  A    between atoms: C_11  and  C_14
REMARK    6  A    between atoms: C_13  and  C_15
REMARK    7  A    between atoms: C_18  and  C_21
REMARK                            x       y       z     vdW  Elec       q    Type
REMARK                         _______ _______ _______ _____ _____    ______ ____
ROOT
ATOM     13  C   UNL     1      -5.375   0.442  24.578  0.00  0.00    +0.090 C 
ENDROOT
BRANCH  13   8
ATOM      1  O   UNL     1      -3.359  -0.594  25.315  0.00  0.00    -0.369 OA
ATOM      8  C   UNL     1      -4.266  -0.538  24.211  0.00  0.00    +0.125 C 
ATOM      9  C   UNL     1      -4.840  -1.922  23.913  0.00  0.00    +0.034 C 
ATOM     10  C   UNL     1      -2.701  -2.900  24.802  0.00  0.00    +0.145 C 
ATOM     11  C   UNL     1      -2.242  -1.475  25.141  0.00  0.00    +0.160 C 
ATOM     12  C   UNL     1      -3.719  -2.927  23.666  0.00  0.00    +0.036 C 
BRANCH  10   2
ATOM      2  O   UNL     1      -3.321  -3.470  25.958  0.00  0.00    -0.389 OA
ATOM     23  H   UNL     1      -2.826  -3.164  26.738  0.00  0.00    +0.210 HD
ENDBRANCH  10   2
BRANCH  11  14
ATOM     14  C   UNL     1      -1.249  -0.911  24.127  0.00  0.00    +0.112 C 
BRANCH  14   6
ATOM      6  N   UNL     1       0.074  -0.775  24.717  0.00  0.00    -0.328 NA
ATOM     25  H   UNL     1       0.007  -0.877  25.729  0.00  0.00    +0.118 HD
ATOM     26  H   UNL     1       0.675  -1.530  24.392  0.00  0.00    +0.118 HD
ENDBRANCH  14   6
ENDBRANCH  11  14
ENDBRANCH  13   8
BRANCH  13  15
ATOM      3  O   UNL     1      -4.837   3.885  25.499  0.00  0.00    -0.358 OA
ATOM      7  N   UNL     1      -5.654   2.780  25.290  0.00  0.00    -0.083 NA
ATOM     15  C   UNL     1      -4.828   1.808  24.896  0.00  0.00    +0.086 A 
ATOM     21  C   UNL     1      -3.550   3.547  25.228  0.00  0.00    +0.151 A 
ATOM     22  C   UNL     1      -3.490   2.235  24.840  0.00  0.00    +0.072 A 
BRANCH  21  18
ATOM     18  C   UNL     1      -2.545   4.604  25.398  0.00  0.00    +0.161 C 
BRANCH  18   4
ATOM      4  N   UNL     1      -1.175   4.098  25.414  0.00  0.00    -0.293 NA
ATOM      5  N   UNL     1       0.804   1.988  25.243  0.00  0.00    -0.314 NA
ATOM     16  C   UNL     1      -0.982   3.144  26.514  0.00  0.00    +0.100 C 
ATOM     17  C   UNL     1      -0.832   3.479  24.127  0.00  0.00    +0.100 C 
ATOM     19  C   UNL     1       0.450   2.608  26.522  0.00  0.00    +0.096 C 
ATOM     20  C   UNL     1       0.601   2.940  24.150  0.00  0.00    +0.096 C 
ATOM     24  H   UNL     1       1.781   1.696  25.264  0.00  0.00    +0.122 HD
ENDBRANCH  18   4
ENDBRANCH  21  18
ENDBRANCH  13  15
TORSDOF 7
ENDMDL
MODEL 5
REMARK VINA RESULT:      -3.6      3.071      6.162
REMARK  Name = 75536439
REMARK  7 active torsions:
REMARK  status: ('A' for Active; 'I' for Inactive)
REMARK    1  A    between atoms: O_2  and  C_10
REMARK    2  A    between atoms: N_4  and  C_18
REMARK    3  A    between atoms: N_6  and  C_14
REMARK    4  A    between atoms: C_8  and  C_13
REMARK    5  A    between atoms: C_11  and  C_14
REMARK    6  A    between atoms: C_13  and  C_15
REMARK    7  A    between atoms: C_18  and  C_21
REMARK                            x       y       z     vdW  Elec       q    Type
REMARK                         _______ _______ _______ _____ _____    ______ ____
ROOT
ATOM     13  C   UNL     1      -0.307  -0.933  24.345  0.00  0.00    +0.090 C 
ENDROOT
BRANCH  13   8
ATOM      1  O   UNL     1      -2.625  -0.559  23.939  0.00  0.00    -0.369 OA
ATOM      8  C   UNL     1      -1.724  -1.283  24.781  0.00  0.00    +0.125 C 
ATOM      9  C   UNL     1      -1.972  -2.787  24.667  0.00  0.00    +0.034 C 
ATOM     10  C   UNL     1      -4.377  -2.260  24.158  0.00  0.00    +0.145 C 
ATOM     11  C   UNL     1      -4.016  -0.770  24.211  0.00  0.00    +0.160 C 
ATOM     12  C   UNL     1      -3.427  -3.118  24.988  0.00  0.00    +0.036 C 
BRANCH  10   2
ATOM      2  O   UNL     1      -4.294  -2.704  22.801  0.00  0.00    -0.389 OA
ATOM     23  H   UNL     1      -3.546  -3.324  22.740  0.00  0.00    +0.210 HD
ENDBRANCH  10   2
BRANCH  11  14
ATOM     14  C   UNL     1      -4.428  -0.103  25.524  0.00  0.00    +0.112 C 
BRANCH  14   6
ATOM      6  N   UNL     1      -5.409   0.944  25.288  0.00  0.00    -0.328 NA
ATOM     25  H   UNL     1      -4.982   1.695  24.747  0.00  0.00    +0.118 HD
ATOM     26  H   UNL     1      -6.171   0.579  24.718  0.00  0.00    +0.118 HD
ENDBRANCH  14   6
ENDBRANCH  11  14
ENDBRANCH  13   8
BRANCH  13  15
ATOM      3  O   UNL     1       0.918   2.436  23.959  0.00  0.00    -0.358 OA
ATOM      7  N   UNL     1       1.013   1.062  23.768  0.00  0.00    -0.083 NA
ATOM     15  C   UNL     1      -0.072   0.555  24.357  0.00  0.00    +0.086 A 
ATOM     21  C   UNL     1      -0.215   2.713  24.653  0.00  0.00    +0.151 A 
ATOM     22  C   UNL     1      -0.883   1.550  24.931  0.00  0.00    +0.072 A 
BRANCH  21  18
ATOM     18  C   UNL     1      -0.475   4.128  24.945  0.00  0.00    +0.161 C 
BRANCH  18   4
ATOM      4  N   UNL     1      -1.898   4.443  25.051  0.00  0.00    -0.293 NA
ATOM      5  N   UNL     1      -4.678   3.735  25.461  0.00  0.00    -0.314 NA
ATOM     16  C   UNL     1      -2.667   3.745  24.012  0.00  0.00    +0.100 C 
ATOM     17  C   UNL     1      -2.408   4.105  26.386  0.00  0.00    +0.100 C 
ATOM     19  C   UNL     1      -4.157   4.068  24.133  0.00  0.00    +0.096 C 
ATOM     20  C   UNL     1      -3.902   4.425  26.492  0.00  0.00    +0.096 C 
ATOM     24  H   UNL     1      -5.656   4.017  25.524  0.00  0.00    +0.122 HD
ENDBRANCH  18   4
ENDBRANCH  21  18
ENDBRANCH  13  15
TORSDOF 7
ENDMDL
MODEL 6
REMARK VINA RESULT:      -3.5      2.791      6.296
REMARK  Name = 75536439
REMARK  7 active torsions:
REMARK  status: ('A' for Active; 'I' for Inactive)
REMARK    1  A    between atoms: O_2  and  C_10
REMARK    2  A    between atoms: N_4  and  C_18
REMARK    3  A    between atoms: N_6  and  C_14
REMARK    4  A    between atoms: C_8  and  C_13
REMARK    5  A    between atoms: C_11  and  C_14
REMARK    6  A    between atoms: C_13  and  C_15
REMARK    7  A    between atoms: C_18  and  C_21
REMARK                            x       y       z     vdW  Elec       q    Type
REMARK                         _______ _______ _______ _____ _____    ______ ____
ROOT
ATOM     13  C   UNL     1      -4.478  -0.679  23.899  0.00  0.00    +0.090 C 
ENDROOT
BRANCH  13   8
ATOM      1  O   UNL     1      -2.238  -0.004  24.351  0.00  0.00    -0.369 OA
ATOM      8  C   UNL     1      -3.021  -1.125  23.933  0.00  0.00    +0.125 C 
ATOM      9  C   UNL     1      -2.834  -2.299  24.893  0.00  0.00    +0.034 C 
ATOM     10  C   UNL     1      -0.520  -1.434  25.357  0.00  0.00    +0.145 C 
ATOM     11  C   UNL     1      -0.828  -0.244  24.438  0.00  0.00    +0.160 C 
ATOM     12  C   UNL     1      -1.357  -2.663  25.016  0.00  0.00    +0.036 C 
BRANCH  10   2
ATOM      2  O   UNL     1      -0.818  -1.062  26.706  0.00  0.00    -0.389 OA
ATOM     23  H   UNL     1      -1.764  -0.840  26.746  0.00  0.00    +0.210 HD
ENDBRANCH  10   2
BRANCH  11  14
ATOM     14  C   UNL     1      -0.206  -0.386  23.050  0.00  0.00    +0.112 C 
BRANCH  14   6
ATOM      6  N   UNL     1       1.219  -0.097  23.088  0.00  0.00    -0.328 NA
ATOM     25  H   UNL     1       1.364   0.909  23.006  0.00  0.00    +0.118 HD
ATOM     26  H   UNL     1       1.601  -0.369  23.992  0.00  0.00    +0.118 HD
ENDBRANCH  14   6
ENDBRANCH  11  14
ENDBRANCH  13   8
BRANCH  13  15
ATOM      3  O   UNL     1      -5.647   2.124  25.842  0.00  0.00    -0.358 OA
ATOM      7  N   UNL     1      -5.787   0.841  25.323  0.00  0.00    -0.083 NA
ATOM     15  C   UNL     1      -4.676   0.632  24.613  0.00  0.00    +0.086 A 
ATOM     21  C   UNL     1      -4.463   2.645  25.431  0.00  0.00    +0.151 A 
ATOM     22  C   UNL     1      -3.805   1.735  24.646  0.00  0.00    +0.072 A 
BRANCH  21  18
ATOM     18  C   UNL     1      -4.150   4.004  25.890  0.00  0.00    +0.161 C 
BRANCH  18   4
ATOM      4  N   UNL     1      -2.716   4.285  25.925  0.00  0.00    -0.293 NA
ATOM      5  N   UNL     1      -0.023   4.117  24.869  0.00  0.00    -0.314 NA
ATOM     16  C   UNL     1      -1.942   3.040  26.009  0.00  0.00    +0.100 C 
ATOM     17  C   UNL     1      -2.310   5.068  24.752  0.00  0.00    +0.100 C 
ATOM     19  C   UNL     1      -0.441   3.336  26.035  0.00  0.00    +0.096 C 
ATOM     20  C   UNL     1      -0.806   5.352  24.785  0.00  0.00    +0.096 C 
ATOM     24  H   UNL     1       0.967   4.346  24.949  0.00  0.00    +0.122 HD
ENDBRANCH  18   4
ENDBRANCH  21  18
ENDBRANCH  13  15
TORSDOF 7
ENDMDL
MODEL 7
REMARK VINA RESULT:      -3.3      1.666      2.357
REMARK  Name = 75536439
REMARK  7 active torsions:
REMARK  status: ('A' for Active; 'I' for Inactive)
REMARK    1  A    between atoms: O_2  and  C_10
REMARK    2  A    between atoms: N_4  and  C_18
REMARK    3  A    between atoms: N_6  and  C_14
REMARK    4  A    between atoms: C_8  and  C_13
REMARK    5  A    between atoms: C_11  and  C_14
REMARK    6  A    between atoms: C_13  and  C_15
REMARK    7  A    between atoms: C_18  and  C_21
REMARK                            x       y       z     vdW  Elec       q    Type
REMARK                         _______ _______ _______ _____ _____    ______ ____
ROOT
ATOM     13  C   UNL     1      -2.839  -0.381  25.143  0.00  0.00    +0.090 C 
ENDROOT
BRANCH  13   8
ATOM      1  O   UNL     1      -2.336   1.856  24.493  0.00  0.00    -0.369 OA
ATOM      8  C   UNL     1      -3.198   1.088  25.336  0.00  0.00    +0.125 C 
ATOM      9  C   UNL     1      -4.663   1.340  24.982  0.00  0.00    +0.034 C 
ATOM     10  C   UNL     1      -3.991   3.647  24.241  0.00  0.00    +0.145 C 
ATOM     11  C   UNL     1      -2.535   3.274  24.549  0.00  0.00    +0.160 C 
ATOM     12  C   UNL     1      -4.986   2.830  25.059  0.00  0.00    +0.036 C 
BRANCH  10   2
ATOM      2  O   UNL     1      -4.248   3.389  22.857  0.00  0.00    -0.389 OA
ATOM     23  H   UNL     1      -3.403   3.470  22.382  0.00  0.00    +0.210 HD
ENDBRANCH  10   2
BRANCH  11  14
ATOM     14  C   UNL     1      -2.041   3.848  25.877  0.00  0.00    +0.112 C 
BRANCH  14   6
ATOM      6  N   UNL     1      -0.705   3.363  26.185  0.00  0.00    -0.328 NA
ATOM     25  H   UNL     1      -0.772   2.485  26.699  0.00  0.00    +0.118 HD
ATOM     26  H   UNL     1      -0.207   3.153  25.322  0.00  0.00    +0.118 HD
ENDBRANCH  14   6
ENDBRANCH  11  14
ENDBRANCH  13   8
BRANCH  13  15
ATOM      3  O   UNL     1       0.559  -1.322  24.393  0.00  0.00    -0.358 OA
ATOM      7  N   UNL     1      -0.609  -1.421  25.140  0.00  0.00    -0.083 NA
ATOM     15  C   UNL     1      -1.450  -0.545  24.584  0.00  0.00    +0.086 A 
ATOM     21  C   UNL     1       0.387  -0.396  23.415  0.00  0.00    +0.151 A 
ATOM     22  C   UNL     1      -0.876   0.129  23.493  0.00  0.00    +0.072 A 
BRANCH  21  18
ATOM     18  C   UNL     1       1.531  -0.164  22.525  0.00  0.00    +0.161 C 
BRANCH  18   4
ATOM      4  N   UNL     1       2.803  -0.061  23.236  0.00  0.00    -0.293 NA
ATOM      5  N   UNL     1       5.688  -0.268  23.417  0.00  0.00    -0.314 NA
ATOM     16  C   UNL     1       3.469  -1.368  23.308  0.00  0.00    +0.100 C 
ATOM     17  C   UNL     1       3.678   0.931  22.599  0.00  0.00    +0.100 C 
ATOM     19  C   UNL     1       4.806  -1.255  24.044  0.00  0.00    +0.096 C 
ATOM     20  C   UNL     1       5.015   1.030  23.340  0.00  0.00    +0.096 C 
ATOM     24  H   UNL     1       6.542  -0.176  23.967  0.00  0.00    +0.122 HD
ENDBRANCH  18   4
ENDBRANCH  21  18
ENDBRANCH  13  15
TORSDOF 7
ENDMDL
MODEL 8
REMARK VINA RESULT:      -3.3     12.762     15.952
REMARK  Name = 75536439
REMARK  7 active torsions:
REMARK  status: ('A' for Active; 'I' for Inactive)
REMARK    1  A    between atoms: O_2  and  C_10
REMARK    2  A    between atoms: N_4  and  C_18
REMARK    3  A    between atoms: N_6  and  C_14
REMARK    4  A    between atoms: C_8  and  C_13
REMARK    5  A    between atoms: C_11  and  C_14
REMARK    6  A    between atoms: C_13  and  C_15
REMARK    7  A    between atoms: C_18  and  C_21
REMARK                            x       y       z     vdW  Elec       q    Type
REMARK                         _______ _______ _______ _____ _____    ______ ____
ROOT
ATOM     13  C   UNL     1      11.114   8.234  18.249  0.00  0.00    +0.090 C 
ENDROOT
BRANCH  13   8
ATOM      1  O   UNL     1      11.819   6.859  20.063  0.00  0.00    -0.369 OA
ATOM      8  C   UNL     1      10.869   7.868  19.708  0.00  0.00    +0.125 C 
ATOM      9  C   UNL     1      11.022   9.092  20.609  0.00  0.00    +0.034 C 
ATOM     10  C   UNL     1      11.840   7.547  22.416  0.00  0.00    +0.145 C 
ATOM     11  C   UNL     1      11.733   6.390  21.415  0.00  0.00    +0.160 C 
ATOM     12  C   UNL     1      10.896   8.698  22.078  0.00  0.00    +0.036 C 
BRANCH  10   2
ATOM      2  O   UNL     1      13.177   8.056  22.389  0.00  0.00    -0.389 OA
ATOM     23  H   UNL     1      13.726   7.468  22.935  0.00  0.00    +0.210 HD
ENDBRANCH  10   2
BRANCH  11  14
ATOM     14  C   UNL     1      10.483   5.536  21.622  0.00  0.00    +0.112 C 
BRANCH  14   6
ATOM      6  N   UNL     1      10.600   4.267  20.922  0.00  0.00    -0.328 NA
ATOM     25  H   UNL     1      11.036   4.419  20.012  0.00  0.00    +0.118 HD
ATOM     26  H   UNL     1      11.222   3.646  21.437  0.00  0.00    +0.118 HD
ENDBRANCH  14   6
ENDBRANCH  11  14
ENDBRANCH  13   8
BRANCH  13  15
ATOM      3  O   UNL     1      14.232   7.730  16.512  0.00  0.00    -0.358 OA
ATOM      7  N   UNL     1      12.918   8.181  16.577  0.00  0.00    -0.083 NA
ATOM     15  C   UNL     1      12.512   7.883  17.814  0.00  0.00    +0.086 A 
ATOM     21  C   UNL     1      14.576   7.178  17.703  0.00  0.00    +0.151 A 
ATOM     22  C   UNL     1      13.515   7.250  18.568  0.00  0.00    +0.072 A 
BRANCH  21  18
ATOM     18  C   UNL     1      15.940   6.647  17.811  0.00  0.00    +0.161 C 
BRANCH  18   4
ATOM      4  N   UNL     1      16.622   7.054  19.038  0.00  0.00    -0.293 NA
ATOM      5  N   UNL     1      16.723   7.582  21.885  0.00  0.00    -0.314 NA
ATOM     16  C   UNL     1      15.992   8.250  19.613  0.00  0.00    +0.100 C 
ATOM     17  C   UNL     1      16.637   5.958  20.014  0.00  0.00    +0.100 C 
ATOM     19  C   UNL     1      16.701   8.668  20.902  0.00  0.00    +0.096 C 
ATOM     20  C   UNL     1      17.343   6.391  21.302  0.00  0.00    +0.096 C 
ATOM     24  H   UNL     1      17.253   7.875  22.706  0.00  0.00    +0.122 HD
ENDBRANCH  18   4
ENDBRANCH  21  18
ENDBRANCH  13  15
TORSDOF 7
ENDMDL
MODEL 9
REMARK VINA RESULT:      -3.2      1.374      1.906
REMARK  Name = 75536439
REMARK  7 active torsions:
REMARK  status: ('A' for Active; 'I' for Inactive)
REMARK    1  A    between atoms: O_2  and  C_10
REMARK    2  A    between atoms: N_4  and  C_18
REMARK    3  A    between atoms: N_6  and  C_14
REMARK    4  A    between atoms: C_8  and  C_13
REMARK    5  A    between atoms: C_11  and  C_14
REMARK    6  A    between atoms: C_13  and  C_15
REMARK    7  A    between atoms: C_18  and  C_21
REMARK                            x       y       z     vdW  Elec       q    Type
REMARK                         _______ _______ _______ _____ _____    ______ ____
ROOT
ATOM     13  C   UNL     1      -1.630   2.246  25.174  0.00  0.00    +0.090 C 
ENDROOT
BRANCH  13   8
ATOM      1  O   UNL     1      -3.638   1.062  25.665  0.00  0.00    -0.369 OA
ATOM      8  C   UNL     1      -3.083   2.028  24.770  0.00  0.00    +0.125 C 
ATOM      9  C   UNL     1      -3.868   3.338  24.836  0.00  0.00    +0.034 C 
ATOM     10  C   UNL     1      -5.899   1.983  25.439  0.00  0.00    +0.145 C 
ATOM     11  C   UNL     1      -5.013   0.731  25.429  0.00  0.00    +0.160 C 
ATOM     12  C   UNL     1      -5.346   3.093  24.549  0.00  0.00    +0.036 C 
BRANCH  10   2
ATOM      2  O   UNL     1      -5.965   2.488  26.776  0.00  0.00    -0.389 OA
ATOM     23  H   UNL     1      -6.505   1.869  27.297  0.00  0.00    +0.210 HD
ENDBRANCH  10   2
BRANCH  11  14
ATOM     14  C   UNL     1      -5.168  -0.099  24.155  0.00  0.00    +0.112 C 
BRANCH  14   6
ATOM      6  N   UNL     1      -4.160  -1.145  24.092  0.00  0.00    -0.328 NA
ATOM     25  H   UNL     1      -4.113  -1.628  24.990  0.00  0.00    +0.118 HD
ATOM     26  H   UNL     1      -4.432  -1.845  23.404  0.00  0.00    +0.118 HD
ENDBRANCH  14   6
ENDBRANCH  11  14
ENDBRANCH  13   8
BRANCH  13  15
ATOM      3  O   UNL     1       0.042  -0.642  23.810  0.00  0.00    -0.358 OA
ATOM      7  N   UNL     1      -0.988  -0.038  24.522  0.00  0.00    -0.083 NA
ATOM     15  C   UNL     1      -0.710   1.267  24.493  0.00  0.00    +0.086 A 
ATOM     21  C   UNL     1       0.904   0.312  23.375  0.00  0.00    +0.151 A 
ATOM     22  C   UNL     1       0.471   1.546  23.783  0.00  0.00    +0.072 A 
BRANCH  21  18
ATOM     18  C   UNL     1       2.060  -0.154  22.599  0.00  0.00    +0.161 C 
BRANCH  18   4
ATOM      4  N   UNL     1       3.319  -0.075  23.336  0.00  0.00    -0.293 NA
ATOM      5  N   UNL     1       6.193  -0.356  23.583  0.00  0.00    -0.314 NA
ATOM     16  C   UNL     1       3.948  -1.398  23.440  0.00  0.00    +0.100 C 
ATOM     17  C   UNL     1       4.234   0.884  22.705  0.00  0.00    +0.100 C 
ATOM     19  C   UNL     1       5.271  -1.310  24.203  0.00  0.00    +0.096 C 
ATOM     20  C   UNL     1       5.556   0.958  23.473  0.00  0.00    +0.096 C 
ATOM     24  H   UNL     1       7.037  -0.279  24.149  0.00  0.00    +0.122 HD
ENDBRANCH  18   4
ENDBRANCH  21  18
ENDBRANCH  13  15
TORSDOF 7
ENDMDL
MODEL 10
REMARK VINA RESULT:      -2.6      2.394      3.512
REMARK  Name = 75536439
REMARK  7 active torsions:
REMARK  status: ('A' for Active; 'I' for Inactive)
REMARK    1  A    between atoms: O_2  and  C_10
REMARK    2  A    between atoms: N_4  and  C_18
REMARK    3  A    between atoms: N_6  and  C_14
REMARK    4  A    between atoms: C_8  and  C_13
REMARK    5  A    between atoms: C_11  and  C_14
REMARK    6  A    between atoms: C_13  and  C_15
REMARK    7  A    between atoms: C_18  and  C_21
REMARK                            x       y       z     vdW  Elec       q    Type
REMARK                         _______ _______ _______ _____ _____    ______ ____
ROOT
ATOM     13  C   UNL     1      -5.251  -0.284  24.615  0.00  0.00    +0.090 C 
ENDROOT
BRANCH  13   8
ATOM      1  O   UNL     1      -5.052   1.763  25.819  0.00  0.00    -0.369 OA
ATOM      8  C   UNL     1      -5.140   1.231  24.494  0.00  0.00    +0.125 C 
ATOM      9  C   UNL     1      -3.911   1.622  23.675  0.00  0.00    +0.034 C 
ATOM     10  C   UNL     1      -3.751   3.704  25.076  0.00  0.00    +0.145 C 
ATOM     11  C   UNL     1      -4.941   3.190  25.896  0.00  0.00    +0.160 C 
ATOM     12  C   UNL     1      -3.735   3.138  23.658  0.00  0.00    +0.036 C 
BRANCH  10   2
ATOM      2  O   UNL     1      -2.540   3.301  25.720  0.00  0.00    -0.389 OA
ATOM     23  H   UNL     1      -1.800   3.570  25.149  0.00  0.00    +0.210 HD
ENDBRANCH  10   2
BRANCH  11  14
ATOM     14  C   UNL     1      -6.260   3.866  25.522  0.00  0.00    +0.112 C 
BRANCH  14   6
ATOM      6  N   UNL     1      -6.231   5.280  25.860  0.00  0.00    -0.328 NA
ATOM     25  H   UNL     1      -5.696   5.415  26.717  0.00  0.00    +0.118 HD
ATOM     26  H   UNL     1      -5.741   5.797  25.132  0.00  0.00    +0.118 HD
ENDBRANCH  14   6
ENDBRANCH  11  14
ENDBRANCH  13   8
BRANCH  13  15
ATOM      3  O   UNL     1      -2.477  -2.538  24.149  0.00  0.00    -0.358 OA
ATOM      7  N   UNL     1      -3.837  -2.251  24.187  0.00  0.00    -0.083 NA
ATOM     15  C   UNL     1      -3.908  -0.953  24.491  0.00  0.00    +0.086 A 
ATOM     21  C   UNL     1      -1.774  -1.411  24.429  0.00  0.00    +0.151 A 
ATOM     22  C   UNL     1      -2.638  -0.372  24.654  0.00  0.00    +0.072 A 
BRANCH  21  18
ATOM     18  C   UNL     1      -0.311  -1.534  24.431  0.00  0.00    +0.161 C 
BRANCH  18   4
ATOM      4  N   UNL     1       0.358  -0.471  23.684  0.00  0.00    -0.293 NA
ATOM      5  N   UNL     1       2.462   1.482  23.291  0.00  0.00    -0.314 NA
ATOM     16  C   UNL     1       0.399   0.771  24.467  0.00  0.00    +0.100 C 
ATOM     17  C   UNL     1       1.712  -0.881  23.293  0.00  0.00    +0.100 C 
ATOM     19  C   UNL     1       1.109   1.879  23.687  0.00  0.00    +0.096 C 
ATOM     20  C   UNL     1       2.414   0.239  22.520  0.00  0.00    +0.096 C 
ATOM     24  H   UNL     1       2.882   2.219  22.724  0.00  0.00    +0.122 HD
ENDBRANCH  18   4
ENDBRANCH  21  18
ENDBRANCH  13  15
TORSDOF 7
ENDMDL
