MODEL 1
REMARK VINA RESULT:      -3.9      0.000      0.000
REMARK  Name = 26745453
REMARK  6 active torsions:
REMARK  status: ('A' for Active; 'I' for Inactive)
REMARK    1  A    between atoms: O_2  and  C_15
REMARK    2  A    between atoms: O_2  and  C_22
REMARK    3  A    between atoms: N_6  and  C_13
REMARK    4  A    between atoms: C_8  and  C_15
REMARK    5  A    between atoms: C_13  and  C_17
REMARK    6  A    between atoms: C_16  and  C_18
REMARK                            x       y       z     vdW  Elec       q    Type
REMARK                         _______ _______ _______ _____ _____    ______ ____
ROOT
ATOM      4  O   UNL     1       0.969   2.279  26.051  0.00  0.00    -0.269 OA
ATOM      5  N   UNL     1      -0.685   0.999  24.988  0.00  0.00    -0.277 N 
ATOM      6  N   UNL     1      -3.795  -0.898  24.120  0.00  0.00    -0.328 N 
ATOM      7  N   UNL     1      -2.610  -2.700  24.703  0.00  0.00    -0.240 NA
ATOM      8  C   UNL     1       0.212  -0.175  24.833  0.00  0.00    +0.191 C 
ATOM      9  C   UNL     1      -0.428  -1.526  25.218  0.00  0.00    +0.091 C 
ATOM     10  C   UNL     1      -2.549  -0.450  24.440  0.00  0.00    +0.059 A 
ATOM     11  C   UNL     1      -2.056   0.939  24.401  0.00  0.00    +0.164 C 
ATOM     12  C   UNL     1      -1.841  -1.572  24.790  0.00  0.00    +0.066 A 
ATOM     14  C   UNL     1      -3.784  -2.259  24.295  0.00  0.00    +0.200 A 
ATOM     16  C   UNL     1      -0.151   2.169  25.554  0.00  0.00    +0.254 C 
ENDROOT
BRANCH  16  18
ATOM      1  S   UNL     1      -0.604   4.657  24.481  0.00  0.00    -0.092 S 
ATOM     18  C   UNL     1      -0.984   3.381  25.558  0.00  0.00    +0.074 A 
ATOM     21  C   UNL     1      -2.086   3.669  26.333  0.00  0.00    +0.021 A 
ATOM     25  C   UNL     1      -2.625   4.954  26.040  0.00  0.00    +0.008 A 
ATOM     26  C   UNL     1      -1.915   5.600  25.051  0.00  0.00    +0.046 A 
ENDBRANCH  16  18
BRANCH   8  15
ATOM      3  O   UNL     1       0.198  -0.854  22.520  0.00  0.00    -0.249 OA
ATOM     15  C   UNL     1       0.675  -0.156  23.404  0.00  0.00    +0.328 C 
BRANCH  15   2
ATOM      2  O   UNL     1       1.688   0.746  23.265  0.00  0.00    -0.467 OA
ATOM     22  C   UNL     1       2.850   0.265  22.581  0.00  0.00    +0.280 C 
ENDBRANCH  15   2
ENDBRANCH   8  15
BRANCH   6  13
ATOM     13  C   UNL     1      -4.920  -0.111  23.677  0.00  0.00    +0.158 C 
BRANCH  13  17
ATOM     17  C   UNL     1      -5.171   1.106  24.533  0.00  0.00    -0.028 A 
ATOM     19  C   UNL     1      -4.805   2.371  24.072  0.00  0.00    +0.005 A 
ATOM     20  C   UNL     1      -5.771   0.966  25.784  0.00  0.00    +0.005 A 
ATOM     23  C   UNL     1      -5.038   3.496  24.863  0.00  0.00    +0.000 A 
ATOM     24  C   UNL     1      -6.003   2.091  26.576  0.00  0.00    +0.000 A 
ATOM     27  C   UNL     1      -5.638   3.356  26.115  0.00  0.00    +0.000 A 
ENDBRANCH  13  17
ENDBRANCH   6  13
TORSDOF 5
ENDMDL
MODEL 2
REMARK VINA RESULT:      -1.2      2.045      4.755
REMARK  Name = 26745453
REMARK  6 active torsions:
REMARK  status: ('A' for Active; 'I' for Inactive)
REMARK    1  A    between atoms: O_2  and  C_15
REMARK    2  A    between atoms: O_2  and  C_22
REMARK    3  A    between atoms: N_6  and  C_13
REMARK    4  A    between atoms: C_8  and  C_15
REMARK    5  A    between atoms: C_13  and  C_17
REMARK    6  A    between atoms: C_16  and  C_18
REMARK                            x       y       z     vdW  Elec       q    Type
REMARK                         _______ _______ _______ _____ _____    ______ ____
ROOT
ATOM      4  O   UNL     1      -4.860  -0.862  23.613  0.00  0.00    -0.269 OA
ATOM      5  N   UNL     1      -2.728  -0.186  24.321  0.00  0.00    -0.277 N 
ATOM      6  N   UNL     1       0.483   1.655  24.892  0.00  0.00    -0.328 N 
ATOM      7  N   UNL     1       1.307   0.280  23.336  0.00  0.00    -0.240 NA
ATOM      8  C   UNL     1      -2.070  -1.388  23.747  0.00  0.00    +0.191 C 
ATOM      9  C   UNL     1      -0.783  -1.094  22.948  0.00  0.00    +0.091 C 
ATOM     10  C   UNL     1      -0.532   0.812  24.549  0.00  0.00    +0.059 A 
ATOM     11  C   UNL     1      -1.901   0.785  25.095  0.00  0.00    +0.164 C 
ATOM     12  C   UNL     1      -0.001  -0.023  23.598  0.00  0.00    +0.066 A 
ATOM     14  C   UNL     1       1.570   1.296  24.134  0.00  0.00    +0.200 A 
ATOM     16  C   UNL     1      -4.128  -0.094  24.234  0.00  0.00    +0.254 C 
ENDROOT
BRANCH  16  18
ATOM      1  S   UNL     1      -4.757   2.580  24.263  0.00  0.00    -0.092 S 
ATOM     18  C   UNL     1      -4.795   1.008  24.942  0.00  0.00    +0.074 A 
ATOM     21  C   UNL     1      -5.486   0.977  26.133  0.00  0.00    +0.021 A 
ATOM     25  C   UNL     1      -5.991   2.259  26.493  0.00  0.00    +0.008 A 
ATOM     26  C   UNL     1      -5.666   3.223  25.563  0.00  0.00    +0.046 A 
ENDBRANCH  16  18
BRANCH   8  15
ATOM      3  O   UNL     1      -0.716  -2.511  25.396  0.00  0.00    -0.249 OA
ATOM     15  C   UNL     1      -1.818  -2.315  24.903  0.00  0.00    +0.328 C 
BRANCH  15   2
ATOM      2  O   UNL     1      -2.994  -2.882  25.296  0.00  0.00    -0.467 OA
ATOM     22  C   UNL     1      -3.699  -3.601  24.279  0.00  0.00    +0.280 C 
ENDBRANCH  15   2
ENDBRANCH   8  15
BRANCH   6  13
ATOM     13  C   UNL     1       0.444   2.720  25.863  0.00  0.00    +0.158 C 
BRANCH  13  17
ATOM     17  C   UNL     1      -0.661   3.717  25.612  0.00  0.00    -0.028 A 
ATOM     19  C   UNL     1      -1.851   3.637  26.334  0.00  0.00    +0.005 A 
ATOM     20  C   UNL     1      -0.490   4.720  24.658  0.00  0.00    +0.005 A 
ATOM     23  C   UNL     1      -2.872   4.559  26.102  0.00  0.00    +0.000 A 
ATOM     24  C   UNL     1      -1.511   5.642  24.425  0.00  0.00    +0.000 A 
ATOM     27  C   UNL     1      -2.701   5.562  25.148  0.00  0.00    +0.000 A 
ENDBRANCH  13  17
ENDBRANCH   6  13
TORSDOF 5
ENDMDL
MODEL 3
REMARK VINA RESULT:      -0.1      2.297      4.698
REMARK  Name = 26745453
REMARK  6 active torsions:
REMARK  status: ('A' for Active; 'I' for Inactive)
REMARK    1  A    between atoms: O_2  and  C_15
REMARK    2  A    between atoms: O_2  and  C_22
REMARK    3  A    between atoms: N_6  and  C_13
REMARK    4  A    between atoms: C_8  and  C_15
REMARK    5  A    between atoms: C_13  and  C_17
REMARK    6  A    between atoms: C_16  and  C_18
REMARK                            x       y       z     vdW  Elec       q    Type
REMARK                         _______ _______ _______ _____ _____    ______ ____
ROOT
ATOM      4  O   UNL     1      -0.412  -2.159  25.488  0.00  0.00    -0.269 OA
ATOM      5  N   UNL     1      -2.170  -0.732  24.877  0.00  0.00    -0.277 N 
ATOM      6  N   UNL     1      -4.508   2.166  24.471  0.00  0.00    -0.328 N 
ATOM      7  N   UNL     1      -5.733   1.129  26.024  0.00  0.00    -0.240 NA
ATOM      8  C   UNL     1      -3.204  -1.633  25.447  0.00  0.00    +0.191 C 
ATOM      9  C   UNL     1      -4.275  -0.921  26.301  0.00  0.00    +0.091 C 
ATOM     10  C   UNL     1      -3.860   1.002  24.755  0.00  0.00    +0.059 A 
ATOM     11  C   UNL     1      -2.608   0.500  24.158  0.00  0.00    +0.164 C 
ATOM     12  C   UNL     1      -4.632   0.383  25.706  0.00  0.00    +0.066 A 
ATOM     14  C   UNL     1      -5.630   2.198  25.261  0.00  0.00    +0.200 A 
ATOM     16  C   UNL     1      -0.831  -1.156  24.913  0.00  0.00    +0.254 C 
ENDROOT
BRANCH  16  18
ATOM      1  S   UNL     1       0.453   1.265  24.716  0.00  0.00    -0.092 S 
ATOM     18  C   UNL     1       0.172  -0.346  24.206  0.00  0.00    +0.074 A 
ATOM     21  C   UNL     1       0.968  -0.696  23.138  0.00  0.00    +0.021 A 
ATOM     25  C   UNL     1       1.819   0.372  22.732  0.00  0.00    +0.008 A 
ATOM     26  C   UNL     1       1.641   1.498  23.506  0.00  0.00    +0.046 A 
ENDBRANCH  16  18
BRANCH   8  15
ATOM      3  O   UNL     1      -4.593  -1.861  23.490  0.00  0.00    -0.249 OA
ATOM     15  C   UNL     1      -3.806  -2.364  24.280  0.00  0.00    +0.328 C 
BRANCH  15   2
ATOM      2  O   UNL     1      -3.339  -3.645  24.255  0.00  0.00    -0.467 OA
ATOM     22  C   UNL     1      -2.321  -3.908  23.283  0.00  0.00    +0.280 C 
ENDBRANCH  15   2
ENDBRANCH   8  15
BRANCH   6  13
ATOM     13  C   UNL     1      -4.110   3.178  23.523  0.00  0.00    +0.158 C 
BRANCH  13  17
ATOM     17  C   UNL     1      -2.876   3.938  23.943  0.00  0.00    -0.028 A 
ATOM     19  C   UNL     1      -2.949   4.872  24.977  0.00  0.00    +0.005 A 
ATOM     20  C   UNL     1      -1.661   3.705  23.299  0.00  0.00    +0.005 A 
ATOM     23  C   UNL     1      -1.808   5.575  25.365  0.00  0.00    +0.000 A 
ATOM     24  C   UNL     1      -0.520   4.408  23.686  0.00  0.00    +0.000 A 
ATOM     27  C   UNL     1      -0.593   5.342  24.720  0.00  0.00    +0.000 A 
ENDBRANCH  13  17
ENDBRANCH   6  13
TORSDOF 5
ENDMDL
MODEL 4
REMARK VINA RESULT:      -0.0     14.591     18.037
REMARK  Name = 26745453
REMARK  6 active torsions:
REMARK  status: ('A' for Active; 'I' for Inactive)
REMARK    1  A    between atoms: O_2  and  C_15
REMARK    2  A    between atoms: O_2  and  C_22
REMARK    3  A    between atoms: N_6  and  C_13
REMARK    4  A    between atoms: C_8  and  C_15
REMARK    5  A    between atoms: C_13  and  C_17
REMARK    6  A    between atoms: C_16  and  C_18
REMARK                            x       y       z     vdW  Elec       q    Type
REMARK                         _______ _______ _______ _____ _____    ______ ____
ROOT
ATOM      4  O   UNL     1      14.992   8.335  16.174  0.00  0.00    -0.269 OA
ATOM      5  N   UNL     1      14.470   8.163  18.454  0.00  0.00    -0.277 N 
ATOM      6  N   UNL     1      13.418   8.823  21.988  0.00  0.00    -0.328 N 
ATOM      7  N   UNL     1      15.608   9.017  22.384  0.00  0.00    -0.240 NA
ATOM      8  C   UNL     1      15.850   7.753  18.821  0.00  0.00    +0.191 C 
ATOM      9  C   UNL     1      16.430   8.483  20.051  0.00  0.00    +0.091 C 
ATOM     10  C   UNL     1      14.046   8.560  20.807  0.00  0.00    +0.059 A 
ATOM     11  C   UNL     1      13.425   8.202  19.519  0.00  0.00    +0.164 C 
ATOM     12  C   UNL     1      15.386   8.682  21.077  0.00  0.00    +0.066 A 
ATOM     14  C   UNL     1      14.400   9.094  22.907  0.00  0.00    +0.200 A 
ATOM     16  C   UNL     1      14.176   8.355  17.093  0.00  0.00    +0.254 C 
ENDROOT
BRANCH  16  18
ATOM      1  S   UNL     1      11.555   8.473  17.908  0.00  0.00    -0.092 S 
ATOM     18  C   UNL     1      12.777   8.599  16.714  0.00  0.00    +0.074 A 
ATOM     21  C   UNL     1      12.261   8.932  15.481  0.00  0.00    +0.021 A 
ATOM     25  C   UNL     1      10.845   9.086  15.516  0.00  0.00    +0.008 A 
ATOM     26  C   UNL     1      10.332   8.864  16.776  0.00  0.00    +0.046 A 
ENDBRANCH  16  18
BRANCH   8  15
ATOM      3  O   UNL     1      15.667   5.721  20.105  0.00  0.00    -0.249 OA
ATOM     15  C   UNL     1      15.801   6.264  19.017  0.00  0.00    +0.328 C 
BRANCH  15   2
ATOM      2  O   UNL     1      15.928   5.641  17.811  0.00  0.00    -0.467 OA
ATOM     22  C   UNL     1      17.271   5.350  17.409  0.00  0.00    +0.280 C 
ENDBRANCH  15   2
ENDBRANCH   8  15
BRANCH   6  13
ATOM     13  C   UNL     1      11.998   8.818  22.243  0.00  0.00    +0.158 C 
BRANCH  13  17
ATOM     17  C   UNL     1      11.360   7.465  22.045  0.00  0.00    -0.028 A 
ATOM     19  C   UNL     1      10.022   7.267  22.385  0.00  0.00    +0.005 A 
ATOM     20  C   UNL     1      12.109   6.411  21.520  0.00  0.00    +0.005 A 
ATOM     23  C   UNL     1       9.433   6.017  22.201  0.00  0.00    +0.000 A 
ATOM     24  C   UNL     1      11.520   5.160  21.338  0.00  0.00    +0.000 A 
ATOM     27  C   UNL     1      10.181   4.963  21.677  0.00  0.00    +0.000 A 
ENDBRANCH  13  17
ENDBRANCH   6  13
TORSDOF 5
ENDMDL
