MODEL 1
REMARK VINA RESULT:       3.1      0.000      0.000
REMARK  Name = 51137543
REMARK  8 active torsions:
REMARK  status: ('A' for Active; 'I' for Inactive)
REMARK    1  A    between atoms: N_5  and  C_13
REMARK    2  A    between atoms: N_8  and  C_26
REMARK    3  A    between atoms: N_8  and  C_29
REMARK    4  A    between atoms: N_8  and  C_30
REMARK    5  A    between atoms: C_9  and  C_14
REMARK    6  A    between atoms: C_13  and  C_15
REMARK    7  A    between atoms: C_18  and  C_21
REMARK    8  A    between atoms: C_22  and  C_25
REMARK                            x       y       z     vdW  Elec       q    Type
REMARK                         _______ _______ _______ _____ _____    ______ ____
ROOT
ATOM      5  N   UNL     1      -6.210   2.674  25.448  0.00  0.00    -0.297 NA
ATOM      9  C   UNL     1      -5.668   0.452  24.928  0.00  0.00    +0.092 C 
ATOM     10  C   UNL     1      -6.147   0.537  26.387  0.00  0.00    +0.029 C 
ATOM     11  C   UNL     1      -5.363   1.904  24.535  0.00  0.00    +0.097 C 
ATOM     12  C   UNL     1      -6.061   2.015  26.746  0.00  0.00    +0.085 C 
ENDROOT
BRANCH   9  14
ATOM      4  O   UNL     1      -3.290   0.099  24.464  0.00  0.00    -0.420 OA
ATOM      6  N   UNL     1      -4.467  -1.791  24.683  0.00  0.00    -0.112 NA
ATOM      7  N   UNL     1      -3.154  -2.134  24.426  0.00  0.00    -0.107 NA
ATOM     14  C   UNL     1      -4.500  -0.479  24.697  0.00  0.00    +0.222 A 
ATOM     18  C   UNL     1      -2.503  -1.000  24.304  0.00  0.00    +0.248 A 
BRANCH  18  21
ATOM     21  C   UNL     1      -1.117  -0.747  24.036  0.00  0.00    +0.039 A 
ATOM     23  C   UNL     1      -0.735   0.428  23.389  0.00  0.00    +0.015 A 
ATOM     24  C   UNL     1      -0.151  -1.676  24.423  0.00  0.00    +0.015 A 
ATOM     26  C   UNL     1       1.579  -0.254  23.516  0.00  0.00    +0.029 A 
ATOM     27  C   UNL     1       0.613   0.674  23.129  0.00  0.00    +0.024 A 
ATOM     28  C   UNL     1       1.198  -1.430  24.163  0.00  0.00    +0.024 A 
BRANCH  26   8
ATOM      8  N   UNL     1       2.941  -0.006  23.251  0.00  0.00    -0.336 N 
ATOM     29  C   UNL     1       3.363   1.268  22.703  0.00  0.00    +0.129 C 
ATOM     30  C   UNL     1       3.941  -1.018  23.533  0.00  0.00    +0.129 C 
ENDBRANCH  26   8
ENDBRANCH  18  21
ENDBRANCH   9  14
BRANCH   5  13
ATOM     13  C   UNL     1      -5.840   4.081  25.495  0.00  0.00    +0.119 C 
BRANCH  13  15
ATOM     15  C   UNL     1      -4.364   4.281  25.277  0.00  0.00    -0.033 A 
ATOM     16  C   UNL     1      -3.481   4.181  26.353  0.00  0.00    +0.005 A 
ATOM     17  C   UNL     1      -3.879   4.565  24.000  0.00  0.00    +0.005 A 
ATOM     19  C   UNL     1      -2.113   4.365  26.151  0.00  0.00    +0.012 A 
ATOM     20  C   UNL     1      -2.511   4.749  23.799  0.00  0.00    +0.012 A 
ATOM     22  C   UNL     1      -1.629   4.650  24.874  0.00  0.00    +0.055 A 
BRANCH  22  25
ATOM      1  F   UNL     1       0.246   4.541  23.392  0.00  0.00    -0.166 F 
ATOM      2  F   UNL     1       0.594   4.068  25.485  0.00  0.00    -0.166 F 
ATOM      3  F   UNL     1       0.253   6.126  24.873  0.00  0.00    -0.166 F 
ATOM     25  C   UNL     1      -0.166   4.843  24.659  0.00  0.00    +0.417 C 
ENDBRANCH  22  25
ENDBRANCH  13  15
ENDBRANCH   5  13
TORSDOF 6
ENDMDL
MODEL 2
REMARK VINA RESULT:       3.3      3.114      5.019
REMARK  Name = 51137543
REMARK  8 active torsions:
REMARK  status: ('A' for Active; 'I' for Inactive)
REMARK    1  A    between atoms: N_5  and  C_13
REMARK    2  A    between atoms: N_8  and  C_26
REMARK    3  A    between atoms: N_8  and  C_29
REMARK    4  A    between atoms: N_8  and  C_30
REMARK    5  A    between atoms: C_9  and  C_14
REMARK    6  A    between atoms: C_13  and  C_15
REMARK    7  A    between atoms: C_18  and  C_21
REMARK    8  A    between atoms: C_22  and  C_25
REMARK                            x       y       z     vdW  Elec       q    Type
REMARK                         _______ _______ _______ _____ _____    ______ ____
ROOT
ATOM      5  N   UNL     1      -5.606   2.464  25.896  0.00  0.00    -0.297 NA
ATOM      9  C   UNL     1      -3.819   3.981  25.833  0.00  0.00    +0.092 C 
ATOM     10  C   UNL     1      -4.898   4.414  24.826  0.00  0.00    +0.029 C 
ATOM     11  C   UNL     1      -4.170   2.527  26.176  0.00  0.00    +0.097 C 
ATOM     12  C   UNL     1      -5.776   3.185  24.634  0.00  0.00    +0.085 C 
ENDROOT
BRANCH   9  14
ATOM      4  O   UNL     1      -1.744   3.014  24.963  0.00  0.00    -0.420 OA
ATOM      6  N   UNL     1      -1.670   5.233  25.242  0.00  0.00    -0.112 NA
ATOM      7  N   UNL     1      -0.446   4.824  24.750  0.00  0.00    -0.107 NA
ATOM     14  C   UNL     1      -2.396   4.145  25.350  0.00  0.00    +0.222 A 
ATOM     18  C   UNL     1      -0.533   3.522  24.603  0.00  0.00    +0.248 A 
BRANCH  18  21
ATOM     21  C   UNL     1       0.430   2.572  24.129  0.00  0.00    +0.039 A 
ATOM     23  C   UNL     1       0.169   1.205  24.226  0.00  0.00    +0.015 A 
ATOM     24  C   UNL     1       1.630   3.015  23.571  0.00  0.00    +0.015 A 
ATOM     26  C   UNL     1       2.305   0.724  23.207  0.00  0.00    +0.029 A 
ATOM     27  C   UNL     1       1.107   0.282  23.765  0.00  0.00    +0.024 A 
ATOM     28  C   UNL     1       2.568   2.090  23.109  0.00  0.00    +0.024 A 
BRANCH  26   8
ATOM      8  N   UNL     1       3.254  -0.210  22.742  0.00  0.00    -0.336 N 
ATOM     29  C   UNL     1       3.943   0.006  21.485  0.00  0.00    +0.129 C 
ATOM     30  C   UNL     1       3.560  -1.395  23.520  0.00  0.00    +0.129 C 
ENDBRANCH  26   8
ENDBRANCH  18  21
ENDBRANCH   9  14
BRANCH   5  13
ATOM     13  C   UNL     1      -6.099   1.096  25.824  0.00  0.00    +0.119 C 
BRANCH  13  15
ATOM     15  C   UNL     1      -5.016   0.131  25.421  0.00  0.00    -0.033 A 
ATOM     16  C   UNL     1      -4.924  -0.301  24.098  0.00  0.00    +0.005 A 
ATOM     17  C   UNL     1      -4.104  -0.331  26.371  0.00  0.00    +0.005 A 
ATOM     19  C   UNL     1      -3.920  -1.195  23.725  0.00  0.00    +0.012 A 
ATOM     20  C   UNL     1      -3.100  -1.224  25.997  0.00  0.00    +0.012 A 
ATOM     22  C   UNL     1      -3.009  -1.657  24.675  0.00  0.00    +0.055 A 
BRANCH  22  25
ATOM      1  F   UNL     1      -1.033  -2.080  23.394  0.00  0.00    -0.166 F 
ATOM      2  F   UNL     1      -2.424  -3.730  23.667  0.00  0.00    -0.166 F 
ATOM      3  F   UNL     1      -1.184  -3.060  25.323  0.00  0.00    -0.166 F 
ATOM     25  C   UNL     1      -1.934  -2.610  24.274  0.00  0.00    +0.417 C 
ENDBRANCH  22  25
ENDBRANCH  13  15
ENDBRANCH   5  13
TORSDOF 6
ENDMDL
MODEL 3
REMARK VINA RESULT:       3.5      1.036      1.695
REMARK  Name = 51137543
REMARK  8 active torsions:
REMARK  status: ('A' for Active; 'I' for Inactive)
REMARK    1  A    between atoms: N_5  and  C_13
REMARK    2  A    between atoms: N_8  and  C_26
REMARK    3  A    between atoms: N_8  and  C_29
REMARK    4  A    between atoms: N_8  and  C_30
REMARK    5  A    between atoms: C_9  and  C_14
REMARK    6  A    between atoms: C_13  and  C_15
REMARK    7  A    between atoms: C_18  and  C_21
REMARK    8  A    between atoms: C_22  and  C_25
REMARK                            x       y       z     vdW  Elec       q    Type
REMARK                         _______ _______ _______ _____ _____    ______ ____
ROOT
ATOM      5  N   UNL     1      -5.712   1.392  25.070  0.00  0.00    -0.297 NA
ATOM      9  C   UNL     1      -4.615  -0.637  24.647  0.00  0.00    +0.092 C 
ATOM     10  C   UNL     1      -5.091  -0.606  26.109  0.00  0.00    +0.029 C 
ATOM     11  C   UNL     1      -4.698   0.822  24.180  0.00  0.00    +0.097 C 
ATOM     12  C   UNL     1      -5.390   0.860  26.395  0.00  0.00    +0.085 C 
ENDROOT
BRANCH   9  14
ATOM      4  O   UNL     1      -2.223  -0.383  24.184  0.00  0.00    -0.420 OA
ATOM      6  N   UNL     1      -2.877  -2.504  24.465  0.00  0.00    -0.112 NA
ATOM      7  N   UNL     1      -1.519  -2.507  24.213  0.00  0.00    -0.107 NA
ATOM     14  C   UNL     1      -3.246  -1.245  24.439  0.00  0.00    +0.222 A 
ATOM     18  C   UNL     1      -1.180  -1.248  24.055  0.00  0.00    +0.248 A 
BRANCH  18  21
ATOM     21  C   UNL     1       0.095  -0.656  23.774  0.00  0.00    +0.039 A 
ATOM     23  C   UNL     1       1.169  -1.460  23.390  0.00  0.00    +0.015 A 
ATOM     24  C   UNL     1       0.262   0.725  23.885  0.00  0.00    +0.015 A 
ATOM     26  C   UNL     1       2.576   0.497  23.227  0.00  0.00    +0.029 A 
ATOM     27  C   UNL     1       2.409  -0.882  23.117  0.00  0.00    +0.024 A 
ATOM     28  C   UNL     1       1.503   1.302  23.611  0.00  0.00    +0.024 A 
BRANCH  26   8
ATOM      8  N   UNL     1       3.830   1.080  22.953  0.00  0.00    -0.336 N 
ATOM     29  C   UNL     1       3.920   2.291  22.160  0.00  0.00    +0.129 C 
ATOM     30  C   UNL     1       5.047   0.482  23.467  0.00  0.00    +0.129 C 
ENDBRANCH  26   8
ENDBRANCH  18  21
ENDBRANCH   9  14
BRANCH   5  13
ATOM     13  C   UNL     1      -5.720   2.847  25.044  0.00  0.00    +0.119 C 
BRANCH  13  15
ATOM     15  C   UNL     1      -4.330   3.414  24.938  0.00  0.00    -0.033 A 
ATOM     16  C   UNL     1      -3.632   3.330  23.733  0.00  0.00    +0.005 A 
ATOM     17  C   UNL     1      -3.739   4.024  26.045  0.00  0.00    +0.005 A 
ATOM     19  C   UNL     1      -2.344   3.856  23.635  0.00  0.00    +0.012 A 
ATOM     20  C   UNL     1      -2.451   4.550  25.946  0.00  0.00    +0.012 A 
ATOM     22  C   UNL     1      -1.754   4.465  24.742  0.00  0.00    +0.055 A 
BRANCH  22  25
ATOM      1  F   UNL     1       0.122   5.019  23.363  0.00  0.00    -0.166 F 
ATOM      2  F   UNL     1       0.531   4.350  25.391  0.00  0.00    -0.166 F 
ATOM      3  F   UNL     1      -0.289   6.332  25.041  0.00  0.00    -0.166 F 
ATOM     25  C   UNL     1      -0.378   5.031  24.635  0.00  0.00    +0.417 C 
ENDBRANCH  22  25
ENDBRANCH  13  15
ENDBRANCH   5  13
TORSDOF 6
ENDMDL
