MODEL 1
REMARK VINA RESULT:      -0.1      0.000      0.000
REMARK  Name = 75536076
REMARK  5 active torsions:
REMARK  status: ('A' for Active; 'I' for Inactive)
REMARK    1  A    between atoms: O_2  and  C_9
REMARK    2  A    between atoms: O_3  and  C_11
REMARK    3  A    between atoms: N_5  and  C_8
REMARK    4  A    between atoms: C_7  and  C_12
REMARK    5  A    between atoms: C_15  and  C_16
REMARK                            x       y       z     vdW  Elec       q    Type
REMARK                         _______ _______ _______ _____ _____    ______ ____
ROOT
ATOM      7  C   UNL     1      -2.481  -0.238  25.416  0.00  0.00    +0.046 C 
ATOM      8  C   UNL     1      -1.895  -1.078  24.258  0.00  0.00    +0.112 C 
ATOM      9  C   UNL     1      -2.370  -2.495  24.571  0.00  0.00    +0.164 C 
ATOM     10  C   UNL     1      -3.689  -1.047  25.956  0.00  0.00    +0.044 C 
ATOM     11  C   UNL     1      -3.797  -2.282  25.063  0.00  0.00    +0.145 C 
ENDROOT
BRANCH   7  12
ATOM      6  N   UNL     1      -2.211   3.524  25.008  0.00  0.00    -0.263 NA
ATOM     12  C   UNL     1      -2.813   1.182  25.010  0.00  0.00    -0.024 A 
ATOM     13  C   UNL     1      -3.970   1.471  24.294  0.00  0.00    +0.007 A 
ATOM     14  C   UNL     1      -1.974   2.234  25.339  0.00  0.00    +0.114 A 
ATOM     17  C   UNL     1      -4.249   2.785  23.935  0.00  0.00    +0.020 A 
ATOM     18  C   UNL     1      -3.346   3.766  24.313  0.00  0.00    +0.111 A 
ENDBRANCH   7  12
BRANCH   8   5
ATOM      4  O   UNL     1      -0.347   0.687  22.605  0.00  0.00    -0.270 OA
ATOM      5  N   UNL     1      -0.458  -0.992  24.201  0.00  0.00    -0.305 N 
ATOM     15  C   UNL     1       0.206  -0.103  23.367  0.00  0.00    +0.251 C 
ATOM     26  H   UNL     1       0.068  -1.584  24.835  0.00  0.00    +0.149 HD
BRANCH  15  16
ATOM      1  S   UNL     1       2.583   1.248  23.035  0.00  0.00    -0.084 S 
ATOM     16  C   UNL     1       1.690  -0.156  23.406  0.00  0.00    +0.075 A 
ATOM     19  C   UNL     1       2.504  -1.219  23.715  0.00  0.00    +0.029 A 
ATOM     20  C   UNL     1       3.901  -0.890  23.650  0.00  0.00    -0.010 A 
ATOM     21  C   UNL     1       4.089   0.446  23.284  0.00  0.00    +0.020 A 
ATOM     22  C   UNL     1       5.046  -1.687  23.891  0.00  0.00    +0.009 A 
ATOM     23  C   UNL     1       5.378   0.999  23.156  0.00  0.00    +0.015 A 
ATOM     24  C   UNL     1       6.326  -1.141  23.764  0.00  0.00    +0.001 A 
ATOM     25  C   UNL     1       6.489   0.189  23.400  0.00  0.00    +0.001 A 
ENDBRANCH  15  16
ENDBRANCH   8   5
BRANCH   9   2
ATOM      2  O   UNL     1      -2.343  -3.334  23.432  0.00  0.00    -0.387 OA
ATOM     27  H   UNL     1      -2.270  -4.252  23.746  0.00  0.00    +0.210 HD
ENDBRANCH   9   2
BRANCH  11   3
ATOM      3  O   UNL     1      -4.672  -1.986  23.978  0.00  0.00    -0.389 OA
ATOM     28  H   UNL     1      -4.937  -2.833  23.580  0.00  0.00    +0.210 HD
ENDBRANCH  11   3
TORSDOF 5
ENDMDL
MODEL 2
REMARK VINA RESULT:       1.1      1.975      3.741
REMARK  Name = 75536076
REMARK  5 active torsions:
REMARK  status: ('A' for Active; 'I' for Inactive)
REMARK    1  A    between atoms: O_2  and  C_9
REMARK    2  A    between atoms: O_3  and  C_11
REMARK    3  A    between atoms: N_5  and  C_8
REMARK    4  A    between atoms: C_7  and  C_12
REMARK    5  A    between atoms: C_15  and  C_16
REMARK                            x       y       z     vdW  Elec       q    Type
REMARK                         _______ _______ _______ _____ _____    ______ ____
ROOT
ATOM      7  C   UNL     1      -2.618   1.220  23.784  0.00  0.00    +0.046 C 
ATOM      8  C   UNL     1      -1.695   1.847  24.853  0.00  0.00    +0.112 C 
ATOM      9  C   UNL     1      -1.890   3.349  24.655  0.00  0.00    +0.164 C 
ATOM     10  C   UNL     1      -3.688   2.297  23.466  0.00  0.00    +0.044 C 
ATOM     11  C   UNL     1      -3.387   3.472  24.394  0.00  0.00    +0.145 C 
ENDROOT
BRANCH   7  12
ATOM      6  N   UNL     1      -3.452  -1.804  25.916  0.00  0.00    -0.263 NA
ATOM     12  C   UNL     1      -3.187  -0.119  24.203  0.00  0.00    -0.024 A 
ATOM     13  C   UNL     1      -3.941  -0.886  23.321  0.00  0.00    +0.007 A 
ATOM     14  C   UNL     1      -2.973  -0.618  25.478  0.00  0.00    +0.114 A 
ATOM     17  C   UNL     1      -4.450  -2.111  23.735  0.00  0.00    +0.020 A 
ATOM     18  C   UNL     1      -4.179  -2.522  25.030  0.00  0.00    +0.111 A 
ENDBRANCH   7  12
BRANCH   8   5
ATOM      4  O   UNL     1      -0.545   0.627  22.522  0.00  0.00    -0.270 OA
ATOM      5  N   UNL     1      -0.319   1.455  24.676  0.00  0.00    -0.305 N 
ATOM     15  C   UNL     1       0.147   0.869  23.507  0.00  0.00    +0.251 C 
ATOM     26  H   UNL     1       0.324   1.664  25.432  0.00  0.00    +0.149 HD
BRANCH  15  16
ATOM      1  S   UNL     1       2.033  -1.117  23.796  0.00  0.00    -0.084 S 
ATOM     16  C   UNL     1       1.586   0.500  23.493  0.00  0.00    +0.075 A 
ATOM     19  C   UNL     1       2.678   1.301  23.257  0.00  0.00    +0.029 A 
ATOM     20  C   UNL     1       3.920   0.585  23.324  0.00  0.00    -0.010 A 
ATOM     21  C   UNL     1       3.711  -0.766  23.615  0.00  0.00    +0.020 A 
ATOM     22  C   UNL     1       5.252   1.033  23.145  0.00  0.00    +0.009 A 
ATOM     23  C   UNL     1       4.785  -1.669  23.731  0.00  0.00    +0.015 A 
ATOM     24  C   UNL     1       6.320   0.140  23.260  0.00  0.00    +0.001 A 
ATOM     25  C   UNL     1       6.087  -1.198  23.549  0.00  0.00    +0.001 A 
ENDBRANCH  15  16
ENDBRANCH   8   5
BRANCH   9   2
ATOM      2  O   UNL     1      -1.507   4.094  25.795  0.00  0.00    -0.387 OA
ATOM     27  H   UNL     1      -1.607   3.515  26.571  0.00  0.00    +0.210 HD
ENDBRANCH   9   2
BRANCH  11   3
ATOM      3  O   UNL     1      -4.130   3.305  25.598  0.00  0.00    -0.389 OA
ATOM     28  H   UNL     1      -4.089   2.364  25.837  0.00  0.00    +0.210 HD
ENDBRANCH  11   3
TORSDOF 5
ENDMDL
MODEL 3
REMARK VINA RESULT:       3.3      1.595      2.422
REMARK  Name = 75536076
REMARK  5 active torsions:
REMARK  status: ('A' for Active; 'I' for Inactive)
REMARK    1  A    between atoms: O_2  and  C_9
REMARK    2  A    between atoms: O_3  and  C_11
REMARK    3  A    between atoms: N_5  and  C_8
REMARK    4  A    between atoms: C_7  and  C_12
REMARK    5  A    between atoms: C_15  and  C_16
REMARK                            x       y       z     vdW  Elec       q    Type
REMARK                         _______ _______ _______ _____ _____    ______ ____
ROOT
ATOM      7  C   UNL     1      -3.037   1.816  25.442  0.00  0.00    +0.046 C 
ATOM      8  C   UNL     1      -2.747   0.839  24.280  0.00  0.00    +0.112 C 
ATOM      9  C   UNL     1      -3.612  -0.375  24.612  0.00  0.00    +0.164 C 
ATOM     10  C   UNL     1      -4.420   1.400  26.008  0.00  0.00    +0.044 C 
ATOM     11  C   UNL     1      -4.903   0.250  25.127  0.00  0.00    +0.145 C 
ENDROOT
BRANCH   7  12
ATOM      6  N   UNL     1      -3.811   5.104  23.715  0.00  0.00    -0.263 NA
ATOM     12  C   UNL     1      -2.943   3.270  25.030  0.00  0.00    -0.024 A 
ATOM     13  C   UNL     1      -1.955   4.100  25.549  0.00  0.00    +0.007 A 
ATOM     14  C   UNL     1      -3.839   3.815  24.124  0.00  0.00    +0.114 A 
ATOM     17  C   UNL     1      -1.894   5.431  25.152  0.00  0.00    +0.020 A 
ATOM     18  C   UNL     1      -2.836   5.880  24.241  0.00  0.00    +0.111 A 
ENDBRANCH   7  12
BRANCH   8   5
ATOM      4  O   UNL     1      -0.730   2.216  22.770  0.00  0.00    -0.270 OA
ATOM      5  N   UNL     1      -1.349   0.497  24.198  0.00  0.00    -0.305 N 
ATOM     15  C   UNL     1      -0.444   1.226  23.438  0.00  0.00    +0.251 C 
ATOM     26  H   UNL     1      -1.028  -0.285  24.759  0.00  0.00    +0.149 HD
BRANCH  15  16
ATOM      1  S   UNL     1       1.258  -0.905  23.825  0.00  0.00    -0.084 S 
ATOM     16  C   UNL     1       0.956   0.727  23.437  0.00  0.00    +0.075 A 
ATOM     19  C   UNL     1       2.112   1.413  23.154  0.00  0.00    +0.029 A 
ATOM     20  C   UNL     1       3.287   0.593  23.253  0.00  0.00    -0.010 A 
ATOM     21  C   UNL     1       2.960  -0.716  23.619  0.00  0.00    +0.020 A 
ATOM     22  C   UNL     1       4.651   0.909  23.045  0.00  0.00    +0.009 A 
ATOM     23  C   UNL     1       3.949  -1.705  23.778  0.00  0.00    +0.015 A 
ATOM     24  C   UNL     1       5.635  -0.069  23.203  0.00  0.00    +0.001 A 
ATOM     25  C   UNL     1       5.287  -1.363  23.565  0.00  0.00    +0.001 A 
ENDBRANCH  15  16
ENDBRANCH   8   5
BRANCH   9   2
ATOM      2  O   UNL     1      -3.854  -1.187  23.479  0.00  0.00    -0.387 OA
ATOM     27  H   UNL     1      -3.866  -0.606  22.700  0.00  0.00    +0.210 HD
ENDBRANCH   9   2
BRANCH  11   3
ATOM      3  O   UNL     1      -5.672   0.788  24.055  0.00  0.00    -0.389 OA
ATOM     28  H   UNL     1      -6.314   0.108  23.788  0.00  0.00    +0.210 HD
ENDBRANCH  11   3
TORSDOF 5
ENDMDL
