MODEL 1
REMARK VINA RESULT:      -1.1      0.000      0.000
REMARK  Name = 45361608
REMARK  10 active torsions:
REMARK  status: ('A' for Active; 'I' for Inactive)
REMARK    1  A    between atoms: O_2  and  C_11
REMARK    2  A    between atoms: N_5  and  C_15
REMARK    3  A    between atoms: N_6  and  C_25
REMARK    4  A    between atoms: C_8  and  C_18
REMARK    5  A    between atoms: C_10  and  C_20
REMARK    6  A    between atoms: C_14  and  C_19
REMARK    7  A    between atoms: C_19  and  C_21
REMARK    8  A    between atoms: C_19  and  C_22
REMARK    9  A    between atoms: C_23  and  C_24
REMARK   10  A    between atoms: C_25  and  C_27
REMARK                            x       y       z     vdW  Elec       q    Type
REMARK                         _______ _______ _______ _____ _____    ______ ____
ROOT
ATOM      8  C   UNL     1      -3.035  -1.352  24.852  0.00  0.00    -0.027 C 
ATOM      9  C   UNL     1      -2.681   0.001  24.150  0.00  0.00    +0.028 C 
ATOM     10  C   UNL     1      -1.140   0.293  24.246  0.00  0.00    +0.012 C 
ATOM     11  C   UNL     1      -3.610   1.150  24.636  0.00  0.00    +0.122 C 
ATOM     12  C   UNL     1      -4.535  -1.664  24.643  0.00  0.00    +0.007 C 
ATOM     13  C   UNL     1      -2.221  -2.490  24.195  0.00  0.00    +0.009 C 
ATOM     14  C   UNL     1      -5.109   0.790  24.520  0.00  0.00    +0.029 C 
ATOM     15  C   UNL     1      -0.328  -0.892  23.650  0.00  0.00    +0.076 C 
ATOM     16  C   UNL     1      -5.450  -0.558  25.153  0.00  0.00    +0.007 C 
ATOM     17  C   UNL     1      -0.718  -2.250  24.234  0.00  0.00    +0.023 C 
ATOM     18  C   UNL     1      -2.740  -1.326  26.374  0.00  0.00    +0.011 C 
ATOM     20  C   UNL     1      -0.715   1.597  23.548  0.00  0.00    +0.010 C 
ENDROOT
BRANCH  15   5
ATOM      4  O   UNL     1       1.586  -0.263  21.605  0.00  0.00    -0.269 OA
ATOM      5  N   UNL     1       1.097  -0.709  23.827  0.00  0.00    -0.307 N 
ATOM     23  C   UNL     1       1.940  -0.406  22.772  0.00  0.00    +0.263 C 
ATOM     36  H   UNL     1       1.493  -0.865  24.750  0.00  0.00    +0.149 HD
BRANCH  23  24
ATOM      7  N   UNL     1       3.949  -1.364  23.677  0.00  0.00    -0.250 NA
ATOM     24  C   UNL     1       3.380  -0.276  23.115  0.00  0.00    +0.125 A 
ATOM     26  C   UNL     1       4.055   0.906  22.853  0.00  0.00    +0.033 A 
ATOM     28  C   UNL     1       5.402   0.975  23.193  0.00  0.00    +0.004 A 
ATOM     29  C   UNL     1       5.260  -1.260  23.994  0.00  0.00    +0.111 A 
ATOM     32  C   UNL     1       6.024  -0.125  23.774  0.00  0.00    +0.020 A 
ENDBRANCH  23  24
ENDBRANCH  15   5
BRANCH  11   2
ATOM      2  O   UNL     1      -3.403   2.307  23.825  0.00  0.00    -0.391 OA
ATOM     37  H   UNL     1      -3.242   3.064  24.415  0.00  0.00    +0.210 HD
ENDBRANCH  11   2
BRANCH  14  19
ATOM     19  C   UNL     1      -6.005   1.880  25.124  0.00  0.00    +0.077 C 
ATOM     21  C   UNL     1      -7.172   2.177  24.191  0.00  0.00    +0.017 C 
BRANCH  19  22
ATOM      3  O   UNL     1      -5.130   4.082  24.621  0.00  0.00    -0.276 OA
ATOM      6  N   UNL     1      -4.510   3.072  26.614  0.00  0.00    -0.311 N 
ATOM     22  C   UNL     1      -5.181   3.134  25.401  0.00  0.00    +0.216 C 
ATOM     38  H   UNL     1      -4.634   2.265  27.218  0.00  0.00    +0.149 HD
BRANCH   6  25
ATOM     25  C   UNL     1      -3.665   4.141  27.095  0.00  0.00    +0.139 C 
BRANCH  25  27
ATOM      1  F   UNL     1       0.673   5.112  23.640  0.00  0.00    -0.205 F 
ATOM     27  C   UNL     1      -2.509   4.400  26.174  0.00  0.00    -0.030 A 
ATOM     30  C   UNL     1      -1.439   3.505  26.128  0.00  0.00    +0.008 A 
ATOM     31  C   UNL     1      -2.503   5.535  25.363  0.00  0.00    +0.008 A 
ATOM     33  C   UNL     1      -0.364   3.746  25.272  0.00  0.00    +0.038 A 
ATOM     34  C   UNL     1      -1.428   5.776  24.508  0.00  0.00    +0.038 A 
ATOM     35  C   UNL     1      -0.359   4.881  24.462  0.00  0.00    +0.123 A 
ENDBRANCH  25  27
ENDBRANCH   6  25
ENDBRANCH  19  22
ENDBRANCH  14  19
TORSDOF 7
ENDMDL
