MODEL 1
REMARK VINA RESULT:      -1.8      0.000      0.000
REMARK  Name = 45783590
REMARK  7 active torsions:
REMARK  status: ('A' for Active; 'I' for Inactive)
REMARK    1  A    between atoms: O_1  and  C_12
REMARK    2  A    between atoms: O_1  and  C_22
REMARK    3  A    between atoms: N_3  and  C_11
REMARK    4  A    between atoms: C_7  and  C_13
REMARK    5  A    between atoms: C_11  and  C_19
REMARK    6  A    between atoms: C_11  and  C_20
REMARK    7  A    between atoms: C_21  and  C_23
REMARK                            x       y       z     vdW  Elec       q    Type
REMARK                         _______ _______ _______ _____ _____    ______ ____
ROOT
ATOM      2  O   UNL     1      17.335  -5.005  24.262  0.00  0.00    -0.336 OA
ATOM      4  N   UNL     1      16.957  -4.982  26.470  0.00  0.00    -0.190 NA
ATOM      5  N   UNL     1      17.126  -6.339  24.635  0.00  0.00    -0.056 NA
ATOM     13  C   UNL     1      17.218  -4.273  25.401  0.00  0.00    +0.245 A 
ATOM     21  C   UNL     1      16.910  -6.244  25.950  0.00  0.00    +0.204 A 
ENDROOT
BRANCH  21  23
ATOM      6  N   UNL     1      17.112  -8.629  28.793  0.00  0.00    -0.221 NA
ATOM     22  C   UNL     1      16.195  -9.537  28.390  0.00  0.00    +0.215 A 
ATOM     23  C   UNL     1      16.645  -7.386  26.773  0.00  0.00    +0.041 A 
ATOM     24  C   UNL     1      15.475  -9.442  27.211  0.00  0.00    +0.068 A 
ATOM     25  C   UNL     1      15.711  -8.343  26.392  0.00  0.00    +0.018 A 
ATOM     26  C   UNL     1      17.313  -7.575  27.973  0.00  0.00    +0.126 A 
BRANCH  22   1
ATOM      1  O   UNL     1      15.982 -10.611  29.213  0.00  0.00    -0.473 OA
BRANCH   1  12
ATOM     12  C   UNL     1      15.021 -10.443  30.251  0.00  0.00    +0.175 C 
ATOM     14  C   UNL     1      13.623 -10.723  29.705  0.00  0.00    +0.044 C 
ATOM     15  C   UNL     1      15.130  -9.032  30.826  0.00  0.00    +0.044 C 
ATOM     16  C   UNL     1      12.548 -10.461  30.755  0.00  0.00    +0.004 C 
ATOM     17  C   UNL     1      14.054  -8.770  31.876  0.00  0.00    +0.004 C 
ATOM     18  C   UNL     1      12.657  -9.051  31.331  0.00  0.00    +0.000 C 
ENDBRANCH   1  12
ENDBRANCH  22   1
ENDBRANCH  21  23
BRANCH  13   7
ATOM      3  N   UNL     1      16.544  -2.084  24.283  0.00  0.00    -0.289 NA
ATOM      7  C   UNL     1      17.405  -2.768  25.262  0.00  0.00    +0.146 C 
ATOM      8  C   UNL     1      17.107  -1.970  26.539  0.00  0.00    +0.030 C 
ATOM      9  C   UNL     1      15.282  -1.773  24.943  0.00  0.00    +0.085 C 
ATOM     10  C   UNL     1      15.702  -1.396  26.357  0.00  0.00    +0.017 C 
BRANCH   3  11
ATOM     11  C   UNL     1      16.384  -2.729  22.993  0.00  0.00    +0.051 C 
ATOM     19  C   UNL     1      17.405  -2.183  21.999  0.00  0.00    +0.024 C 
ATOM     20  C   UNL     1      14.961  -2.511  22.490  0.00  0.00    +0.024 C 
ENDBRANCH   3  11
ENDBRANCH  13   7
TORSDOF 5
ENDMDL
MODEL 2
REMARK VINA RESULT:       0.4      1.242      2.380
REMARK  Name = 45783590
REMARK  7 active torsions:
REMARK  status: ('A' for Active; 'I' for Inactive)
REMARK    1  A    between atoms: O_1  and  C_12
REMARK    2  A    between atoms: O_1  and  C_22
REMARK    3  A    between atoms: N_3  and  C_11
REMARK    4  A    between atoms: C_7  and  C_13
REMARK    5  A    between atoms: C_11  and  C_19
REMARK    6  A    between atoms: C_11  and  C_20
REMARK    7  A    between atoms: C_21  and  C_23
REMARK                            x       y       z     vdW  Elec       q    Type
REMARK                         _______ _______ _______ _____ _____    ______ ____
ROOT
ATOM      2  O   UNL     1      17.035  -4.651  23.531  0.00  0.00    -0.336 OA
ATOM      4  N   UNL     1      15.972  -4.563  25.500  0.00  0.00    -0.190 NA
ATOM      5  N   UNL     1      17.404  -5.810  24.225  0.00  0.00    -0.056 NA
ATOM     13  C   UNL     1      16.191  -3.973  24.352  0.00  0.00    +0.245 A 
ATOM     21  C   UNL     1      16.738  -5.685  25.377  0.00  0.00    +0.204 A 
ENDROOT
BRANCH  21  23
ATOM      6  N   UNL     1      16.944  -7.150  28.786  0.00  0.00    -0.221 NA
ATOM     22  C   UNL     1      16.966  -8.464  28.466  0.00  0.00    +0.215 A 
ATOM     23  C   UNL     1      16.816  -6.662  26.423  0.00  0.00    +0.041 A 
ATOM     24  C   UNL     1      16.918  -8.946  27.168  0.00  0.00    +0.068 A 
ATOM     25  C   UNL     1      16.842  -8.022  26.133  0.00  0.00    +0.018 A 
ATOM     26  C   UNL     1      16.869  -6.282  27.754  0.00  0.00    +0.126 A 
BRANCH  22   1
ATOM      1  O   UNL     1      17.043  -9.354  29.504  0.00  0.00    -0.473 OA
BRANCH   1  12
ATOM     12  C   UNL     1      16.022  -9.276  30.493  0.00  0.00    +0.175 C 
ATOM     14  C   UNL     1      14.674  -9.027  29.818  0.00  0.00    +0.044 C 
ATOM     15  C   UNL     1      16.362  -8.173  31.495  0.00  0.00    +0.044 C 
ATOM     16  C   UNL     1      13.560  -8.838  30.843  0.00  0.00    +0.004 C 
ATOM     17  C   UNL     1      15.248  -7.984  32.520  0.00  0.00    +0.004 C 
ATOM     18  C   UNL     1      13.901  -7.738  31.846  0.00  0.00    +0.000 C 
ENDBRANCH   1  12
ENDBRANCH  22   1
ENDBRANCH  21  23
BRANCH  13   7
ATOM      3  N   UNL     1      16.513  -1.479  23.937  0.00  0.00    -0.289 NA
ATOM      7  C   UNL     1      15.638  -2.658  23.821  0.00  0.00    +0.146 C 
ATOM      8  C   UNL     1      15.330  -2.659  22.317  0.00  0.00    +0.030 C 
ATOM      9  C   UNL     1      17.399  -1.468  22.780  0.00  0.00    +0.085 C 
ATOM     10  C   UNL     1      16.511  -1.958  21.645  0.00  0.00    +0.017 C 
BRANCH   3  11
ATOM     11  C   UNL     1      17.204  -1.302  25.201  0.00  0.00    +0.051 C 
ATOM     19  C   UNL     1      16.413  -1.956  26.331  0.00  0.00    +0.024 C 
ATOM     20  C   UNL     1      17.405   0.186  25.465  0.00  0.00    +0.024 C 
ENDBRANCH   3  11
ENDBRANCH  13   7
TORSDOF 5
ENDMDL
MODEL 3
REMARK VINA RESULT:       1.5     16.925     19.275
REMARK  Name = 45783590
REMARK  7 active torsions:
REMARK  status: ('A' for Active; 'I' for Inactive)
REMARK    1  A    between atoms: O_1  and  C_12
REMARK    2  A    between atoms: O_1  and  C_22
REMARK    3  A    between atoms: N_3  and  C_11
REMARK    4  A    between atoms: C_7  and  C_13
REMARK    5  A    between atoms: C_11  and  C_19
REMARK    6  A    between atoms: C_11  and  C_20
REMARK    7  A    between atoms: C_21  and  C_23
REMARK                            x       y       z     vdW  Elec       q    Type
REMARK                         _______ _______ _______ _____ _____    ______ ____
ROOT
ATOM      2  O   UNL     1      -3.336  -0.581  25.525  0.00  0.00    -0.336 OA
ATOM      4  N   UNL     1      -2.346   1.293  24.800  0.00  0.00    -0.190 NA
ATOM      5  N   UNL     1      -2.155  -0.985  24.891  0.00  0.00    -0.056 NA
ATOM     13  C   UNL     1      -3.372   0.774  25.427  0.00  0.00    +0.245 A 
ATOM     21  C   UNL     1      -1.627   0.175  24.490  0.00  0.00    +0.204 A 
ENDROOT
BRANCH  21  23
ATOM      6  N   UNL     1       1.743   1.351  23.453  0.00  0.00    -0.221 NA
ATOM     22  C   UNL     1       1.997   0.463  22.466  0.00  0.00    +0.215 A 
ATOM     23  C   UNL     1      -0.385   0.253  23.778  0.00  0.00    +0.041 A 
ATOM     24  C   UNL     1       1.124  -0.541  22.082  0.00  0.00    +0.068 A 
ATOM     25  C   UNL     1      -0.089  -0.641  22.755  0.00  0.00    +0.018 A 
ATOM     26  C   UNL     1       0.556   1.222  24.086  0.00  0.00    +0.126 A 
BRANCH  22   1
ATOM      1  O   UNL     1       3.197   0.584  21.817  0.00  0.00    -0.473 OA
BRANCH   1  12
ATOM     12  C   UNL     1       4.329  -0.009  22.446  0.00  0.00    +0.175 C 
ATOM     14  C   UNL     1       3.877  -1.191  23.302  0.00  0.00    +0.044 C 
ATOM     15  C   UNL     1       5.062   1.042  23.278  0.00  0.00    +0.044 C 
ATOM     16  C   UNL     1       5.043  -1.800  24.076  0.00  0.00    +0.004 C 
ATOM     17  C   UNL     1       6.227   0.432  24.051  0.00  0.00    +0.004 C 
ATOM     18  C   UNL     1       5.777  -0.750  24.905  0.00  0.00    +0.000 C 
ENDBRANCH   1  12
ENDBRANCH  22   1
ENDBRANCH  21  23
BRANCH  13   7
ATOM      3  N   UNL     1      -4.769   2.886  25.708  0.00  0.00    -0.289 NA
ATOM      7  C   UNL     1      -4.576   1.468  26.049  0.00  0.00    +0.146 C 
ATOM      8  C   UNL     1      -5.931   0.870  25.647  0.00  0.00    +0.030 C 
ATOM      9  C   UNL     1      -5.504   2.944  24.450  0.00  0.00    +0.085 C 
ATOM     10  C   UNL     1      -6.487   1.787  24.557  0.00  0.00    +0.017 C 
BRANCH   3  11
ATOM     11  C   UNL     1      -3.589   3.730  25.733  0.00  0.00    +0.051 C 
ATOM     19  C   UNL     1      -3.592   4.606  26.983  0.00  0.00    +0.024 C 
ATOM     20  C   UNL     1      -3.547   4.582  24.469  0.00  0.00    +0.024 C 
ENDBRANCH   3  11
ENDBRANCH  13   7
TORSDOF 5
ENDMDL
