MODEL 1
REMARK VINA RESULT:      -1.9      0.000      0.000
REMARK  Name = 11866358
REMARK  15 active torsions:
REMARK  status: ('A' for Active; 'I' for Inactive)
REMARK    1  A    between atoms: O_1  and  C_11
REMARK    2  A    between atoms: O_2  and  C_14
REMARK    3  A    between atoms: O_3  and  C_16
REMARK    4  A    between atoms: N_7  and  C_12
REMARK    5  A    between atoms: N_8  and  C_20
REMARK    6  A    between atoms: N_9  and  C_19
REMARK    7  A    between atoms: N_9  and  C_27
REMARK    8  A    between atoms: C_11  and  C_17
REMARK    9  A    between atoms: C_18  and  C_19
REMARK   10  A    between atoms: C_19  and  C_21
REMARK   11  A    between atoms: C_20  and  C_22
REMARK   12  A    between atoms: C_20  and  C_25
REMARK   13  A    between atoms: C_21  and  C_23
REMARK   14  A    between atoms: C_21  and  C_24
REMARK   15  A    between atoms: C_22  and  C_26
REMARK                            x       y       z     vdW  Elec       q    Type
REMARK                         _______ _______ _______ _____ _____    ______ ____
ROOT
ATOM     11  C   UNL     1      -2.923   0.357  24.534  0.00  0.00    +0.146 C 
ATOM     12  C   UNL     1      -0.817  -1.063  24.460  0.00  0.00    +0.107 C 
ATOM     13  C   UNL     1      -1.502   0.224  23.986  0.00  0.00    +0.069 C 
ATOM     14  C   UNL     1      -1.664  -2.305  24.155  0.00  0.00    +0.163 C 
ATOM     15  C   UNL     1      -3.761  -0.877  24.207  0.00  0.00    +0.078 C 
ATOM     16  C   UNL     1      -3.094  -2.168  24.683  0.00  0.00    +0.148 C 
ENDROOT
BRANCH  11  17
ATOM      4  O   UNL     1      -3.593   1.848  22.793  0.00  0.00    -0.273 OA
ATOM      8  N   UNL     1      -4.140   2.369  24.996  0.00  0.00    -0.301 N 
ATOM     17  C   UNL     1      -3.586   1.590  23.994  0.00  0.00    +0.246 C 
ATOM     37  H   UNL     1      -4.174   2.002  25.942  0.00  0.00    +0.150 HD
BRANCH   8  20
ATOM     20  C   UNL     1      -4.815   3.621  24.741  0.00  0.00    +0.163 C 
BRANCH  20  25
ATOM      6  O   UNL     1      -6.579   4.771  25.956  0.00  0.00    -0.274 OA
ATOM     10  N   UNL     1      -6.174   2.561  26.437  0.00  0.00    -0.328 N 
ATOM     25  C   UNL     1      -5.931   3.744  25.770  0.00  0.00    +0.231 C 
ATOM     39  H   UNL     1      -5.646   1.714  26.255  0.00  0.00    +0.145 HD
ATOM     40  H   UNL     1      -6.903   2.502  27.140  0.00  0.00    +0.145 HD
ENDBRANCH  20  25
BRANCH  20  22
ATOM     22  C   UNL     1      -3.866   4.822  24.837  0.00  0.00    +0.067 C 
BRANCH  22  26
ATOM     26  C   UNL     1      -2.438   4.415  25.104  0.00  0.00    -0.045 A 
ATOM     28  C   UNL     1      -1.439   4.828  24.235  0.00  0.00    +0.004 A 
ATOM     29  C   UNL     1      -2.150   3.634  26.212  0.00  0.00    +0.004 A 
ATOM     30  C   UNL     1      -0.119   4.452  24.481  0.00  0.00    +0.000 A 
ATOM     31  C   UNL     1      -0.829   3.258  26.458  0.00  0.00    +0.000 A 
ATOM     32  C   UNL     1       0.186   3.666  25.593  0.00  0.00    +0.000 A 
ENDBRANCH  22  26
ENDBRANCH  20  22
ENDBRANCH   8  20
ENDBRANCH  11  17
BRANCH  12   7
ATOM      5  O   UNL     1       0.906   1.099  23.666  0.00  0.00    -0.274 OA
ATOM      7  N   UNL     1       0.489  -1.174  23.849  0.00  0.00    -0.309 N 
ATOM     18  C   UNL     1       1.250  -0.069  23.499  0.00  0.00    +0.231 C 
ATOM     33  H   UNL     1       0.832  -2.104  23.624  0.00  0.00    +0.149 HD
BRANCH  18  19
ATOM     19  C   UNL     1       2.583  -0.458  22.862  0.00  0.00    +0.143 C 
BRANCH  19   9
ATOM      9  N   UNL     1       2.473  -0.168  21.430  0.00  0.00    -0.309 NA
ATOM     27  C   UNL     1       1.180  -0.592  20.920  0.00  0.00    +0.101 C 
ATOM     38  H   UNL     1       2.598   0.828  21.255  0.00  0.00    +0.122 HD
ENDBRANCH  19   9
BRANCH  19  21
ATOM     21  C   UNL     1       3.795   0.271  23.490  0.00  0.00    +0.009 C 
ATOM     23  C   UNL     1       4.911  -0.706  23.873  0.00  0.00    +0.009 C 
ATOM     24  C   UNL     1       4.369   1.394  22.617  0.00  0.00    +0.009 C 
ENDBRANCH  19  21
ENDBRANCH  18  19
ENDBRANCH  12   7
BRANCH  11   1
ATOM      1  O   UNL     1      -2.899   0.541  25.945  0.00  0.00    -0.379 OA
ATOM     34  H   UNL     1      -2.537  -0.264  26.354  0.00  0.00    +0.211 HD
ENDBRANCH  11   1
BRANCH  14   2
ATOM      2  O   UNL     1      -1.074  -3.441  24.794  0.00  0.00    -0.387 OA
ATOM     35  H   UNL     1      -0.270  -3.135  25.247  0.00  0.00    +0.210 HD
ENDBRANCH  14   2
BRANCH  16   3
ATOM      3  O   UNL     1      -3.856  -3.282  24.215  0.00  0.00    -0.389 OA
ATOM     36  H   UNL     1      -4.787  -3.135  24.459  0.00  0.00    +0.210 HD
ENDBRANCH  16   3
TORSDOF 12
ENDMDL
MODEL 2
REMARK VINA RESULT:       0.1      1.913      4.257
REMARK  Name = 11866358
REMARK  15 active torsions:
REMARK  status: ('A' for Active; 'I' for Inactive)
REMARK    1  A    between atoms: O_1  and  C_11
REMARK    2  A    between atoms: O_2  and  C_14
REMARK    3  A    between atoms: O_3  and  C_16
REMARK    4  A    between atoms: N_7  and  C_12
REMARK    5  A    between atoms: N_8  and  C_20
REMARK    6  A    between atoms: N_9  and  C_19
REMARK    7  A    between atoms: N_9  and  C_27
REMARK    8  A    between atoms: C_11  and  C_17
REMARK    9  A    between atoms: C_18  and  C_19
REMARK   10  A    between atoms: C_19  and  C_21
REMARK   11  A    between atoms: C_20  and  C_22
REMARK   12  A    between atoms: C_20  and  C_25
REMARK   13  A    between atoms: C_21  and  C_23
REMARK   14  A    between atoms: C_21  and  C_24
REMARK   15  A    between atoms: C_22  and  C_26
REMARK                            x       y       z     vdW  Elec       q    Type
REMARK                         _______ _______ _______ _____ _____    ______ ____
ROOT
ATOM     11  C   UNL     1      -2.126   2.840  24.967  0.00  0.00    +0.146 C 
ATOM     12  C   UNL     1       0.354   2.438  24.586  0.00  0.00    +0.107 C 
ATOM     13  C   UNL     1      -1.074   2.067  24.170  0.00  0.00    +0.069 C 
ATOM     14  C   UNL     1       0.563   2.291  26.098  0.00  0.00    +0.163 C 
ATOM     15  C   UNL     1      -1.918   2.670  26.471  0.00  0.00    +0.078 C 
ATOM     16  C   UNL     1      -0.500   3.045  26.901  0.00  0.00    +0.148 C 
ENDROOT
BRANCH  11  17
ATOM      4  O   UNL     1      -4.041   2.773  23.541  0.00  0.00    -0.273 OA
ATOM      8  N   UNL     1      -4.082   1.579  25.539  0.00  0.00    -0.301 N 
ATOM     17  C   UNL     1      -3.509   2.401  24.584  0.00  0.00    +0.246 C 
ATOM     37  H   UNL     1      -3.508   1.246  26.308  0.00  0.00    +0.150 HD
BRANCH   8  20
ATOM     20  C   UNL     1      -5.418   1.040  25.421  0.00  0.00    +0.163 C 
BRANCH  20  25
ATOM      6  O   UNL     1      -7.246   2.115  24.233  0.00  0.00    -0.274 OA
ATOM     10  N   UNL     1      -6.069   3.341  25.780  0.00  0.00    -0.328 N 
ATOM     25  C   UNL     1      -6.335   2.198  25.054  0.00  0.00    +0.231 C 
ATOM     39  H   UNL     1      -5.328   3.386  26.472  0.00  0.00    +0.145 HD
ATOM     40  H   UNL     1      -6.617   4.183  25.643  0.00  0.00    +0.145 HD
ENDBRANCH  20  25
BRANCH  20  22
ATOM     22  C   UNL     1      -5.506  -0.067  24.364  0.00  0.00    +0.067 C 
BRANCH  22  26
ATOM     26  C   UNL     1      -4.398  -1.083  24.491  0.00  0.00    -0.045 A 
ATOM     28  C   UNL     1      -3.409  -0.896  25.444  0.00  0.00    +0.004 A 
ATOM     29  C   UNL     1      -4.389  -2.186  23.652  0.00  0.00    +0.004 A 
ATOM     30  C   UNL     1      -2.385  -1.835  25.561  0.00  0.00    +0.000 A 
ATOM     31  C   UNL     1      -3.364  -3.126  23.769  0.00  0.00    +0.000 A 
ATOM     32  C   UNL     1      -2.362  -2.950  24.723  0.00  0.00    +0.000 A 
ENDBRANCH  22  26
ENDBRANCH  20  22
ENDBRANCH   8  20
ENDBRANCH  11  17
BRANCH  12   7
ATOM      5  O   UNL     1       0.189  -0.396  24.119  0.00  0.00    -0.274 OA
ATOM      7  N   UNL     1       1.301   1.622  23.859  0.00  0.00    -0.309 N 
ATOM     18  C   UNL     1       1.136   0.256  23.684  0.00  0.00    +0.231 C 
ATOM     33  H   UNL     1       2.144   2.068  23.509  0.00  0.00    +0.149 HD
BRANCH  18  19
ATOM     19  C   UNL     1       2.280  -0.372  22.890  0.00  0.00    +0.143 C 
BRANCH  19   9
ATOM      9  N   UNL     1       2.063  -0.028  21.483  0.00  0.00    -0.309 NA
ATOM     27  C   UNL     1       0.872  -0.686  20.973  0.00  0.00    +0.101 C 
ATOM     38  H   UNL     1       1.969   0.981  21.371  0.00  0.00    +0.122 HD
ENDBRANCH  19   9
BRANCH  19  21
ATOM     21  C   UNL     1       3.679   0.084  23.370  0.00  0.00    +0.009 C 
ATOM     23  C   UNL     1       4.557  -1.103  23.775  0.00  0.00    +0.009 C 
ATOM     24  C   UNL     1       4.429   0.961  22.360  0.00  0.00    +0.009 C 
ENDBRANCH  19  21
ENDBRANCH  18  19
ENDBRANCH  12   7
BRANCH  11   1
ATOM      1  O   UNL     1      -2.078   4.225  24.646  0.00  0.00    -0.379 OA
ATOM     34  H   UNL     1      -1.872   4.722  25.456  0.00  0.00    +0.211 HD
ENDBRANCH  11   1
BRANCH  14   2
ATOM      2  O   UNL     1       1.838   2.838  26.448  0.00  0.00    -0.387 OA
ATOM     35  H   UNL     1       2.465   2.586  25.749  0.00  0.00    +0.210 HD
ENDBRANCH  14   2
BRANCH  16   3
ATOM      3  O   UNL     1      -0.336   2.721  28.283  0.00  0.00    -0.389 OA
ATOM     36  H   UNL     1      -1.220   2.612  28.674  0.00  0.00    +0.210 HD
ENDBRANCH  16   3
TORSDOF 12
ENDMDL
MODEL 3
REMARK VINA RESULT:       1.0      2.066      4.645
REMARK  Name = 11866358
REMARK  15 active torsions:
REMARK  status: ('A' for Active; 'I' for Inactive)
REMARK    1  A    between atoms: O_1  and  C_11
REMARK    2  A    between atoms: O_2  and  C_14
REMARK    3  A    between atoms: O_3  and  C_16
REMARK    4  A    between atoms: N_7  and  C_12
REMARK    5  A    between atoms: N_8  and  C_20
REMARK    6  A    between atoms: N_9  and  C_19
REMARK    7  A    between atoms: N_9  and  C_27
REMARK    8  A    between atoms: C_11  and  C_17
REMARK    9  A    between atoms: C_18  and  C_19
REMARK   10  A    between atoms: C_19  and  C_21
REMARK   11  A    between atoms: C_20  and  C_22
REMARK   12  A    between atoms: C_20  and  C_25
REMARK   13  A    between atoms: C_21  and  C_23
REMARK   14  A    between atoms: C_21  and  C_24
REMARK   15  A    between atoms: C_22  and  C_26
REMARK                            x       y       z     vdW  Elec       q    Type
REMARK                         _______ _______ _______ _____ _____    ______ ____
ROOT
ATOM     11  C   UNL     1      -2.825   3.507  24.441  0.00  0.00    +0.146 C 
ATOM     12  C   UNL     1      -0.709   2.967  23.140  0.00  0.00    +0.107 C 
ATOM     13  C   UNL     1      -1.861   2.410  23.985  0.00  0.00    +0.069 C 
ATOM     14  C   UNL     1       0.023   4.109  23.857  0.00  0.00    +0.163 C 
ATOM     15  C   UNL     1      -2.085   4.626  25.170  0.00  0.00    +0.078 C 
ATOM     16  C   UNL     1      -0.939   5.198  24.335  0.00  0.00    +0.148 C 
ENDROOT
BRANCH  11  17
ATOM      4  O   UNL     1      -4.519   3.633  26.120  0.00  0.00    -0.273 OA
ATOM      8  N   UNL     1      -4.060   1.574  25.134  0.00  0.00    -0.301 N 
ATOM     17  C   UNL     1      -3.897   2.936  25.322  0.00  0.00    +0.246 C 
ATOM     37  H   UNL     1      -3.571   1.122  24.368  0.00  0.00    +0.150 HD
BRANCH   8  20
ATOM     20  C   UNL     1      -5.013   0.782  25.879  0.00  0.00    +0.163 C 
BRANCH  20  25
ATOM      6  O   UNL     1      -6.922   1.581  24.604  0.00  0.00    -0.274 OA
ATOM     10  N   UNL     1      -6.961   1.794  26.891  0.00  0.00    -0.328 N 
ATOM     25  C   UNL     1      -6.376   1.433  25.695  0.00  0.00    +0.231 C 
ATOM     39  H   UNL     1      -6.507   1.644  27.786  0.00  0.00    +0.145 HD
ATOM     40  H   UNL     1      -7.878   2.227  26.912  0.00  0.00    +0.145 HD
ENDBRANCH  20  25
BRANCH  20  22
ATOM     22  C   UNL     1      -5.049  -0.676  25.407  0.00  0.00    +0.067 C 
BRANCH  22  26
ATOM     26  C   UNL     1      -3.673  -1.250  25.179  0.00  0.00    -0.045 A 
ATOM     28  C   UNL     1      -2.582  -0.674  25.811  0.00  0.00    +0.004 A 
ATOM     29  C   UNL     1      -3.522  -2.343  24.339  0.00  0.00    +0.004 A 
ATOM     30  C   UNL     1      -1.309  -1.203  25.600  0.00  0.00    +0.000 A 
ATOM     31  C   UNL     1      -2.249  -2.872  24.128  0.00  0.00    +0.000 A 
ATOM     32  C   UNL     1      -1.142  -2.302  24.758  0.00  0.00    +0.000 A 
ENDBRANCH  22  26
ENDBRANCH  20  22
ENDBRANCH   8  20
ENDBRANCH  11  17
BRANCH  12   7
ATOM      5  O   UNL     1       0.991   1.522  24.955  0.00  0.00    -0.274 OA
ATOM      7  N   UNL     1       0.210   1.902  22.805  0.00  0.00    -0.309 N 
ATOM     18  C   UNL     1       0.993   1.261  23.753  0.00  0.00    +0.231 C 
ATOM     33  H   UNL     1       0.318   1.656  21.826  0.00  0.00    +0.149 HD
BRANCH  18  19
ATOM     19  C   UNL     1       1.885   0.183  23.141  0.00  0.00    +0.143 C 
BRANCH  19   9
ATOM      9  N   UNL     1       1.639   0.195  21.697  0.00  0.00    -0.309 NA
ATOM     27  C   UNL     1       0.933  -1.008  21.286  0.00  0.00    +0.101 C 
ATOM     38  H   UNL     1       1.096   1.016  21.432  0.00  0.00    +0.122 HD
ENDBRANCH  19   9
BRANCH  19  21
ATOM     21  C   UNL     1       3.387   0.381  23.456  0.00  0.00    +0.009 C 
ATOM     23  C   UNL     1       4.114  -0.956  23.628  0.00  0.00    +0.009 C 
ATOM     24  C   UNL     1       4.130   1.246  22.431  0.00  0.00    +0.009 C 
ENDBRANCH  19  21
ENDBRANCH  18  19
ENDBRANCH  12   7
BRANCH  11   1
ATOM      1  O   UNL     1      -3.518   4.057  23.327  0.00  0.00    -0.379 OA
ATOM     34  H   UNL     1      -3.723   4.987  23.521  0.00  0.00    +0.211 HD
ENDBRANCH  11   1
BRANCH  14   2
ATOM      2  O   UNL     1       0.946   4.715  22.948  0.00  0.00    -0.387 OA
ATOM     35  H   UNL     1       0.835   4.280  22.085  0.00  0.00    +0.210 HD
ENDBRANCH  14   2
BRANCH  16   3
ATOM      3  O   UNL     1      -0.207   6.130  25.132  0.00  0.00    -0.389 OA
ATOM     36  H   UNL     1      -0.762   6.918  25.263  0.00  0.00    +0.210 HD
ENDBRANCH  16   3
TORSDOF 12
ENDMDL
MODEL 4
REMARK VINA RESULT:       1.5      2.445      5.631
REMARK  Name = 11866358
REMARK  15 active torsions:
REMARK  status: ('A' for Active; 'I' for Inactive)
REMARK    1  A    between atoms: O_1  and  C_11
REMARK    2  A    between atoms: O_2  and  C_14
REMARK    3  A    between atoms: O_3  and  C_16
REMARK    4  A    between atoms: N_7  and  C_12
REMARK    5  A    between atoms: N_8  and  C_20
REMARK    6  A    between atoms: N_9  and  C_19
REMARK    7  A    between atoms: N_9  and  C_27
REMARK    8  A    between atoms: C_11  and  C_17
REMARK    9  A    between atoms: C_18  and  C_19
REMARK   10  A    between atoms: C_19  and  C_21
REMARK   11  A    between atoms: C_20  and  C_22
REMARK   12  A    between atoms: C_20  and  C_25
REMARK   13  A    between atoms: C_21  and  C_23
REMARK   14  A    between atoms: C_21  and  C_24
REMARK   15  A    between atoms: C_22  and  C_26
REMARK                            x       y       z     vdW  Elec       q    Type
REMARK                         _______ _______ _______ _____ _____    ______ ____
ROOT
ATOM     11  C   UNL     1      -0.146  -0.923  24.076  0.00  0.00    +0.146 C 
ATOM     12  C   UNL     1       0.962   1.329  24.472  0.00  0.00    +0.107 C 
ATOM     13  C   UNL     1      -0.344   0.530  24.513  0.00  0.00    +0.069 C 
ATOM     14  C   UNL     1       1.646   1.234  23.102  0.00  0.00    +0.163 C 
ATOM     15  C   UNL     1       0.517  -1.003  22.702  0.00  0.00    +0.078 C 
ATOM     16  C   UNL     1       1.828  -0.216  22.650  0.00  0.00    +0.148 C 
ENDROOT
BRANCH  11  17
ATOM      4  O   UNL     1      -1.520  -2.863  23.846  0.00  0.00    -0.273 OA
ATOM      8  N   UNL     1      -2.530  -0.812  24.286  0.00  0.00    -0.301 N 
ATOM     17  C   UNL     1      -1.455  -1.655  24.060  0.00  0.00    +0.246 C 
ATOM     37  H   UNL     1      -2.352   0.149  24.563  0.00  0.00    +0.150 HD
BRANCH   8  20
ATOM     20  C   UNL     1      -3.903  -1.266  24.296  0.00  0.00    +0.163 C 
BRANCH  20  25
ATOM      6  O   UNL     1      -3.537  -3.216  25.701  0.00  0.00    -0.274 OA
ATOM     10  N   UNL     1      -4.332  -3.531  23.569  0.00  0.00    -0.328 N 
ATOM     25  C   UNL     1      -3.878  -2.754  24.614  0.00  0.00    +0.231 C 
ATOM     39  H   UNL     1      -4.633  -3.133  22.685  0.00  0.00    +0.145 HD
ATOM     40  H   UNL     1      -4.380  -4.540  23.654  0.00  0.00    +0.145 HD
ENDBRANCH  20  25
BRANCH  20  22
ATOM     22  C   UNL     1      -4.755  -0.514  25.326  0.00  0.00    +0.067 C 
BRANCH  22  26
ATOM     26  C   UNL     1      -4.842   0.965  25.040  0.00  0.00    -0.045 A 
ATOM     28  C   UNL     1      -4.132   1.496  23.975  0.00  0.00    +0.004 A 
ATOM     29  C   UNL     1      -5.631   1.768  25.850  0.00  0.00    +0.004 A 
ATOM     30  C   UNL     1      -4.212   2.863  23.711  0.00  0.00    +0.000 A 
ATOM     31  C   UNL     1      -5.711   3.136  25.586  0.00  0.00    +0.000 A 
ATOM     32  C   UNL     1      -5.002   3.683  24.517  0.00  0.00    +0.000 A 
ENDBRANCH  22  26
ENDBRANCH  20  22
ENDBRANCH   8  20
ENDBRANCH  11  17
BRANCH  12   7
ATOM      5  O   UNL     1      -1.183   2.976  23.491  0.00  0.00    -0.274 OA
ATOM      7  N   UNL     1       0.701   2.710  24.816  0.00  0.00    -0.309 N 
ATOM     18  C   UNL     1      -0.364   3.425  24.290  0.00  0.00    +0.231 C 
ATOM     33  H   UNL     1       1.359   3.180  25.430  0.00  0.00    +0.149 HD
BRANCH  18  19
ATOM     19  C   UNL     1      -0.411   4.863  24.805  0.00  0.00    +0.143 C 
BRANCH  19   9
ATOM      9  N   UNL     1      -0.413   5.738  23.631  0.00  0.00    -0.309 NA
ATOM     27  C   UNL     1       0.601   5.318  22.677  0.00  0.00    +0.101 C 
ATOM     38  H   UNL     1      -1.328   5.731  23.180  0.00  0.00    +0.122 HD
ENDBRANCH  19   9
BRANCH  19  21
ATOM     21  C   UNL     1      -1.630   5.144  25.717  0.00  0.00    +0.009 C 
ATOM     23  C   UNL     1      -2.720   5.929  24.982  0.00  0.00    +0.009 C 
ATOM     24  C   UNL     1      -2.237   3.887  26.352  0.00  0.00    +0.009 C 
ENDBRANCH  19  21
ENDBRANCH  18  19
ENDBRANCH  12   7
BRANCH  11   1
ATOM      1  O   UNL     1       0.656  -1.623  25.020  0.00  0.00    -0.379 OA
ATOM     34  H   UNL     1       0.975  -0.988  25.683  0.00  0.00    +0.211 HD
ENDBRANCH  11   1
BRANCH  14   2
ATOM      2  O   UNL     1       2.945   1.827  23.186  0.00  0.00    -0.387 OA
ATOM     35  H   UNL     1       3.310   1.860  22.285  0.00  0.00    +0.210 HD
ENDBRANCH  14   2
BRANCH  16   3
ATOM      3  O   UNL     1       2.311  -0.213  21.306  0.00  0.00    -0.389 OA
ATOM     36  H   UNL     1       2.447   0.712  21.036  0.00  0.00    +0.210 HD
ENDBRANCH  16   3
TORSDOF 12
ENDMDL
MODEL 5
REMARK VINA RESULT:       1.5      2.305      7.746
REMARK  Name = 11866358
REMARK  15 active torsions:
REMARK  status: ('A' for Active; 'I' for Inactive)
REMARK    1  A    between atoms: O_1  and  C_11
REMARK    2  A    between atoms: O_2  and  C_14
REMARK    3  A    between atoms: O_3  and  C_16
REMARK    4  A    between atoms: N_7  and  C_12
REMARK    5  A    between atoms: N_8  and  C_20
REMARK    6  A    between atoms: N_9  and  C_19
REMARK    7  A    between atoms: N_9  and  C_27
REMARK    8  A    between atoms: C_11  and  C_17
REMARK    9  A    between atoms: C_18  and  C_19
REMARK   10  A    between atoms: C_19  and  C_21
REMARK   11  A    between atoms: C_20  and  C_22
REMARK   12  A    between atoms: C_20  and  C_25
REMARK   13  A    between atoms: C_21  and  C_23
REMARK   14  A    between atoms: C_21  and  C_24
REMARK   15  A    between atoms: C_22  and  C_26
REMARK                            x       y       z     vdW  Elec       q    Type
REMARK                         _______ _______ _______ _____ _____    ______ ____
ROOT
ATOM     11  C   UNL     1       0.139   2.618  24.917  0.00  0.00    +0.146 C 
ATOM     12  C   UNL     1      -2.005   3.367  26.056  0.00  0.00    +0.107 C 
ATOM     13  C   UNL     1      -1.298   2.246  25.286  0.00  0.00    +0.069 C 
ATOM     14  C   UNL     1      -1.937   4.704  25.307  0.00  0.00    +0.163 C 
ATOM     15  C   UNL     1       0.191   3.941  24.154  0.00  0.00    +0.078 C 
ATOM     16  C   UNL     1      -0.504   5.071  24.915  0.00  0.00    +0.148 C 
ENDROOT
BRANCH  11  17
ATOM      4  O   UNL     1       1.954   1.584  23.758  0.00  0.00    -0.273 OA
ATOM      8  N   UNL     1      -0.114   0.515  23.797  0.00  0.00    -0.301 N 
ATOM     17  C   UNL     1       0.777   1.529  24.105  0.00  0.00    +0.246 C 
ATOM     37  H   UNL     1      -1.033   0.519  24.231  0.00  0.00    +0.150 HD
BRANCH   8  20
ATOM     20  C   UNL     1       0.244  -0.639  23.003  0.00  0.00    +0.163 C 
BRANCH  20  25
ATOM      6  O   UNL     1       2.638  -0.846  23.372  0.00  0.00    -0.274 OA
ATOM     10  N   UNL     1       1.904   0.033  21.380  0.00  0.00    -0.328 N 
ATOM     25  C   UNL     1       1.715  -0.492  22.641  0.00  0.00    +0.231 C 
ATOM     39  H   UNL     1       1.131   0.299  20.778  0.00  0.00    +0.145 HD
ATOM     40  H   UNL     1       2.838   0.171  21.008  0.00  0.00    +0.145 HD
ENDBRANCH  20  25
BRANCH  20  22
ATOM     22  C   UNL     1       0.007  -1.955  23.753  0.00  0.00    +0.067 C 
BRANCH  22  26
ATOM     26  C   UNL     1      -1.257  -1.937  24.577  0.00  0.00    -0.045 A 
ATOM     28  C   UNL     1      -2.344  -2.696  24.172  0.00  0.00    +0.004 A 
ATOM     29  C   UNL     1      -1.310  -1.159  25.723  0.00  0.00    +0.004 A 
ATOM     30  C   UNL     1      -3.512  -2.679  24.932  0.00  0.00    +0.000 A 
ATOM     31  C   UNL     1      -2.479  -1.142  26.483  0.00  0.00    +0.000 A 
ATOM     32  C   UNL     1      -3.581  -1.901  26.088  0.00  0.00    +0.000 A 
ENDBRANCH  22  26
ENDBRANCH  20  22
ENDBRANCH   8  20
ENDBRANCH  11  17
BRANCH  12   7
ATOM      5  O   UNL     1      -4.179   3.411  24.172  0.00  0.00    -0.274 OA
ATOM      7  N   UNL     1      -3.380   2.993  26.308  0.00  0.00    -0.309 N 
ATOM     18  C   UNL     1      -4.363   3.047  25.332  0.00  0.00    +0.231 C 
ATOM     33  H   UNL     1      -3.636   2.730  27.255  0.00  0.00    +0.149 HD
BRANCH  18  19
ATOM     19  C   UNL     1      -5.730   2.611  25.857  0.00  0.00    +0.143 C 
BRANCH  19   9
ATOM      9  N   UNL     1      -6.645   3.736  25.651  0.00  0.00    -0.309 NA
ATOM     27  C   UNL     1      -5.920   4.996  25.670  0.00  0.00    +0.101 C 
ATOM     38  H   UNL     1      -7.138   3.640  24.765  0.00  0.00    +0.122 HD
ENDBRANCH  19   9
BRANCH  19  21
ATOM     21  C   UNL     1      -6.261   1.325  25.180  0.00  0.00    +0.009 C 
ATOM     23  C   UNL     1      -7.291   1.639  24.090  0.00  0.00    +0.009 C 
ATOM     24  C   UNL     1      -5.162   0.422  24.607  0.00  0.00    +0.009 C 
ENDBRANCH  19  21
ENDBRANCH  18  19
ENDBRANCH  12   7
BRANCH  11   1
ATOM      1  O   UNL     1       0.944   2.725  26.086  0.00  0.00    -0.379 OA
ATOM     34  H   UNL     1       1.863   2.517  25.847  0.00  0.00    +0.211 HD
ENDBRANCH  11   1
BRANCH  14   2
ATOM      2  O   UNL     1      -2.433   5.742  26.157  0.00  0.00    -0.387 OA
ATOM     35  H   UNL     1      -2.843   6.414  25.587  0.00  0.00    +0.210 HD
ENDBRANCH  14   2
BRANCH  16   3
ATOM      3  O   UNL     1      -0.546   6.230  24.082  0.00  0.00    -0.389 OA
ATOM     36  H   UNL     1      -0.465   5.940  23.157  0.00  0.00    +0.210 HD
ENDBRANCH  16   3
TORSDOF 12
ENDMDL
MODEL 6
REMARK VINA RESULT:       1.7      1.745      6.339
REMARK  Name = 11866358
REMARK  15 active torsions:
REMARK  status: ('A' for Active; 'I' for Inactive)
REMARK    1  A    between atoms: O_1  and  C_11
REMARK    2  A    between atoms: O_2  and  C_14
REMARK    3  A    between atoms: O_3  and  C_16
REMARK    4  A    between atoms: N_7  and  C_12
REMARK    5  A    between atoms: N_8  and  C_20
REMARK    6  A    between atoms: N_9  and  C_19
REMARK    7  A    between atoms: N_9  and  C_27
REMARK    8  A    between atoms: C_11  and  C_17
REMARK    9  A    between atoms: C_18  and  C_19
REMARK   10  A    between atoms: C_19  and  C_21
REMARK   11  A    between atoms: C_20  and  C_22
REMARK   12  A    between atoms: C_20  and  C_25
REMARK   13  A    between atoms: C_21  and  C_23
REMARK   14  A    between atoms: C_21  and  C_24
REMARK   15  A    between atoms: C_22  and  C_26
REMARK                            x       y       z     vdW  Elec       q    Type
REMARK                         _______ _______ _______ _____ _____    ______ ____
ROOT
ATOM     11  C   UNL     1      -1.296  -1.390  23.906  0.00  0.00    +0.146 C 
ATOM     12  C   UNL     1      -3.730  -0.689  23.692  0.00  0.00    +0.107 C 
ATOM     13  C   UNL     1      -2.299  -0.240  24.011  0.00  0.00    +0.069 C 
ATOM     14  C   UNL     1      -4.152  -1.893  24.542  0.00  0.00    +0.163 C 
ATOM     15  C   UNL     1      -1.719  -2.575  24.772  0.00  0.00    +0.078 C 
ATOM     16  C   UNL     1      -3.141  -3.040  24.458  0.00  0.00    +0.148 C 
ENDROOT
BRANCH  11  17
ATOM      4  O   UNL     1       0.715  -1.476  25.192  0.00  0.00    -0.273 OA
ATOM      8  N   UNL     1       0.497   0.157  23.547  0.00  0.00    -0.301 N 
ATOM     17  C   UNL     1       0.078  -0.931  24.293  0.00  0.00    +0.246 C 
ATOM     37  H   UNL     1      -0.064   0.455  22.754  0.00  0.00    +0.150 HD
BRANCH   8  20
ATOM     20  C   UNL     1       1.775   0.805  23.741  0.00  0.00    +0.163 C 
BRANCH  20  25
ATOM      6  O   UNL     1       2.303  -0.142  21.565  0.00  0.00    -0.274 OA
ATOM     10  N   UNL     1       4.034   0.470  22.946  0.00  0.00    -0.328 N 
ATOM     25  C   UNL     1       2.699   0.309  22.637  0.00  0.00    +0.231 C 
ATOM     39  H   UNL     1       4.345   0.866  23.827  0.00  0.00    +0.145 HD
ATOM     40  H   UNL     1       4.756   0.193  22.291  0.00  0.00    +0.145 HD
ENDBRANCH  20  25
BRANCH  20  22
ATOM     22  C   UNL     1       1.663   2.333  23.698  0.00  0.00    +0.067 C 
BRANCH  22  26
ATOM     26  C   UNL     1       0.518   2.858  24.528  0.00  0.00    -0.045 A 
ATOM     28  C   UNL     1      -0.166   3.988  24.108  0.00  0.00    +0.004 A 
ATOM     29  C   UNL     1       0.170   2.200  25.697  0.00  0.00    +0.004 A 
ATOM     30  C   UNL     1      -1.225   4.472  24.875  0.00  0.00    +0.000 A 
ATOM     31  C   UNL     1      -0.889   2.686  26.466  0.00  0.00    +0.000 A 
ATOM     32  C   UNL     1      -1.586   3.822  26.055  0.00  0.00    +0.000 A 
ENDBRANCH  22  26
ENDBRANCH  20  22
ENDBRANCH   8  20
ENDBRANCH  11  17
BRANCH  12   7
ATOM      5  O   UNL     1      -3.748   1.171  25.886  0.00  0.00    -0.274 OA
ATOM      7  N   UNL     1      -4.643   0.416  23.885  0.00  0.00    -0.309 N 
ATOM     18  C   UNL     1      -4.574   1.264  24.979  0.00  0.00    +0.231 C 
ATOM     33  H   UNL     1      -5.393   0.537  23.211  0.00  0.00    +0.149 HD
BRANCH  18  19
ATOM     19  C   UNL     1      -5.657   2.342  24.952  0.00  0.00    +0.143 C 
BRANCH  19   9
ATOM      9  N   UNL     1      -6.101   2.536  26.334  0.00  0.00    -0.309 NA
ATOM     27  C   UNL     1      -6.639   1.300  26.877  0.00  0.00    +0.101 C 
ATOM     38  H   UNL     1      -5.330   2.858  26.917  0.00  0.00    +0.122 HD
ENDBRANCH  19   9
BRANCH  19  21
ATOM     21  C   UNL     1      -5.177   3.673  24.324  0.00  0.00    +0.009 C 
ATOM     23  C   UNL     1      -4.797   4.701  25.393  0.00  0.00    +0.009 C 
ATOM     24  C   UNL     1      -4.022   3.512  23.328  0.00  0.00    +0.009 C 
ENDBRANCH  19  21
ENDBRANCH  18  19
ENDBRANCH  12   7
BRANCH  11   1
ATOM      1  O   UNL     1      -1.173  -1.823  22.556  0.00  0.00    -0.379 OA
ATOM     34  H   UNL     1      -1.122  -1.038  21.985  0.00  0.00    +0.211 HD
ENDBRANCH  11   1
BRANCH  14   2
ATOM      2  O   UNL     1      -5.407  -2.387  24.063  0.00  0.00    -0.387 OA
ATOM     35  H   UNL     1      -6.097  -1.777  24.374  0.00  0.00    +0.210 HD
ENDBRANCH  14   2
BRANCH  16   3
ATOM      3  O   UNL     1      -3.518  -4.044  25.400  0.00  0.00    -0.389 OA
ATOM     36  H   UNL     1      -3.453  -4.910  24.961  0.00  0.00    +0.210 HD
ENDBRANCH  16   3
TORSDOF 12
ENDMDL
