MODEL 1
REMARK VINA RESULT:      -2.4      0.000      0.000
REMARK  Name = 11886484
REMARK  3 active torsions:
REMARK  status: ('A' for Active; 'I' for Inactive)
REMARK    1  A    between atoms: C_17  and  C_20
REMARK    2  A    between atoms: C_18  and  C_21
REMARK    3  A    between atoms: C_24  and  C_25
REMARK                            x       y       z     vdW  Elec       q    Type
REMARK                         _______ _______ _______ _____ _____    ______ ____
ROOT
ATOM      2  O   UNL     1      15.614  -7.935  26.765  0.00  0.00    -0.267 OA
ATOM      3  O   UNL     1      11.669  -7.732  30.100  0.00  0.00    -0.270 OA
ATOM      4  N   UNL     1      13.464  -8.771  31.184  0.00  0.00    -0.296 N 
ATOM      5  N   UNL     1      15.757  -8.589  28.999  0.00  0.00    -0.311 N 
ATOM      8  C   UNL     1      14.515 -10.635  29.913  0.00  0.00    +0.027 C 
ATOM      9  C   UNL     1      15.887  -9.259  31.423  0.00  0.00    +0.054 C 
ATOM     10  C   UNL     1      15.644 -10.687  30.935  0.00  0.00    +0.018 C 
ATOM     11  C   UNL     1      13.235 -10.071  30.554  0.00  0.00    +0.113 C 
ATOM     12  C   UNL     1      14.975  -9.800  28.710  0.00  0.00    +0.130 C 
ATOM     13  C   UNL     1      14.613  -8.721  32.103  0.00  0.00    +0.117 C 
ATOM     14  C   UNL     1      16.276  -8.349  30.273  0.00  0.00    +0.027 A 
ATOM     15  C   UNL     1      17.082  -7.297  30.485  0.00  0.00    +0.022 A 
ATOM     16  C   UNL     1      16.039  -7.743  27.906  0.00  0.00    +0.259 A 
ATOM     17  C   UNL     1      12.629  -7.697  30.868  0.00  0.00    +0.250 C 
ATOM     18  C   UNL     1      16.921  -6.555  28.181  0.00  0.00    +0.040 A 
ATOM     19  C   UNL     1      17.405  -6.390  29.420  0.00  0.00    +0.015 A 
ENDROOT
BRANCH  17  20
ATOM      6  N   UNL     1      12.228  -4.537  32.831  0.00  0.00    -0.243 NA
ATOM      7  N   UNL     1      14.440  -4.581  31.875  0.00  0.00    -0.243 NA
ATOM     20  C   UNL     1      12.921  -6.397  31.483  0.00  0.00    +0.073 A 
ATOM     22  C   UNL     1      11.993  -5.733  32.251  0.00  0.00    +0.127 A 
ATOM     23  C   UNL     1      14.137  -5.775  31.324  0.00  0.00    +0.127 A 
ATOM     26  C   UNL     1      13.455  -4.027  32.605  0.00  0.00    +0.221 A 
ENDBRANCH  17  20
BRANCH  18  21
ATOM     21  C   UNL     1      17.236  -5.631  27.120  0.00  0.00    +0.014 C 
ATOM     24  C   UNL     1      16.300  -4.963  26.434  0.00  0.00    +0.008 C 
BRANCH  24  25
ATOM      1 CL   UNL     1      17.405  -1.133  21.997  0.00  0.00    -0.084 Cl
ATOM     25  C   UNL     1      16.573  -4.018  25.339  0.00  0.00    -0.025 A 
ATOM     27  C   UNL     1      17.066  -4.497  24.136  0.00  0.00    +0.009 A 
ATOM     28  C   UNL     1      16.330  -2.668  25.532  0.00  0.00    +0.009 A 
ATOM     29  C   UNL     1      17.324  -3.601  23.098  0.00  0.00    +0.020 A 
ATOM     30  C   UNL     1      16.589  -1.772  24.494  0.00  0.00    +0.020 A 
ATOM     31  C   UNL     1      17.086  -2.239  23.277  0.00  0.00    +0.041 A 
ENDBRANCH  24  25
ENDBRANCH  18  21
TORSDOF 3
ENDMDL
MODEL 2
REMARK VINA RESULT:      -2.0      1.402      2.013
REMARK  Name = 11886484
REMARK  3 active torsions:
REMARK  status: ('A' for Active; 'I' for Inactive)
REMARK    1  A    between atoms: C_17  and  C_20
REMARK    2  A    between atoms: C_18  and  C_21
REMARK    3  A    between atoms: C_24  and  C_25
REMARK                            x       y       z     vdW  Elec       q    Type
REMARK                         _______ _______ _______ _____ _____    ______ ____
ROOT
ATOM      2  O   UNL     1      14.122  -7.283  27.101  0.00  0.00    -0.267 OA
ATOM      3  O   UNL     1      12.698  -5.880  31.868  0.00  0.00    -0.270 OA
ATOM      4  N   UNL     1      14.205  -7.658  32.071  0.00  0.00    -0.296 N 
ATOM      5  N   UNL     1      15.035  -8.174  29.052  0.00  0.00    -0.311 N 
ATOM      8  C   UNL     1      13.680  -9.639  30.659  0.00  0.00    +0.027 C 
ATOM      9  C   UNL     1      16.023  -9.095  31.178  0.00  0.00    +0.054 C 
ATOM     10  C   UNL     1      15.031 -10.246  31.019  0.00  0.00    +0.018 C 
ATOM     11  C   UNL     1      13.207  -8.683  31.768  0.00  0.00    +0.113 C 
ATOM     12  C   UNL     1      13.802  -8.934  29.301  0.00  0.00    +0.130 C 
ATOM     13  C   UNL     1      15.563  -8.169  32.321  0.00  0.00    +0.117 C 
ATOM     14  C   UNL     1      16.144  -8.299  29.893  0.00  0.00    +0.027 A 
ATOM     15  C   UNL     1      17.297  -7.685  29.582  0.00  0.00    +0.022 A 
ATOM     16  C   UNL     1      15.074  -7.399  27.874  0.00  0.00    +0.259 A 
ATOM     17  C   UNL     1      13.830  -6.313  32.078  0.00  0.00    +0.250 C 
ATOM     18  C   UNL     1      16.371  -6.698  27.568  0.00  0.00    +0.040 A 
ATOM     19  C   UNL     1      17.405  -6.874  28.402  0.00  0.00    +0.015 A 
ENDROOT
BRANCH  17  20
ATOM      6  N   UNL     1      17.145  -4.774  32.873  0.00  0.00    -0.243 NA
ATOM      7  N   UNL     1      15.535  -3.014  32.536  0.00  0.00    -0.243 NA
ATOM     20  C   UNL     1      14.869  -5.311  32.338  0.00  0.00    +0.073 A 
ATOM     22  C   UNL     1      16.165  -5.668  32.630  0.00  0.00    +0.127 A 
ATOM     23  C   UNL     1      14.604  -3.962  32.302  0.00  0.00    +0.127 A 
ATOM     26  C   UNL     1      16.766  -3.483  32.810  0.00  0.00    +0.221 A 
ENDBRANCH  17  20
BRANCH  18  21
ATOM     21  C   UNL     1      16.482  -5.870  26.394  0.00  0.00    +0.014 C 
ATOM     24  C   UNL     1      16.910  -4.602  26.436  0.00  0.00    +0.008 C 
BRANCH  24  25
ATOM      1 CL   UNL     1      17.401  -1.012  21.698  0.00  0.00    -0.084 Cl
ATOM     25  C   UNL     1      17.032  -3.715  25.267  0.00  0.00    -0.025 A 
ATOM     27  C   UNL     1      17.145  -2.348  25.459  0.00  0.00    +0.009 A 
ATOM     28  C   UNL     1      17.030  -4.266  23.995  0.00  0.00    +0.009 A 
ATOM     29  C   UNL     1      17.260  -1.508  24.351  0.00  0.00    +0.020 A 
ATOM     30  C   UNL     1      17.145  -3.426  22.887  0.00  0.00    +0.020 A 
ATOM     31  C   UNL     1      17.260  -2.048  23.065  0.00  0.00    +0.041 A 
ENDBRANCH  24  25
ENDBRANCH  18  21
TORSDOF 3
ENDMDL
