MODEL 1
REMARK VINA RESULT:      -2.5      0.000      0.000
REMARK  Name = 45361015
REMARK  8 active torsions:
REMARK  status: ('A' for Active; 'I' for Inactive)
REMARK    1  A    between atoms: N_5  and  C_18
REMARK    2  A    between atoms: N_6  and  C_16
REMARK    3  A    between atoms: N_8  and  C_25
REMARK    4  A    between atoms: C_13  and  C_17
REMARK    5  A    between atoms: C_16  and  C_20
REMARK    6  A    between atoms: C_17  and  C_19
REMARK    7  A    between atoms: C_19  and  C_21
REMARK    8  A    between atoms: C_25  and  C_26
REMARK                            x       y       z     vdW  Elec       q    Type
REMARK                         _______ _______ _______ _____ _____    ______ ____
ROOT
ATOM      3  O   UNL     1      -0.492   1.978  23.788  0.00  0.00    -0.274 OA
ATOM      5  N   UNL     1      -2.805  -0.686  25.382  0.00  0.00    -0.296 NA
ATOM      6  N   UNL     1       0.509  -0.531  23.837  0.00  0.00    -0.285 NA
ATOM      7  N   UNL     1      -2.637   1.331  23.326  0.00  0.00    -0.312 N 
ATOM      9  C   UNL     1      -1.652  -1.270  24.663  0.00  0.00    +0.084 C 
ATOM     10  C   UNL     1      -0.939  -0.406  23.581  0.00  0.00    +0.161 C 
ATOM     11  C   UNL     1      -0.480  -1.666  25.579  0.00  0.00    +0.036 C 
ATOM     12  C   UNL     1       0.700  -1.738  24.632  0.00  0.00    +0.087 C 
ATOM     13  C   UNL     1      -3.979  -0.377  24.517  0.00  0.00    +0.074 C 
ATOM     14  C   UNL     1      -1.305   1.076  23.593  0.00  0.00    +0.232 C 
ATOM     15  C   UNL     1      -3.635   0.290  23.171  0.00  0.00    +0.123 C 
ATOM     18  C   UNL     1      -3.213  -1.548  26.505  0.00  0.00    +0.105 C 
ATOM     30  H   UNL     1      -2.942   2.298  23.296  0.00  0.00    +0.149 HD
ENDROOT
BRANCH   6  16
ATOM     16  C   UNL     1       1.312  -0.541  22.621  0.00  0.00    +0.127 C 
BRANCH  16  20
ATOM      1  S   UNL     1       3.791  -1.352  23.583  0.00  0.00    -0.100 S 
ATOM     20  C   UNL     1       2.748  -0.181  22.896  0.00  0.00    +0.004 A 
ATOM     22  C   UNL     1       3.392   1.015  22.667  0.00  0.00    +0.012 A 
ATOM     23  C   UNL     1       4.760   0.969  23.062  0.00  0.00    +0.008 A 
ATOM     24  C   UNL     1       5.110  -0.260  23.576  0.00  0.00    +0.045 A 
ENDBRANCH  16  20
ENDBRANCH   6  16
BRANCH  13  17
ATOM     17  C   UNL     1      -4.965   0.552  25.257  0.00  0.00    +0.029 C 
BRANCH  17  19
ATOM     19  C   UNL     1      -5.460   1.651  24.336  0.00  0.00    +0.097 C 
BRANCH  19  21
ATOM      4  O   UNL     1      -4.409   3.735  23.695  0.00  0.00    -0.276 OA
ATOM      8  N   UNL     1      -4.504   3.163  25.943  0.00  0.00    -0.311 N 
ATOM     21  C   UNL     1      -4.739   2.962  24.590  0.00  0.00    +0.213 C 
ATOM     31  H   UNL     1      -4.821   2.462  26.607  0.00  0.00    +0.149 HD
BRANCH   8  25
ATOM     25  C   UNL     1      -3.829   4.337  26.442  0.00  0.00    +0.146 C 
BRANCH  25  26
ATOM      2  S   UNL     1      -1.282   3.235  26.263  0.00  0.00    -0.100 S 
ATOM     26  C   UNL     1      -2.429   4.453  25.900  0.00  0.00    +0.007 A 
ATOM     27  C   UNL     1      -1.895   5.447  25.110  0.00  0.00    +0.013 A 
ATOM     28  C   UNL     1      -0.526   5.205  24.798  0.00  0.00    +0.008 A 
ATOM     29  C   UNL     1      -0.066   4.036  25.363  0.00  0.00    +0.045 A 
ENDBRANCH  25  26
ENDBRANCH   8  25
ENDBRANCH  19  21
ENDBRANCH  17  19
ENDBRANCH  13  17
TORSDOF 7
ENDMDL
MODEL 2
REMARK VINA RESULT:      -1.4      1.534      6.553
REMARK  Name = 45361015
REMARK  8 active torsions:
REMARK  status: ('A' for Active; 'I' for Inactive)
REMARK    1  A    between atoms: N_5  and  C_18
REMARK    2  A    between atoms: N_6  and  C_16
REMARK    3  A    between atoms: N_8  and  C_25
REMARK    4  A    between atoms: C_13  and  C_17
REMARK    5  A    between atoms: C_16  and  C_20
REMARK    6  A    between atoms: C_17  and  C_19
REMARK    7  A    between atoms: C_19  and  C_21
REMARK    8  A    between atoms: C_25  and  C_26
REMARK                            x       y       z     vdW  Elec       q    Type
REMARK                         _______ _______ _______ _____ _____    ______ ____
ROOT
ATOM      3  O   UNL     1      -2.768   2.313  22.664  0.00  0.00    -0.274 OA
ATOM      5  N   UNL     1      -2.303  -0.961  24.679  0.00  0.00    -0.296 NA
ATOM      6  N   UNL     1      -4.707   1.791  24.471  0.00  0.00    -0.285 NA
ATOM      7  N   UNL     1      -1.057   1.545  23.976  0.00  0.00    -0.312 N 
ATOM      9  C   UNL     1      -3.361  -0.083  25.226  0.00  0.00    +0.084 C 
ATOM     10  C   UNL     1      -3.330   1.431  24.862  0.00  0.00    +0.161 C 
ATOM     11  C   UNL     1      -4.786  -0.485  24.805  0.00  0.00    +0.036 C 
ATOM     12  C   UNL     1      -5.591   0.777  25.033  0.00  0.00    +0.087 C 
ATOM     13  C   UNL     1      -0.927  -0.634  25.148  0.00  0.00    +0.074 C 
ATOM     14  C   UNL     1      -2.391   1.801  23.716  0.00  0.00    +0.232 C 
ATOM     15  C   UNL     1      -0.590   0.870  25.171  0.00  0.00    +0.123 C 
ATOM     18  C   UNL     1      -2.608  -2.377  24.944  0.00  0.00    +0.105 C 
ATOM     30  H   UNL     1      -0.377   1.790  23.264  0.00  0.00    +0.149 HD
ENDROOT
BRANCH   6  16
ATOM     16  C   UNL     1      -5.088   3.138  24.876  0.00  0.00    +0.127 C 
BRANCH  16  20
ATOM      1  S   UNL     1      -2.851   3.992  26.290  0.00  0.00    -0.100 S 
ATOM     20  C   UNL     1      -3.900   4.061  24.939  0.00  0.00    +0.004 A 
ATOM     22  C   UNL     1      -3.502   5.010  24.022  0.00  0.00    +0.012 A 
ATOM     23  C   UNL     1      -2.320   5.690  24.436  0.00  0.00    +0.008 A 
ATOM     24  C   UNL     1      -1.859   5.233  25.652  0.00  0.00    +0.045 A 
ENDBRANCH  16  20
ENDBRANCH   6  16
BRANCH  13  17
ATOM     17  C   UNL     1       0.126  -1.332  24.260  0.00  0.00    +0.029 C 
BRANCH  17  19
ATOM     19  C   UNL     1      -0.112  -1.014  22.796  0.00  0.00    +0.097 C 
BRANCH  19  21
ATOM      4  O   UNL     1       1.400  -0.588  20.954  0.00  0.00    -0.276 OA
ATOM      8  N   UNL     1       1.892   0.291  23.046  0.00  0.00    -0.311 N 
ATOM     21  C   UNL     1       1.126  -0.430  22.141  0.00  0.00    +0.213 C 
ATOM     31  H   UNL     1       1.575   0.366  24.009  0.00  0.00    +0.149 HD
BRANCH   8  25
ATOM     25  C   UNL     1       3.122   0.943  22.668  0.00  0.00    +0.146 C 
BRANCH  25  26
ATOM      2  S   UNL     1       4.225  -1.375  23.736  0.00  0.00    -0.100 S 
ATOM     26  C   UNL     1       4.324   0.271  23.277  0.00  0.00    +0.007 A 
ATOM     27  C   UNL     1       5.566   0.808  23.538  0.00  0.00    +0.013 A 
ATOM     28  C   UNL     1       6.448  -0.146  24.123  0.00  0.00    +0.008 A 
ATOM     29  C   UNL     1       5.847  -1.374  24.287  0.00  0.00    +0.045 A 
ENDBRANCH  25  26
ENDBRANCH   8  25
ENDBRANCH  19  21
ENDBRANCH  17  19
ENDBRANCH  13  17
TORSDOF 7
ENDMDL
MODEL 3
REMARK VINA RESULT:      -1.3      1.845      4.101
REMARK  Name = 45361015
REMARK  8 active torsions:
REMARK  status: ('A' for Active; 'I' for Inactive)
REMARK    1  A    between atoms: N_5  and  C_18
REMARK    2  A    between atoms: N_6  and  C_16
REMARK    3  A    between atoms: N_8  and  C_25
REMARK    4  A    between atoms: C_13  and  C_17
REMARK    5  A    between atoms: C_16  and  C_20
REMARK    6  A    between atoms: C_17  and  C_19
REMARK    7  A    between atoms: C_19  and  C_21
REMARK    8  A    between atoms: C_25  and  C_26
REMARK                            x       y       z     vdW  Elec       q    Type
REMARK                         _______ _______ _______ _____ _____    ______ ____
ROOT
ATOM      3  O   UNL     1      -0.824   0.166  26.443  0.00  0.00    -0.274 OA
ATOM      5  N   UNL     1      -1.814   2.838  23.821  0.00  0.00    -0.296 NA
ATOM      6  N   UNL     1      -0.049  -0.367  23.911  0.00  0.00    -0.285 NA
ATOM      7  N   UNL     1      -0.417   2.414  26.310  0.00  0.00    -0.312 N 
ATOM      9  C   UNL     1      -0.844   1.847  23.307  0.00  0.00    +0.084 C 
ATOM     10  C   UNL     1       0.012   1.046  24.333  0.00  0.00    +0.161 C 
ATOM     11  C   UNL     1      -1.482   0.720  22.475  0.00  0.00    +0.036 C 
ATOM     12  C   UNL     1      -0.440  -0.378  22.506  0.00  0.00    +0.087 C 
ATOM     13  C   UNL     1      -1.199   3.979  24.556  0.00  0.00    +0.074 C 
ATOM     14  C   UNL     1      -0.463   1.137  25.781  0.00  0.00    +0.232 C 
ATOM     15  C   UNL     1      -0.073   3.589  25.534  0.00  0.00    +0.123 C 
ATOM     18  C   UNL     1      -2.677   3.336  22.738  0.00  0.00    +0.105 C 
ATOM     30  H   UNL     1      -0.697   2.540  27.278  0.00  0.00    +0.149 HD
ENDROOT
BRANCH   6  16
ATOM     16  C   UNL     1       1.195  -1.092  24.140  0.00  0.00    +0.127 C 
BRANCH  16  20
ATOM      1  S   UNL     1       3.938  -1.066  23.689  0.00  0.00    -0.100 S 
ATOM     20  C   UNL     1       2.381  -0.366  23.564  0.00  0.00    +0.004 A 
ATOM     22  C   UNL     1       2.410   0.848  22.913  0.00  0.00    +0.012 A 
ATOM     23  C   UNL     1       3.730   1.207  22.512  0.00  0.00    +0.008 A 
ATOM     24  C   UNL     1       4.658   0.255  22.871  0.00  0.00    +0.045 A 
ENDBRANCH  16  20
ENDBRANCH   6  16
BRANCH  13  17
ATOM     17  C   UNL     1      -2.271   4.742  25.362  0.00  0.00    +0.029 C 
BRANCH  17  19
ATOM     19  C   UNL     1      -2.958   3.817  26.350  0.00  0.00    +0.097 C 
BRANCH  19  21
ATOM      4  O   UNL     1      -5.208   3.679  25.467  0.00  0.00    -0.276 OA
ATOM      8  N   UNL     1      -3.883   1.773  25.483  0.00  0.00    -0.311 N 
ATOM     21  C   UNL     1      -4.148   3.114  25.722  0.00  0.00    +0.213 C 
ATOM     31  H   UNL     1      -2.969   1.401  25.728  0.00  0.00    +0.149 HD
BRANCH   8  25
ATOM     25  C   UNL     1      -4.858   0.887  24.894  0.00  0.00    +0.146 C 
BRANCH  25  26
ATOM      2  S   UNL     1      -3.478  -1.236  26.043  0.00  0.00    -0.100 S 
ATOM     26  C   UNL     1      -4.325  -0.513  24.743  0.00  0.00    +0.007 A 
ATOM     27  C   UNL     1      -4.417  -1.352  23.654  0.00  0.00    +0.013 A 
ATOM     28  C   UNL     1      -3.785  -2.607  23.892  0.00  0.00    +0.008 A 
ATOM     29  C   UNL     1      -3.232  -2.678  25.151  0.00  0.00    +0.045 A 
ENDBRANCH  25  26
ENDBRANCH   8  25
ENDBRANCH  19  21
ENDBRANCH  17  19
ENDBRANCH  13  17
TORSDOF 7
ENDMDL
MODEL 4
REMARK VINA RESULT:      -1.0      1.448      2.202
REMARK  Name = 45361015
REMARK  8 active torsions:
REMARK  status: ('A' for Active; 'I' for Inactive)
REMARK    1  A    between atoms: N_5  and  C_18
REMARK    2  A    between atoms: N_6  and  C_16
REMARK    3  A    between atoms: N_8  and  C_25
REMARK    4  A    between atoms: C_13  and  C_17
REMARK    5  A    between atoms: C_16  and  C_20
REMARK    6  A    between atoms: C_17  and  C_19
REMARK    7  A    between atoms: C_19  and  C_21
REMARK    8  A    between atoms: C_25  and  C_26
REMARK                            x       y       z     vdW  Elec       q    Type
REMARK                         _______ _______ _______ _____ _____    ______ ____
ROOT
ATOM      3  O   UNL     1      -1.377  -2.697  23.570  0.00  0.00    -0.274 OA
ATOM      5  N   UNL     1      -3.032   0.800  23.719  0.00  0.00    -0.296 NA
ATOM      6  N   UNL     1       0.332  -0.611  23.432  0.00  0.00    -0.285 NA
ATOM      7  N   UNL     1      -2.767  -1.719  25.101  0.00  0.00    -0.312 N 
ATOM      9  C   UNL     1      -1.562   0.843  23.874  0.00  0.00    +0.084 C 
ATOM     10  C   UNL     1      -0.826  -0.452  24.331  0.00  0.00    +0.161 C 
ATOM     11  C   UNL     1      -0.807   1.199  22.580  0.00  0.00    +0.036 C 
ATOM     12  C   UNL     1       0.597   0.696  22.840  0.00  0.00    +0.087 C 
ATOM     13  C   UNL     1      -3.778   0.540  24.983  0.00  0.00    +0.074 C 
ATOM     14  C   UNL     1      -1.664  -1.727  24.268  0.00  0.00    +0.232 C 
ATOM     15  C   UNL     1      -3.176  -0.563  25.875  0.00  0.00    +0.123 C 
ATOM     18  C   UNL     1      -3.528   2.030  23.079  0.00  0.00    +0.105 C 
ATOM     30  H   UNL     1      -3.354  -2.547  25.126  0.00  0.00    +0.149 HD
ENDROOT
BRANCH   6  16
ATOM     16  C   UNL     1       1.508  -1.161  24.096  0.00  0.00    +0.127 C 
BRANCH  16  20
ATOM      1  S   UNL     1       4.273  -1.313  23.846  0.00  0.00    -0.100 S 
ATOM     20  C   UNL     1       2.778  -0.510  23.615  0.00  0.00    +0.004 A 
ATOM     22  C   UNL     1       2.934   0.702  22.981  0.00  0.00    +0.012 A 
ATOM     23  C   UNL     1       4.300   0.977  22.681  0.00  0.00    +0.008 A 
ATOM     24  C   UNL     1       5.135  -0.037  23.096  0.00  0.00    +0.045 A 
ENDBRANCH  16  20
ENDBRANCH   6  16
BRANCH  13  17
ATOM     17  C   UNL     1      -5.238   0.144  24.676  0.00  0.00    +0.029 C 
BRANCH  17  19
ATOM     19  C   UNL     1      -6.170   1.321  24.894  0.00  0.00    +0.097 C 
BRANCH  19  21
ATOM      4  O   UNL     1      -6.035   2.371  27.071  0.00  0.00    -0.276 OA
ATOM      8  N   UNL     1      -4.590   3.064  25.392  0.00  0.00    -0.311 N 
ATOM     21  C   UNL     1      -5.615   2.292  25.920  0.00  0.00    +0.213 C 
ATOM     31  H   UNL     1      -4.312   2.919  24.425  0.00  0.00    +0.149 HD
BRANCH   8  25
ATOM     25  C   UNL     1      -3.900   4.065  26.169  0.00  0.00    +0.146 C 
BRANCH  25  26
ATOM      2  S   UNL     1      -1.312   3.049  26.112  0.00  0.00    -0.100 S 
ATOM     26  C   UNL     1      -2.474   4.242  25.717  0.00  0.00    +0.007 A 
ATOM     27  C   UNL     1      -1.927   5.278  24.992  0.00  0.00    +0.013 A 
ATOM     28  C   UNL     1      -0.535   5.088  24.757  0.00  0.00    +0.008 A 
ATOM     29  C   UNL     1      -0.071   3.917  25.313  0.00  0.00    +0.045 A 
ENDBRANCH  25  26
ENDBRANCH   8  25
ENDBRANCH  19  21
ENDBRANCH  17  19
ENDBRANCH  13  17
TORSDOF 7
ENDMDL
MODEL 5
REMARK VINA RESULT:      -0.2      1.760      2.807
REMARK  Name = 45361015
REMARK  8 active torsions:
REMARK  status: ('A' for Active; 'I' for Inactive)
REMARK    1  A    between atoms: N_5  and  C_18
REMARK    2  A    between atoms: N_6  and  C_16
REMARK    3  A    between atoms: N_8  and  C_25
REMARK    4  A    between atoms: C_13  and  C_17
REMARK    5  A    between atoms: C_16  and  C_20
REMARK    6  A    between atoms: C_17  and  C_19
REMARK    7  A    between atoms: C_19  and  C_21
REMARK    8  A    between atoms: C_25  and  C_26
REMARK                            x       y       z     vdW  Elec       q    Type
REMARK                         _______ _______ _______ _____ _____    ______ ____
ROOT
ATOM      3  O   UNL     1      -0.822  -1.068  21.972  0.00  0.00    -0.274 OA
ATOM      5  N   UNL     1      -1.137   0.376  25.551  0.00  0.00    -0.296 NA
ATOM      6  N   UNL     1       1.246   0.474  22.775  0.00  0.00    -0.285 NA
ATOM      7  N   UNL     1      -1.134  -2.063  24.009  0.00  0.00    -0.312 N 
ATOM      9  C   UNL     1       0.215   0.540  24.972  0.00  0.00    +0.084 C 
ATOM     10  C   UNL     1       0.638  -0.396  23.800  0.00  0.00    +0.161 C 
ATOM     11  C   UNL     1       0.475   1.935  24.377  0.00  0.00    +0.036 C 
ATOM     12  C   UNL     1       1.643   1.709  23.440  0.00  0.00    +0.087 C 
ATOM     13  C   UNL     1      -1.371  -0.942  26.205  0.00  0.00    +0.074 C 
ATOM     14  C   UNL     1      -0.503  -1.178  23.154  0.00  0.00    +0.232 C 
ATOM     15  C   UNL     1      -0.836  -2.159  25.424  0.00  0.00    +0.123 C 
ATOM     18  C   UNL     1      -1.442   1.471  26.487  0.00  0.00    +0.105 C 
ATOM     30  H   UNL     1      -1.887  -2.633  23.636  0.00  0.00    +0.149 HD
ENDROOT
BRANCH   6  16
ATOM     16  C   UNL     1       2.359  -0.154  22.072  0.00  0.00    +0.127 C 
BRANCH  16  20
ATOM      1  S   UNL     1       4.129  -1.451  23.780  0.00  0.00    -0.100 S 
ATOM     20  C   UNL     1       3.634  -0.087  22.870  0.00  0.00    +0.004 A 
ATOM     22  C   UNL     1       4.517   0.963  22.990  0.00  0.00    +0.012 A 
ATOM     23  C   UNL     1       5.615   0.644  23.840  0.00  0.00    +0.008 A 
ATOM     24  C   UNL     1       5.529  -0.638  24.337  0.00  0.00    +0.045 A 
ENDBRANCH  16  20
ENDBRANCH   6  16
BRANCH  13  17
ATOM     17  C   UNL     1      -2.880  -1.168  26.439  0.00  0.00    +0.029 C 
BRANCH  17  19
ATOM     19  C   UNL     1      -3.588  -1.460  25.129  0.00  0.00    +0.097 C 
BRANCH  19  21
ATOM      4  O   UNL     1      -3.675   0.063  23.250  0.00  0.00    -0.276 OA
ATOM      8  N   UNL     1      -4.736   0.650  25.229  0.00  0.00    -0.311 N 
ATOM     21  C   UNL     1      -3.987  -0.184  24.411  0.00  0.00    +0.213 C 
ATOM     31  H   UNL     1      -4.946   0.351  26.178  0.00  0.00    +0.149 HD
BRANCH   8  25
ATOM     25  C   UNL     1      -5.235   1.927  24.778  0.00  0.00    +0.146 C 
BRANCH  25  26
ATOM      2  S   UNL     1      -3.106   3.415  23.784  0.00  0.00    -0.100 S 
ATOM     26  C   UNL     1      -4.239   3.032  25.010  0.00  0.00    +0.007 A 
ATOM     27  C   UNL     1      -4.087   3.831  26.122  0.00  0.00    +0.013 A 
ATOM     28  C   UNL     1      -3.027   4.770  25.965  0.00  0.00    +0.008 A 
ATOM     29  C   UNL     1      -2.409   4.652  24.740  0.00  0.00    +0.045 A 
ENDBRANCH  25  26
ENDBRANCH   8  25
ENDBRANCH  19  21
ENDBRANCH  17  19
ENDBRANCH  13  17
TORSDOF 7
ENDMDL
MODEL 6
REMARK VINA RESULT:       0.8      1.343      6.348
REMARK  Name = 45361015
REMARK  8 active torsions:
REMARK  status: ('A' for Active; 'I' for Inactive)
REMARK    1  A    between atoms: N_5  and  C_18
REMARK    2  A    between atoms: N_6  and  C_16
REMARK    3  A    between atoms: N_8  and  C_25
REMARK    4  A    between atoms: C_13  and  C_17
REMARK    5  A    between atoms: C_16  and  C_20
REMARK    6  A    between atoms: C_17  and  C_19
REMARK    7  A    between atoms: C_19  and  C_21
REMARK    8  A    between atoms: C_25  and  C_26
REMARK                            x       y       z     vdW  Elec       q    Type
REMARK                         _______ _______ _______ _____ _____    ______ ____
ROOT
ATOM      3  O   UNL     1      -2.712   2.492  22.923  0.00  0.00    -0.274 OA
ATOM      5  N   UNL     1      -3.867  -0.873  24.452  0.00  0.00    -0.296 NA
ATOM      6  N   UNL     1      -4.889   2.640  24.514  0.00  0.00    -0.285 NA
ATOM      7  N   UNL     1      -1.631   0.934  24.204  0.00  0.00    -0.312 N 
ATOM      9  C   UNL     1      -4.527   0.302  25.060  0.00  0.00    +0.084 C 
ATOM     10  C   UNL     1      -3.837   1.692  24.928  0.00  0.00    +0.161 C 
ATOM     11  C   UNL     1      -5.933   0.589  24.500  0.00  0.00    +0.036 C 
ATOM     12  C   UNL     1      -6.170   2.039  24.866  0.00  0.00    +0.087 C 
ATOM     13  C   UNL     1      -2.542  -1.211  25.045  0.00  0.00    +0.074 C 
ATOM     14  C   UNL     1      -2.703   1.755  23.908  0.00  0.00    +0.232 C 
ATOM     15  C   UNL     1      -1.623  -0.002  25.311  0.00  0.00    +0.123 C 
ATOM     18  C   UNL     1      -4.754  -2.048  24.484  0.00  0.00    +0.105 C 
ATOM     30  H   UNL     1      -0.832   0.946  23.578  0.00  0.00    +0.149 HD
ENDROOT
BRANCH   6  16
ATOM     16  C   UNL     1      -4.729   3.969  25.092  0.00  0.00    +0.127 C 
BRANCH  16  20
ATOM      1  S   UNL     1      -2.268   3.650  26.346  0.00  0.00    -0.100 S 
ATOM     20  C   UNL     1      -3.281   4.374  25.171  0.00  0.00    +0.004 A 
ATOM     22  C   UNL     1      -2.604   5.292  24.399  0.00  0.00    +0.012 A 
ATOM     23  C   UNL     1      -1.235   5.403  24.777  0.00  0.00    +0.008 A 
ATOM     24  C   UNL     1      -0.918   4.564  25.823  0.00  0.00    +0.045 A 
ENDBRANCH  16  20
ENDBRANCH   6  16
BRANCH  13  17
ATOM     17  C   UNL     1      -1.773  -2.185  24.127  0.00  0.00    +0.029 C 
BRANCH  17  19
ATOM     19  C   UNL     1      -0.276  -2.046  24.332  0.00  0.00    +0.097 C 
BRANCH  19  21
ATOM      4  O   UNL     1      -0.256  -0.695  22.324  0.00  0.00    -0.276 OA
ATOM      8  N   UNL     1       1.658  -0.799  23.633  0.00  0.00    -0.311 N 
ATOM     21  C   UNL     1       0.345  -1.112  23.310  0.00  0.00    +0.213 C 
ATOM     31  H   UNL     1       2.065  -1.194  24.477  0.00  0.00    +0.149 HD
BRANCH   8  25
ATOM     25  C   UNL     1       2.467   0.071  22.815  0.00  0.00    +0.146 C 
BRANCH  25  26
ATOM      2  S   UNL     1       4.578  -1.432  23.824  0.00  0.00    -0.100 S 
ATOM     26  C   UNL     1       3.919   0.025  23.211  0.00  0.00    +0.007 A 
ATOM     27  C   UNL     1       4.856   1.033  23.155  0.00  0.00    +0.013 A 
ATOM     28  C   UNL     1       6.132   0.603  23.620  0.00  0.00    +0.008 A 
ATOM     29  C   UNL     1       6.122  -0.716  24.015  0.00  0.00    +0.045 A 
ENDBRANCH  25  26
ENDBRANCH   8  25
ENDBRANCH  19  21
ENDBRANCH  17  19
ENDBRANCH  13  17
TORSDOF 7
ENDMDL
