MODEL 1
REMARK VINA RESULT:      -3.3      0.000      0.000
REMARK  Name = 26742923
REMARK  7 active torsions:
REMARK  status: ('A' for Active; 'I' for Inactive)
REMARK    1  A    between atoms: N_6  and  C_19
REMARK    2  A    between atoms: C_8  and  C_14
REMARK    3  A    between atoms: C_9  and  C_13
REMARK    4  A    between atoms: C_13  and  C_15
REMARK    5  A    between atoms: C_14  and  C_16
REMARK    6  A    between atoms: C_18  and  C_20
REMARK    7  A    between atoms: C_19  and  C_21
REMARK                            x       y       z     vdW  Elec       q    Type
REMARK                         _______ _______ _______ _____ _____    ______ ____
ROOT
ATOM      5  N   UNL     1      -0.745   5.171  24.693  0.00  0.00    -0.316 NA
ATOM      8  C   UNL     1      -2.818   3.220  25.470  0.00  0.00    +0.004 C 
ATOM      9  C   UNL     1      -1.548   2.821  24.682  0.00  0.00    +0.012 C 
ATOM     10  C   UNL     1      -2.533   4.507  26.263  0.00  0.00    +0.019 C 
ATOM     11  C   UNL     1      -0.999   3.997  23.856  0.00  0.00    +0.085 C 
ATOM     12  C   UNL     1      -1.953   5.615  25.387  0.00  0.00    +0.081 C 
ATOM     30  H   UNL     1      -0.392   5.930  24.111  0.00  0.00    +0.122 HD
ENDROOT
BRANCH   9  13
ATOM     13  C   UNL     1      -1.754   1.593  23.795  0.00  0.00    +0.064 C 
BRANCH  13  15
ATOM      3  O   UNL     1       0.908  -0.526  22.621  0.00  0.00    -0.354 OA
ATOM      7  N   UNL     1      -0.432  -0.173  22.712  0.00  0.00    -0.083 NA
ATOM     15  C   UNL     1      -0.450   0.922  23.477  0.00  0.00    +0.085 A 
ATOM     17  C   UNL     1       0.838   1.303  23.894  0.00  0.00    +0.076 A 
ATOM     18  C   UNL     1       1.655   0.359  23.329  0.00  0.00    +0.167 A 
BRANCH  18  20
ATOM      1  F   UNL     1       7.141  -0.564  23.320  0.00  0.00    -0.205 F 
ATOM     20  C   UNL     1       3.069   0.121  23.327  0.00  0.00    +0.020 A 
ATOM     22  C   UNL     1       3.944   1.122  22.905  0.00  0.00    +0.014 A 
ATOM     23  C   UNL     1       3.569  -1.111  23.747  0.00  0.00    +0.014 A 
ATOM     25  C   UNL     1       5.320   0.890  22.903  0.00  0.00    +0.039 A 
ATOM     26  C   UNL     1       4.945  -1.343  23.745  0.00  0.00    +0.039 A 
ATOM     29  C   UNL     1       5.820  -0.342  23.323  0.00  0.00    +0.123 A 
ENDBRANCH  18  20
ENDBRANCH  13  15
ENDBRANCH   9  13
BRANCH   8  14
ATOM     14  C   UNL     1      -4.068   3.381  24.598  0.00  0.00    +0.099 C 
BRANCH  14  16
ATOM      2  O   UNL     1      -6.208   2.312  24.961  0.00  0.00    -0.276 OA
ATOM      6  N   UNL     1      -4.337   1.003  24.535  0.00  0.00    -0.308 N 
ATOM     16  C   UNL     1      -5.009   2.201  24.723  0.00  0.00    +0.214 C 
ATOM     31  H   UNL     1      -3.336   1.016  24.360  0.00  0.00    +0.149 HD
BRANCH   6  19
ATOM     19  C   UNL     1      -4.987  -0.286  24.600  0.00  0.00    +0.178 C 
BRANCH  19  21
ATOM      4  O   UNL     1      -2.838  -1.242  25.216  0.00  0.00    -0.466 OA
ATOM     21  C   UNL     1      -4.001  -1.417  24.535  0.00  0.00    +0.122 A 
ATOM     24  C   UNL     1      -4.015  -2.643  23.910  0.00  0.00    +0.046 A 
ATOM     27  C   UNL     1      -2.784  -3.261  24.229  0.00  0.00    +0.041 A 
ATOM     28  C   UNL     1      -2.102  -2.368  25.025  0.00  0.00    +0.195 A 
ENDBRANCH  19  21
ENDBRANCH   6  19
ENDBRANCH  14  16
ENDBRANCH   8  14
TORSDOF 7
ENDMDL
MODEL 2
REMARK VINA RESULT:      -2.8      1.576      4.539
REMARK  Name = 26742923
REMARK  7 active torsions:
REMARK  status: ('A' for Active; 'I' for Inactive)
REMARK    1  A    between atoms: N_6  and  C_19
REMARK    2  A    between atoms: C_8  and  C_14
REMARK    3  A    between atoms: C_9  and  C_13
REMARK    4  A    between atoms: C_13  and  C_15
REMARK    5  A    between atoms: C_14  and  C_16
REMARK    6  A    between atoms: C_18  and  C_20
REMARK    7  A    between atoms: C_19  and  C_21
REMARK                            x       y       z     vdW  Elec       q    Type
REMARK                         _______ _______ _______ _____ _____    ______ ____
ROOT
ATOM      5  N   UNL     1      -2.051  -2.909  24.530  0.00  0.00    -0.316 NA
ATOM      8  C   UNL     1      -4.084  -0.856  23.934  0.00  0.00    +0.004 C 
ATOM      9  C   UNL     1      -2.574  -0.636  23.678  0.00  0.00    +0.012 C 
ATOM     10  C   UNL     1      -4.382  -2.364  23.919  0.00  0.00    +0.019 C 
ATOM     11  C   UNL     1      -1.708  -1.489  24.621  0.00  0.00    +0.085 C 
ATOM     12  C   UNL     1      -3.458  -3.150  24.847  0.00  0.00    +0.081 C 
ATOM     30  H   UNL     1      -1.464  -3.439  25.174  0.00  0.00    +0.122 HD
ENDROOT
BRANCH   9  13
ATOM     13  C   UNL     1      -2.161   0.834  23.754  0.00  0.00    +0.064 C 
BRANCH  13  15
ATOM      3  O   UNL     1       1.258   1.952  23.914  0.00  0.00    -0.354 OA
ATOM      7  N   UNL     1      -0.111   2.159  24.036  0.00  0.00    -0.083 NA
ATOM     15  C   UNL     1      -0.667   0.985  23.728  0.00  0.00    +0.085 A 
ATOM     17  C   UNL     1       0.291   0.007  23.407  0.00  0.00    +0.076 A 
ATOM     18  C   UNL     1       1.485   0.667  23.539  0.00  0.00    +0.167 A 
BRANCH  18  20
ATOM      1  F   UNL     1       6.826  -0.749  22.898  0.00  0.00    -0.205 F 
ATOM     20  C   UNL     1       2.861   0.302  23.374  0.00  0.00    +0.020 A 
ATOM     22  C   UNL     1       3.299  -0.964  23.764  0.00  0.00    +0.014 A 
ATOM     23  C   UNL     1       3.763   1.212  22.822  0.00  0.00    +0.014 A 
ATOM     25  C   UNL     1       4.639  -1.319  23.603  0.00  0.00    +0.039 A 
ATOM     26  C   UNL     1       5.102   0.857  22.661  0.00  0.00    +0.039 A 
ATOM     29  C   UNL     1       5.540  -0.408  23.051  0.00  0.00    +0.123 A 
ENDBRANCH  18  20
ENDBRANCH  13  15
ENDBRANCH   9  13
BRANCH   8  14
ATOM     14  C   UNL     1      -4.598  -0.210  25.226  0.00  0.00    +0.099 C 
BRANCH  14  16
ATOM      2  O   UNL     1      -5.916   1.606  24.323  0.00  0.00    -0.276 OA
ATOM      6  N   UNL     1      -4.139   2.083  25.742  0.00  0.00    -0.308 N 
ATOM     16  C   UNL     1      -4.980   1.241  25.028  0.00  0.00    +0.214 C 
ATOM     31  H   UNL     1      -3.379   1.682  26.285  0.00  0.00    +0.149 HD
BRANCH   6  19
ATOM     19  C   UNL     1      -4.271   3.521  25.736  0.00  0.00    +0.178 C 
BRANCH  19  21
ATOM      4  O   UNL     1      -1.855   3.617  25.987  0.00  0.00    -0.466 OA
ATOM     21  C   UNL     1      -2.962   4.205  25.462  0.00  0.00    +0.122 A 
ATOM     24  C   UNL     1      -2.622   5.343  24.768  0.00  0.00    +0.046 A 
ATOM     27  C   UNL     1      -1.216   5.462  24.872  0.00  0.00    +0.041 A 
ATOM     28  C   UNL     1      -0.796   4.388  25.624  0.00  0.00    +0.195 A 
ENDBRANCH  19  21
ENDBRANCH   6  19
ENDBRANCH  14  16
ENDBRANCH   8  14
TORSDOF 7
ENDMDL
MODEL 3
REMARK VINA RESULT:      -1.9      3.122      4.915
REMARK  Name = 26742923
REMARK  7 active torsions:
REMARK  status: ('A' for Active; 'I' for Inactive)
REMARK    1  A    between atoms: N_6  and  C_19
REMARK    2  A    between atoms: C_8  and  C_14
REMARK    3  A    between atoms: C_9  and  C_13
REMARK    4  A    between atoms: C_13  and  C_15
REMARK    5  A    between atoms: C_14  and  C_16
REMARK    6  A    between atoms: C_18  and  C_20
REMARK    7  A    between atoms: C_19  and  C_21
REMARK                            x       y       z     vdW  Elec       q    Type
REMARK                         _______ _______ _______ _____ _____    ______ ____
ROOT
ATOM      5  N   UNL     1      -6.554   2.952  25.183  0.00  0.00    -0.316 NA
ATOM      8  C   UNL     1      -3.672   2.482  24.756  0.00  0.00    +0.004 C 
ATOM      9  C   UNL     1      -4.730   1.360  24.631  0.00  0.00    +0.012 C 
ATOM     10  C   UNL     1      -4.350   3.840  24.509  0.00  0.00    +0.019 C 
ATOM     11  C   UNL     1      -5.969   1.647  25.496  0.00  0.00    +0.085 C 
ATOM     12  C   UNL     1      -5.594   4.038  25.373  0.00  0.00    +0.081 C 
ATOM     30  H   UNL     1      -7.365   3.110  25.781  0.00  0.00    +0.122 HD
ENDROOT
BRANCH   9  13
ATOM     13  C   UNL     1      -4.170  -0.029  24.940  0.00  0.00    +0.064 C 
BRANCH  13  15
ATOM      3  O   UNL     1      -0.606  -0.413  25.273  0.00  0.00    -0.354 OA
ATOM      7  N   UNL     1      -1.904  -0.507  25.761  0.00  0.00    -0.083 NA
ATOM     15  C   UNL     1      -2.680  -0.069  24.766  0.00  0.00    +0.085 A 
ATOM     17  C   UNL     1      -1.934   0.311  23.635  0.00  0.00    +0.076 A 
ATOM     18  C   UNL     1      -0.637   0.076  24.007  0.00  0.00    +0.167 A 
BRANCH  18  20
ATOM      1  F   UNL     1       4.309   0.668  21.529  0.00  0.00    -0.205 F 
ATOM     20  C   UNL     1       0.637   0.229  23.368  0.00  0.00    +0.020 A 
ATOM     22  C   UNL     1       0.955  -0.543  22.251  0.00  0.00    +0.014 A 
ATOM     23  C   UNL     1       1.560   1.150  23.864  0.00  0.00    +0.014 A 
ATOM     25  C   UNL     1       2.195  -0.395  21.629  0.00  0.00    +0.039 A 
ATOM     26  C   UNL     1       2.800   1.298  23.243  0.00  0.00    +0.039 A 
ATOM     29  C   UNL     1       3.118   0.526  22.126  0.00  0.00    +0.123 A 
ENDBRANCH  18  20
ENDBRANCH  13  15
ENDBRANCH   9  13
BRANCH   8  14
ATOM     14  C   UNL     1      -2.920   2.483  26.092  0.00  0.00    +0.099 C 
BRANCH  14  16
ATOM      2  O   UNL     1      -1.368   4.201  25.391  0.00  0.00    -0.276 OA
ATOM      6  N   UNL     1      -0.589   2.400  26.633  0.00  0.00    -0.308 N 
ATOM     16  C   UNL     1      -1.562   3.144  25.983  0.00  0.00    +0.214 C 
ATOM     31  H   UNL     1      -0.849   1.525  27.081  0.00  0.00    +0.149 HD
BRANCH   6  19
ATOM     19  C   UNL     1       0.800   2.793  26.689  0.00  0.00    +0.178 C 
BRANCH  19  21
ATOM      4  O   UNL     1       2.702   2.892  28.201  0.00  0.00    -0.466 OA
ATOM     21  C   UNL     1       1.374   2.634  28.068  0.00  0.00    +0.122 A 
ATOM     24  C   UNL     1       0.830   2.269  29.277  0.00  0.00    +0.046 A 
ATOM     27  C   UNL     1       1.890   2.305  30.213  0.00  0.00    +0.041 A 
ATOM     28  C   UNL     1       3.009   2.690  29.509  0.00  0.00    +0.195 A 
ENDBRANCH  19  21
ENDBRANCH   6  19
ENDBRANCH  14  16
ENDBRANCH   8  14
TORSDOF 7
ENDMDL
MODEL 4
REMARK VINA RESULT:      -1.6      2.928      4.692
REMARK  Name = 26742923
REMARK  7 active torsions:
REMARK  status: ('A' for Active; 'I' for Inactive)
REMARK    1  A    between atoms: N_6  and  C_19
REMARK    2  A    between atoms: C_8  and  C_14
REMARK    3  A    between atoms: C_9  and  C_13
REMARK    4  A    between atoms: C_13  and  C_15
REMARK    5  A    between atoms: C_14  and  C_16
REMARK    6  A    between atoms: C_18  and  C_20
REMARK    7  A    between atoms: C_19  and  C_21
REMARK                            x       y       z     vdW  Elec       q    Type
REMARK                         _______ _______ _______ _____ _____    ______ ____
ROOT
ATOM      5  N   UNL     1      -6.368   1.981  25.001  0.00  0.00    -0.316 NA
ATOM      8  C   UNL     1      -3.497   2.558  24.640  0.00  0.00    +0.004 C 
ATOM      9  C   UNL     1      -4.083   1.130  24.531  0.00  0.00    +0.012 C 
ATOM     10  C   UNL     1      -4.605   3.580  24.339  0.00  0.00    +0.019 C 
ATOM     11  C   UNL     1      -5.366   0.977  25.365  0.00  0.00    +0.085 C 
ATOM     12  C   UNL     1      -5.862   3.341  25.174  0.00  0.00    +0.081 C 
ATOM     30  H   UNL     1      -7.197   1.853  25.580  0.00  0.00    +0.122 HD
ENDROOT
BRANCH   9  13
ATOM     13  C   UNL     1      -3.075   0.039  24.892  0.00  0.00    +0.064 C 
BRANCH  13  15
ATOM      3  O   UNL     1      -0.339   1.045  22.779  0.00  0.00    -0.354 OA
ATOM      7  N   UNL     1      -1.683   1.043  23.134  0.00  0.00    -0.083 NA
ATOM     15  C   UNL     1      -1.752   0.272  24.222  0.00  0.00    +0.085 A 
ATOM     17  C   UNL     1      -0.495  -0.234  24.599  0.00  0.00    +0.076 A 
ATOM     18  C   UNL     1       0.358   0.282  23.659  0.00  0.00    +0.167 A 
BRANCH  18  20
ATOM      1  F   UNL     1       5.832  -0.074  22.735  0.00  0.00    -0.205 F 
ATOM     20  C   UNL     1       1.769   0.190  23.420  0.00  0.00    +0.020 A 
ATOM     22  C   UNL     1       2.434  -1.019  23.624  0.00  0.00    +0.014 A 
ATOM     23  C   UNL     1       2.477   1.310  22.985  0.00  0.00    +0.014 A 
ATOM     25  C   UNL     1       3.806  -1.109  23.392  0.00  0.00    +0.039 A 
ATOM     26  C   UNL     1       3.849   1.221  22.753  0.00  0.00    +0.039 A 
ATOM     29  C   UNL     1       4.514   0.012  22.956  0.00  0.00    +0.123 A 
ENDBRANCH  18  20
ENDBRANCH  13  15
ENDBRANCH   9  13
BRANCH   8  14
ATOM     14  C   UNL     1      -2.830   2.857  25.987  0.00  0.00    +0.099 C 
BRANCH  14  16
ATOM      2  O   UNL     1      -1.083   4.290  25.124  0.00  0.00    -0.276 OA
ATOM      6  N   UNL     1      -0.526   2.556  26.567  0.00  0.00    -0.308 N 
ATOM     16  C   UNL     1      -1.403   3.335  25.826  0.00  0.00    +0.214 C 
ATOM     31  H   UNL     1      -0.890   1.774  27.104  0.00  0.00    +0.149 HD
BRANCH   6  19
ATOM     19  C   UNL     1       0.900   2.785  26.600  0.00  0.00    +0.178 C 
BRANCH  19  21
ATOM      4  O   UNL     1       0.584   2.297  28.960  0.00  0.00    -0.466 OA
ATOM     21  C   UNL     1       1.453   2.688  27.992  0.00  0.00    +0.122 A 
ATOM     24  C   UNL     1       2.700   2.919  28.527  0.00  0.00    +0.046 A 
ATOM     27  C   UNL     1       2.589   2.652  29.912  0.00  0.00    +0.041 A 
ATOM     28  C   UNL     1       1.282   2.277  30.126  0.00  0.00    +0.195 A 
ENDBRANCH  19  21
ENDBRANCH   6  19
ENDBRANCH  14  16
ENDBRANCH   8  14
TORSDOF 7
ENDMDL
MODEL 5
REMARK VINA RESULT:       0.7      3.466      6.829
REMARK  Name = 26742923
REMARK  7 active torsions:
REMARK  status: ('A' for Active; 'I' for Inactive)
REMARK    1  A    between atoms: N_6  and  C_19
REMARK    2  A    between atoms: C_8  and  C_14
REMARK    3  A    between atoms: C_9  and  C_13
REMARK    4  A    between atoms: C_13  and  C_15
REMARK    5  A    between atoms: C_14  and  C_16
REMARK    6  A    between atoms: C_18  and  C_20
REMARK    7  A    between atoms: C_19  and  C_21
REMARK                            x       y       z     vdW  Elec       q    Type
REMARK                         _______ _______ _______ _____ _____    ______ ____
ROOT
ATOM      5  N   UNL     1       2.884   0.100  21.194  0.00  0.00    -0.316 NA
ATOM      8  C   UNL     1       0.580   0.097  23.036  0.00  0.00    +0.004 C 
ATOM      9  C   UNL     1       1.695   1.168  23.094  0.00  0.00    +0.012 C 
ATOM     10  C   UNL     1       0.524  -0.494  21.618  0.00  0.00    +0.019 C 
ATOM     11  C   UNL     1       3.029   0.629  22.551  0.00  0.00    +0.085 C 
ATOM     12  C   UNL     1       1.891  -0.971  21.131  0.00  0.00    +0.081 C 
ATOM     30  H   UNL     1       3.784  -0.255  20.873  0.00  0.00    +0.122 HD
ENDROOT
BRANCH   9  13
ATOM     13  C   UNL     1       1.884   1.762  24.490  0.00  0.00    +0.064 C 
BRANCH  13  15
ATOM      3  O   UNL     1      -0.848   2.874  26.553  0.00  0.00    -0.354 OA
ATOM      7  N   UNL     1       0.453   2.420  26.376  0.00  0.00    -0.083 NA
ATOM     15  C   UNL     1       0.584   2.252  25.057  0.00  0.00    +0.085 A 
ATOM     17  C   UNL     1      -0.591   2.582  24.357  0.00  0.00    +0.076 A 
ATOM     18  C   UNL     1      -1.460   2.966  25.344  0.00  0.00    +0.167 A 
BRANCH  18  20
ATOM      1  F   UNL     1      -6.728   4.751  25.437  0.00  0.00    -0.205 F 
ATOM     20  C   UNL     1      -2.818   3.426  25.368  0.00  0.00    +0.020 A 
ATOM     22  C   UNL     1      -3.524   3.577  24.175  0.00  0.00    +0.014 A 
ATOM     23  C   UNL     1      -3.433   3.721  26.585  0.00  0.00    +0.014 A 
ATOM     25  C   UNL     1      -4.845   4.025  24.198  0.00  0.00    +0.039 A 
ATOM     26  C   UNL     1      -4.754   4.169  26.608  0.00  0.00    +0.039 A 
ATOM     29  C   UNL     1      -5.460   4.320  25.415  0.00  0.00    +0.123 A 
ENDBRANCH  18  20
ENDBRANCH  13  15
ENDBRANCH   9  13
BRANCH   8  14
ATOM     14  C   UNL     1       0.725  -1.011  24.085  0.00  0.00    +0.099 C 
BRANCH  14  16
ATOM      2  O   UNL     1      -0.748  -0.727  25.982  0.00  0.00    -0.276 OA
ATOM      6  N   UNL     1      -1.436  -2.035  24.190  0.00  0.00    -0.308 N 
ATOM     16  C   UNL     1      -0.548  -1.221  24.877  0.00  0.00    +0.214 C 
ATOM     31  H   UNL     1      -1.169  -2.410  23.284  0.00  0.00    +0.149 HD
BRANCH   6  19
ATOM     19  C   UNL     1      -2.732  -2.405  24.711  0.00  0.00    +0.178 C 
BRANCH  19  21
ATOM      4  O   UNL     1      -3.922  -0.712  25.986  0.00  0.00    -0.466 OA
ATOM     21  C   UNL     1      -3.674  -1.236  24.757  0.00  0.00    +0.122 A 
ATOM     24  C   UNL     1      -4.371  -0.551  23.790  0.00  0.00    +0.046 A 
ATOM     27  C   UNL     1      -5.093   0.460  24.467  0.00  0.00    +0.041 A 
ATOM     28  C   UNL     1      -4.786   0.321  25.801  0.00  0.00    +0.195 A 
ENDBRANCH  19  21
ENDBRANCH   6  19
ENDBRANCH  14  16
ENDBRANCH   8  14
TORSDOF 7
ENDMDL
