MODEL 1
REMARK VINA RESULT:      -6.8      0.000      0.000
REMARK  Name = 75367679
REMARK  3 active torsions:
REMARK  status: ('A' for Active; 'I' for Inactive)
REMARK    1  A    between atoms: O_3  and  C_6
REMARK    2  A    between atoms: O_3  and  C_13
REMARK    3  A    between atoms: C_11  and  C_12
REMARK                            x       y       z     vdW  Elec       q    Type
REMARK                         _______ _______ _______ _____ _____    ______ ____
ROOT
ATOM      2  O   UNL     1       1.237  -0.525  23.300  0.00  0.00    -0.375 OA
ATOM      4  O   UNL     1      -0.270   4.047  23.661  0.00  0.00    -0.270 OA
ATOM      5  N   UNL     1      -0.169   1.926  24.655  0.00  0.00    -0.292 N 
ATOM      6  C   UNL     1      -0.273  -0.562  25.217  0.00  0.00    +0.216 C 
ATOM      7  C   UNL     1      -0.854   0.845  25.374  0.00  0.00    +0.155 C 
ATOM      8  C   UNL     1       1.227   1.725  24.265  0.00  0.00    +0.136 C 
ATOM      9  C   UNL     1      -0.040  -0.957  23.759  0.00  0.00    +0.206 C 
ATOM     10  C   UNL     1       1.327   0.866  23.011  0.00  0.00    +0.179 C 
ATOM     11  C   UNL     1      -0.796   3.129  24.291  0.00  0.00    +0.247 C 
ENDROOT
BRANCH  11  12
ATOM      1  F   UNL     1      -6.138   3.897  25.789  0.00  0.00    -0.205 F 
ATOM     12  C   UNL     1      -2.199   3.332  24.684  0.00  0.00    +0.037 A 
ATOM     14  C   UNL     1      -3.227   2.871  23.861  0.00  0.00    +0.016 A 
ATOM     15  C   UNL     1      -2.502   3.983  25.880  0.00  0.00    +0.016 A 
ATOM     18  C   UNL     1      -4.557   3.062  24.234  0.00  0.00    +0.039 A 
ATOM     19  C   UNL     1      -3.833   4.174  26.253  0.00  0.00    +0.039 A 
ATOM     22  C   UNL     1      -4.861   3.714  25.430  0.00  0.00    +0.123 A 
ENDBRANCH  11  12
BRANCH   6   3
ATOM      3  O   UNL     1      -1.215  -1.464  25.798  0.00  0.00    -0.485 OA
BRANCH   3  13
ATOM     13  C   UNL     1      -2.390  -1.641  25.120  0.00  0.00    +0.121 A 
ATOM     16  C   UNL     1      -2.693  -2.882  24.560  0.00  0.00    +0.045 A 
ATOM     17  C   UNL     1      -3.286  -0.579  24.989  0.00  0.00    +0.045 A 
ATOM     20  C   UNL     1      -3.892  -3.061  23.869  0.00  0.00    +0.004 A 
ATOM     21  C   UNL     1      -4.484  -0.759  24.298  0.00  0.00    +0.004 A 
ATOM     23  C   UNL     1      -4.787  -1.999  23.738  0.00  0.00    +0.000 A 
ENDBRANCH   3  13
ENDBRANCH   6   3
TORSDOF 3
ENDMDL
MODEL 2
REMARK VINA RESULT:      -6.4      2.156      4.451
REMARK  Name = 75367679
REMARK  3 active torsions:
REMARK  status: ('A' for Active; 'I' for Inactive)
REMARK    1  A    between atoms: O_3  and  C_6
REMARK    2  A    between atoms: O_3  and  C_13
REMARK    3  A    between atoms: C_11  and  C_12
REMARK                            x       y       z     vdW  Elec       q    Type
REMARK                         _______ _______ _______ _____ _____    ______ ____
ROOT
ATOM      2  O   UNL     1      -3.746  -2.872  23.854  0.00  0.00    -0.375 OA
ATOM      4  O   UNL     1       0.551  -0.808  24.615  0.00  0.00    -0.270 OA
ATOM      5  N   UNL     1      -1.729  -0.859  25.158  0.00  0.00    -0.292 N 
ATOM      6  C   UNL     1      -4.282  -0.884  25.163  0.00  0.00    +0.216 C 
ATOM      7  C   UNL     1      -2.975  -0.124  25.404  0.00  0.00    +0.155 C 
ATOM      8  C   UNL     1      -1.768  -2.322  25.187  0.00  0.00    +0.136 C 
ATOM      9  C   UNL     1      -4.333  -1.576  23.802  0.00  0.00    +0.206 C 
ATOM     10  C   UNL     1      -2.323  -2.881  23.883  0.00  0.00    +0.179 C 
ATOM     11  C   UNL     1      -0.508  -0.231  24.859  0.00  0.00    +0.247 C 
ENDROOT
BRANCH  11  12
ATOM      1  F   UNL     1      -0.362   5.367  24.750  0.00  0.00    -0.205 F 
ATOM     12  C   UNL     1      -0.469   1.239  24.830  0.00  0.00    +0.037 A 
ATOM     14  C   UNL     1      -0.331   1.910  23.615  0.00  0.00    +0.016 A 
ATOM     15  C   UNL     1      -0.571   1.964  26.019  0.00  0.00    +0.016 A 
ATOM     18  C   UNL     1      -0.294   3.304  23.587  0.00  0.00    +0.039 A 
ATOM     19  C   UNL     1      -0.535   3.358  25.991  0.00  0.00    +0.039 A 
ATOM     22  C   UNL     1      -0.397   4.028  24.775  0.00  0.00    +0.123 A 
ENDBRANCH  11  12
BRANCH   6   3
ATOM      3  O   UNL     1      -5.336   0.076  25.237  0.00  0.00    -0.485 OA
BRANCH   3  13
ATOM     13  C   UNL     1      -4.988   1.383  25.035  0.00  0.00    +0.121 A 
ATOM     16  C   UNL     1      -4.193   1.733  23.943  0.00  0.00    +0.045 A 
ATOM     17  C   UNL     1      -5.428   2.367  25.921  0.00  0.00    +0.045 A 
ATOM     20  C   UNL     1      -3.837   3.067  23.738  0.00  0.00    +0.004 A 
ATOM     21  C   UNL     1      -5.072   3.701  25.715  0.00  0.00    +0.004 A 
ATOM     23  C   UNL     1      -4.277   4.049  24.624  0.00  0.00    +0.000 A 
ENDBRANCH   3  13
ENDBRANCH   6   3
TORSDOF 3
ENDMDL
MODEL 3
REMARK VINA RESULT:      -6.1      1.746      4.420
REMARK  Name = 75367679
REMARK  3 active torsions:
REMARK  status: ('A' for Active; 'I' for Inactive)
REMARK    1  A    between atoms: O_3  and  C_6
REMARK    2  A    between atoms: O_3  and  C_13
REMARK    3  A    between atoms: C_11  and  C_12
REMARK                            x       y       z     vdW  Elec       q    Type
REMARK                         _______ _______ _______ _____ _____    ______ ____
ROOT
ATOM      2  O   UNL     1      -0.496  -2.147  25.280  0.00  0.00    -0.375 OA
ATOM      4  O   UNL     1      -5.061  -1.025  24.184  0.00  0.00    -0.270 OA
ATOM      5  N   UNL     1      -2.806  -0.391  24.096  0.00  0.00    -0.292 N 
ATOM      6  C   UNL     1      -0.367   0.188  24.579  0.00  0.00    +0.216 C 
ATOM      7  C   UNL     1      -1.791   0.655  24.267  0.00  0.00    +0.155 C 
ATOM      8  C   UNL     1      -2.361  -1.741  23.747  0.00  0.00    +0.136 C 
ATOM      9  C   UNL     1      -0.302  -0.810  25.733  0.00  0.00    +0.206 C 
ATOM     10  C   UNL     1      -1.845  -2.481  24.974  0.00  0.00    +0.179 C 
ATOM     11  C   UNL     1      -4.181  -0.171  24.286  0.00  0.00    +0.247 C 
ENDROOT
BRANCH  11  12
ATOM      1  F   UNL     1      -5.882   4.996  25.618  0.00  0.00    -0.205 F 
ATOM     12  C   UNL     1      -4.628   1.186  24.635  0.00  0.00    +0.037 A 
ATOM     14  C   UNL     1      -5.465   1.383  25.734  0.00  0.00    +0.016 A 
ATOM     15  C   UNL     1      -4.216   2.276  23.868  0.00  0.00    +0.016 A 
ATOM     18  C   UNL     1      -5.888   2.670  26.067  0.00  0.00    +0.039 A 
ATOM     19  C   UNL     1      -4.640   3.563  24.201  0.00  0.00    +0.039 A 
ATOM     22  C   UNL     1      -5.476   3.760  25.300  0.00  0.00    +0.123 A 
ENDBRANCH  11  12
BRANCH   6   3
ATOM      3  O   UNL     1       0.381   1.352  24.928  0.00  0.00    -0.485 OA
BRANCH   3  13
ATOM     13  C   UNL     1      -0.327   2.513  25.071  0.00  0.00    +0.121 A 
ATOM     16  C   UNL     1      -1.238   2.651  26.119  0.00  0.00    +0.045 A 
ATOM     17  C   UNL     1      -0.139   3.562  24.169  0.00  0.00    +0.045 A 
ATOM     20  C   UNL     1      -1.961   3.835  26.264  0.00  0.00    +0.004 A 
ATOM     21  C   UNL     1      -0.861   4.746  24.315  0.00  0.00    +0.004 A 
ATOM     23  C   UNL     1      -1.772   4.882  25.363  0.00  0.00    +0.000 A 
ENDBRANCH   3  13
ENDBRANCH   6   3
TORSDOF 3
ENDMDL
MODEL 4
REMARK VINA RESULT:      -5.6      2.575      5.216
REMARK  Name = 75367679
REMARK  3 active torsions:
REMARK  status: ('A' for Active; 'I' for Inactive)
REMARK    1  A    between atoms: O_3  and  C_6
REMARK    2  A    between atoms: O_3  and  C_13
REMARK    3  A    between atoms: C_11  and  C_12
REMARK                            x       y       z     vdW  Elec       q    Type
REMARK                         _______ _______ _______ _____ _____    ______ ____
ROOT
ATOM      2  O   UNL     1      -2.379   5.088  24.626  0.00  0.00    -0.375 OA
ATOM      4  O   UNL     1      -5.870   1.765  24.909  0.00  0.00    -0.270 OA
ATOM      5  N   UNL     1      -3.715   2.414  25.566  0.00  0.00    -0.292 N 
ATOM      6  C   UNL     1      -1.286   3.189  25.701  0.00  0.00    +0.216 C 
ATOM      7  C   UNL     1      -2.309   2.052  25.779  0.00  0.00    +0.155 C 
ATOM      8  C   UNL     1      -4.115   3.805  25.780  0.00  0.00    +0.136 C 
ATOM      9  C   UNL     1      -1.431   4.042  24.441  0.00  0.00    +0.206 C 
ATOM     10  C   UNL     1      -3.740   4.673  24.586  0.00  0.00    +0.179 C 
ATOM     11  C   UNL     1      -4.689   1.499  25.131  0.00  0.00    +0.247 C 
ENDROOT
BRANCH  11  12
ATOM      1  F   UNL     1      -3.153  -3.825  24.313  0.00  0.00    -0.205 F 
ATOM     12  C   UNL     1      -4.286   0.100  24.916  0.00  0.00    +0.037 A 
ATOM     14  C   UNL     1      -4.338  -0.451  23.636  0.00  0.00    +0.016 A 
ATOM     15  C   UNL     1      -3.853  -0.675  25.992  0.00  0.00    +0.016 A 
ATOM     18  C   UNL     1      -3.955  -1.777  23.432  0.00  0.00    +0.039 A 
ATOM     19  C   UNL     1      -3.470  -2.000  25.788  0.00  0.00    +0.039 A 
ATOM     22  C   UNL     1      -3.521  -2.552  24.508  0.00  0.00    +0.123 A 
ENDBRANCH  11  12
BRANCH   6   3
ATOM      3  O   UNL     1       0.006   2.582  25.706  0.00  0.00    -0.485 OA
BRANCH   3  13
ATOM     13  C   UNL     1       0.177   1.502  24.884  0.00  0.00    +0.121 A 
ATOM     16  C   UNL     1      -0.536   0.326  25.120  0.00  0.00    +0.045 A 
ATOM     17  C   UNL     1       1.065   1.576  23.810  0.00  0.00    +0.045 A 
ATOM     20  C   UNL     1      -0.361  -0.776  24.282  0.00  0.00    +0.004 A 
ATOM     21  C   UNL     1       1.239   0.474  22.973  0.00  0.00    +0.004 A 
ATOM     23  C   UNL     1       0.527  -0.701  23.209  0.00  0.00    +0.000 A 
ENDBRANCH   3  13
ENDBRANCH   6   3
TORSDOF 3
ENDMDL
MODEL 5
REMARK VINA RESULT:      -4.8      2.090      5.061
REMARK  Name = 75367679
REMARK  3 active torsions:
REMARK  status: ('A' for Active; 'I' for Inactive)
REMARK    1  A    between atoms: O_3  and  C_6
REMARK    2  A    between atoms: O_3  and  C_13
REMARK    3  A    between atoms: C_11  and  C_12
REMARK                            x       y       z     vdW  Elec       q    Type
REMARK                         _______ _______ _______ _____ _____    ______ ____
ROOT
ATOM      2  O   UNL     1      -0.214   3.685  25.774  0.00  0.00    -0.375 OA
ATOM      4  O   UNL     1       0.247  -1.068  25.060  0.00  0.00    -0.270 OA
ATOM      5  N   UNL     1      -0.694   0.949  24.323  0.00  0.00    -0.292 N 
ATOM      6  C   UNL     1      -1.898   3.186  24.080  0.00  0.00    +0.216 C 
ATOM      7  C   UNL     1      -1.869   1.676  23.830  0.00  0.00    +0.155 C 
ATOM      8  C   UNL     1       0.541   1.699  24.556  0.00  0.00    +0.136 C 
ATOM      9  C   UNL     1      -1.612   3.561  25.533  0.00  0.00    +0.206 C 
ATOM     10  C   UNL     1       0.484   2.448  25.881  0.00  0.00    +0.179 C 
ATOM     11  C   UNL     1      -0.704  -0.425  24.616  0.00  0.00    +0.247 C 
ENDROOT
BRANCH  11  12
ATOM      1  F   UNL     1      -5.428  -3.297  23.716  0.00  0.00    -0.205 F 
ATOM     12  C   UNL     1      -1.945  -1.180  24.380  0.00  0.00    +0.037 A 
ATOM     14  C   UNL     1      -3.141  -0.500  24.149  0.00  0.00    +0.016 A 
ATOM     15  C   UNL     1      -1.926  -2.575  24.388  0.00  0.00    +0.016 A 
ATOM     18  C   UNL     1      -4.317  -1.214  23.924  0.00  0.00    +0.039 A 
ATOM     19  C   UNL     1      -3.103  -3.290  24.163  0.00  0.00    +0.039 A 
ATOM     22  C   UNL     1      -4.299  -2.610  23.932  0.00  0.00    +0.123 A 
ENDBRANCH  11  12
BRANCH   6   3
ATOM      3  O   UNL     1      -3.208   3.636  23.733  0.00  0.00    -0.485 OA
BRANCH   3  13
ATOM     13  C   UNL     1      -4.237   3.174  24.506  0.00  0.00    +0.121 A 
ATOM     16  C   UNL     1      -4.437   3.692  25.786  0.00  0.00    +0.045 A 
ATOM     17  C   UNL     1      -5.089   2.183  24.015  0.00  0.00    +0.045 A 
ATOM     20  C   UNL     1      -5.487   3.220  26.574  0.00  0.00    +0.004 A 
ATOM     21  C   UNL     1      -6.138   1.711  24.803  0.00  0.00    +0.004 A 
ATOM     23  C   UNL     1      -6.337   2.229  26.083  0.00  0.00    +0.000 A 
ENDBRANCH   3  13
ENDBRANCH   6   3
TORSDOF 3
ENDMDL
MODEL 6
REMARK VINA RESULT:      -4.6      2.847      4.895
REMARK  Name = 75367679
REMARK  3 active torsions:
REMARK  status: ('A' for Active; 'I' for Inactive)
REMARK    1  A    between atoms: O_3  and  C_6
REMARK    2  A    between atoms: O_3  and  C_13
REMARK    3  A    between atoms: C_11  and  C_12
REMARK                            x       y       z     vdW  Elec       q    Type
REMARK                         _______ _______ _______ _____ _____    ______ ____
ROOT
ATOM      2  O   UNL     1      -5.753   3.083  26.303  0.00  0.00    -0.375 OA
ATOM      4  O   UNL     1      -1.314   4.393  24.930  0.00  0.00    -0.270 OA
ATOM      5  N   UNL     1      -3.217   3.107  24.462  0.00  0.00    -0.292 N 
ATOM      6  C   UNL     1      -5.216   1.520  24.507  0.00  0.00    +0.216 C 
ATOM      7  C   UNL     1      -3.788   1.821  24.044  0.00  0.00    +0.155 C 
ATOM      8  C   UNL     1      -4.133   4.186  24.836  0.00  0.00    +0.136 C 
ATOM      9  C   UNL     1      -5.419   1.730  26.006  0.00  0.00    +0.206 C 
ATOM     10  C   UNL     1      -4.658   3.991  26.252  0.00  0.00    +0.179 C 
ATOM     11  C   UNL     1      -1.835   3.343  24.555  0.00  0.00    +0.247 C 
ENDROOT
BRANCH  11  12
ATOM      1  F   UNL     1       1.668  -0.785  23.122  0.00  0.00    -0.205 F 
ATOM     12  C   UNL     1      -0.915   2.259  24.178  0.00  0.00    +0.037 A 
ATOM     14  C   UNL     1       0.463   2.466  24.226  0.00  0.00    +0.016 A 
ATOM     15  C   UNL     1      -1.421   1.023  23.773  0.00  0.00    +0.016 A 
ATOM     18  C   UNL     1       1.336   1.439  23.870  0.00  0.00    +0.039 A 
ATOM     19  C   UNL     1      -0.548  -0.004  23.416  0.00  0.00    +0.039 A 
ATOM     22  C   UNL     1       0.831   0.203  23.464  0.00  0.00    +0.123 A 
ENDBRANCH  11  12
BRANCH   6   3
ATOM      3  O   UNL     1      -5.472   0.151  24.190  0.00  0.00    -0.485 OA
BRANCH   3  13
ATOM     13  C   UNL     1      -4.502  -0.747  24.538  0.00  0.00    +0.121 A 
ATOM     16  C   UNL     1      -4.225  -1.833  23.706  0.00  0.00    +0.045 A 
ATOM     17  C   UNL     1      -3.787  -0.579  25.725  0.00  0.00    +0.045 A 
ATOM     20  C   UNL     1      -3.235  -2.750  24.061  0.00  0.00    +0.004 A 
ATOM     21  C   UNL     1      -2.798  -1.496  26.079  0.00  0.00    +0.004 A 
ATOM     23  C   UNL     1      -2.522  -2.581  25.248  0.00  0.00    +0.000 A 
ENDBRANCH   3  13
ENDBRANCH   6   3
TORSDOF 3
ENDMDL
MODEL 7
REMARK VINA RESULT:      -4.0      2.318      4.906
REMARK  Name = 75367679
REMARK  3 active torsions:
REMARK  status: ('A' for Active; 'I' for Inactive)
REMARK    1  A    between atoms: O_3  and  C_6
REMARK    2  A    between atoms: O_3  and  C_13
REMARK    3  A    between atoms: C_11  and  C_12
REMARK                            x       y       z     vdW  Elec       q    Type
REMARK                         _______ _______ _______ _____ _____    ______ ____
ROOT
ATOM      2  O   UNL     1      -1.405   5.294  24.978  0.00  0.00    -0.375 OA
ATOM      4  O   UNL     1       0.839   1.019  24.990  0.00  0.00    -0.270 OA
ATOM      5  N   UNL     1      -0.910   2.319  24.125  0.00  0.00    -0.292 N 
ATOM      6  C   UNL     1      -2.930   3.834  23.753  0.00  0.00    +0.216 C 
ATOM      7  C   UNL     1      -2.326   2.427  23.757  0.00  0.00    +0.155 C 
ATOM      8  C   UNL     1      -0.062   3.504  23.984  0.00  0.00    +0.136 C 
ATOM      9  C   UNL     1      -2.654   4.611  25.039  0.00  0.00    +0.206 C 
ATOM     10  C   UNL     1      -0.263   4.462  25.151  0.00  0.00    +0.179 C 
ATOM     11  C   UNL     1      -0.334   1.145  24.639  0.00  0.00    +0.247 C 
ENDROOT
BRANCH  11  12
ATOM      1  F   UNL     1      -3.576  -3.391  25.175  0.00  0.00    -0.205 F 
ATOM     12  C   UNL     1      -1.186  -0.046  24.780  0.00  0.00    +0.037 A 
ATOM     14  C   UNL     1      -0.928  -1.182  24.012  0.00  0.00    +0.016 A 
ATOM     15  C   UNL     1      -2.251  -0.041  25.681  0.00  0.00    +0.016 A 
ATOM     18  C   UNL     1      -1.735  -2.312  24.145  0.00  0.00    +0.039 A 
ATOM     19  C   UNL     1      -3.058  -1.170  25.814  0.00  0.00    +0.039 A 
ATOM     22  C   UNL     1      -2.800  -2.306  25.046  0.00  0.00    +0.123 A 
ENDBRANCH  11  12
BRANCH   6   3
ATOM      3  O   UNL     1      -4.341   3.676  23.598  0.00  0.00    -0.485 OA
BRANCH   3  13
ATOM     13  C   UNL     1      -4.972   2.890  24.522  0.00  0.00    +0.121 A 
ATOM     16  C   UNL     1      -5.111   1.520  24.294  0.00  0.00    +0.045 A 
ATOM     17  C   UNL     1      -5.478   3.457  25.693  0.00  0.00    +0.045 A 
ATOM     20  C   UNL     1      -5.756   0.718  25.237  0.00  0.00    +0.004 A 
ATOM     21  C   UNL     1      -6.122   2.654  26.635  0.00  0.00    +0.004 A 
ATOM     23  C   UNL     1      -6.261   1.285  26.406  0.00  0.00    +0.000 A 
ENDBRANCH   3  13
ENDBRANCH   6   3
TORSDOF 3
ENDMDL
MODEL 8
REMARK VINA RESULT:      -3.8      1.332      1.833
REMARK  Name = 75367679
REMARK  3 active torsions:
REMARK  status: ('A' for Active; 'I' for Inactive)
REMARK    1  A    between atoms: O_3  and  C_6
REMARK    2  A    between atoms: O_3  and  C_13
REMARK    3  A    between atoms: C_11  and  C_12
REMARK                            x       y       z     vdW  Elec       q    Type
REMARK                         _______ _______ _______ _____ _____    ______ ____
ROOT
ATOM      2  O   UNL     1       1.569   1.473  23.641  0.00  0.00    -0.375 OA
ATOM      4  O   UNL     1      -1.827   4.706  24.792  0.00  0.00    -0.270 OA
ATOM      5  N   UNL     1      -0.952   2.562  25.153  0.00  0.00    -0.292 N 
ATOM      6  C   UNL     1      -0.034   0.187  24.958  0.00  0.00    +0.216 C 
ATOM      7  C   UNL     1      -1.190   1.123  25.320  0.00  0.00    +0.155 C 
ATOM      8  C   UNL     1       0.432   3.040  25.140  0.00  0.00    +0.136 C 
ATOM      9  C   UNL     1       0.559   0.471  23.579  0.00  0.00    +0.206 C 
ATOM     10  C   UNL     1       1.080   2.803  23.782  0.00  0.00    +0.179 C 
ATOM     11  C   UNL     1      -1.983   3.498  24.968  0.00  0.00    +0.247 C 
ENDROOT
BRANCH  11  12
ATOM      1  F   UNL     1      -7.276   1.669  25.019  0.00  0.00    -0.205 F 
ATOM     12  C   UNL     1      -3.373   3.017  24.982  0.00  0.00    +0.037 A 
ATOM     14  C   UNL     1      -4.207   3.326  26.056  0.00  0.00    +0.016 A 
ATOM     15  C   UNL     1      -3.858   2.252  23.920  0.00  0.00    +0.016 A 
ATOM     18  C   UNL     1      -5.525   2.871  26.069  0.00  0.00    +0.039 A 
ATOM     19  C   UNL     1      -5.176   1.797  23.933  0.00  0.00    +0.039 A 
ATOM     22  C   UNL     1      -6.010   2.106  25.008  0.00  0.00    +0.123 A 
ENDBRANCH  11  12
BRANCH   6   3
ATOM      3  O   UNL     1      -0.558  -1.140  24.974  0.00  0.00    -0.485 OA
BRANCH   3  13
ATOM     13  C   UNL     1      -1.916  -1.262  24.870  0.00  0.00    +0.121 A 
ATOM     16  C   UNL     1      -2.488  -1.721  23.682  0.00  0.00    +0.045 A 
ATOM     17  C   UNL     1      -2.732  -0.927  25.952  0.00  0.00    +0.045 A 
ATOM     20  C   UNL     1      -3.873  -1.845  23.577  0.00  0.00    +0.004 A 
ATOM     21  C   UNL     1      -4.118  -1.052  25.846  0.00  0.00    +0.004 A 
ATOM     23  C   UNL     1      -4.688  -1.510  24.658  0.00  0.00    +0.000 A 
ENDBRANCH   3  13
ENDBRANCH   6   3
TORSDOF 3
ENDMDL
MODEL 9
REMARK VINA RESULT:      -3.8      2.729      4.881
REMARK  Name = 75367679
REMARK  3 active torsions:
REMARK  status: ('A' for Active; 'I' for Inactive)
REMARK    1  A    between atoms: O_3  and  C_6
REMARK    2  A    between atoms: O_3  and  C_13
REMARK    3  A    between atoms: C_11  and  C_12
REMARK                            x       y       z     vdW  Elec       q    Type
REMARK                         _______ _______ _______ _____ _____    ______ ____
ROOT
ATOM      2  O   UNL     1      -5.207   4.251  25.598  0.00  0.00    -0.375 OA
ATOM      4  O   UNL     1      -0.556   3.782  24.391  0.00  0.00    -0.270 OA
ATOM      5  N   UNL     1      -2.740   2.962  24.157  0.00  0.00    -0.292 N 
ATOM      6  C   UNL     1      -5.110   2.077  24.493  0.00  0.00    +0.216 C 
ATOM      7  C   UNL     1      -3.649   1.810  24.125  0.00  0.00    +0.155 C 
ATOM      8  C   UNL     1      -3.314   4.304  24.046  0.00  0.00    +0.136 C 
ATOM      9  C   UNL     1      -5.270   2.843  25.805  0.00  0.00    +0.206 C 
ATOM     10  C   UNL     1      -3.897   4.762  25.377  0.00  0.00    +0.179 C 
ATOM     11  C   UNL     1      -1.350   2.844  24.326  0.00  0.00    +0.247 C 
ENDROOT
BRANCH  11  12
ATOM      1  F   UNL     1       0.849  -2.290  24.748  0.00  0.00    -0.205 F 
ATOM     12  C   UNL     1      -0.773   1.495  24.436  0.00  0.00    +0.037 A 
ATOM     14  C   UNL     1      -0.054   0.955  23.370  0.00  0.00    +0.016 A 
ATOM     15  C   UNL     1      -0.944   0.756  25.608  0.00  0.00    +0.016 A 
ATOM     18  C   UNL     1       0.494  -0.323  23.475  0.00  0.00    +0.039 A 
ATOM     19  C   UNL     1      -0.396  -0.522  25.712  0.00  0.00    +0.039 A 
ATOM     22  C   UNL     1       0.323  -1.063  24.646  0.00  0.00    +0.123 A 
ENDBRANCH  11  12
BRANCH   6   3
ATOM      3  O   UNL     1      -5.742   0.803  24.619  0.00  0.00    -0.485 OA
BRANCH   3  13
ATOM     13  C   UNL     1      -4.916  -0.277  24.765  0.00  0.00    +0.121 A 
ATOM     16  C   UNL     1      -4.261  -0.496  25.978  0.00  0.00    +0.045 A 
ATOM     17  C   UNL     1      -4.728  -1.162  23.702  0.00  0.00    +0.045 A 
ATOM     20  C   UNL     1      -3.417  -1.597  26.126  0.00  0.00    +0.004 A 
ATOM     21  C   UNL     1      -3.885  -2.263  23.851  0.00  0.00    +0.004 A 
ATOM     23  C   UNL     1      -3.230  -2.480  25.063  0.00  0.00    +0.000 A 
ENDBRANCH   3  13
ENDBRANCH   6   3
TORSDOF 3
ENDMDL
