MODEL 1
REMARK VINA RESULT:      -2.0      0.000      0.000
REMARK  Name = 45360576
REMARK  5 active torsions:
REMARK  status: ('A' for Active; 'I' for Inactive)
REMARK    1  A    between atoms: O_4  and  C_11
REMARK    2  A    between atoms: N_6  and  C_10
REMARK    3  A    between atoms: N_7  and  C_12
REMARK    4  A    between atoms: N_8  and  C_21
REMARK    5  A    between atoms: N_9  and  C_22
REMARK                            x       y       z     vdW  Elec       q    Type
REMARK                         _______ _______ _______ _____ _____    ______ ____
ROOT
ATOM      2  O   UNL     1      -3.756  -0.072  23.087  0.00  0.00    -0.342 OA
ATOM      3  O   UNL     1      -5.097  -0.939  24.770  0.00  0.00    -0.347 OA
ATOM     10  C   UNL     1      -3.391   0.675  25.351  0.00  0.00    +0.144 C 
ATOM     11  C   UNL     1      -2.367  -0.459  25.580  0.00  0.00    +0.159 C 
ATOM     12  C   UNL     1      -2.073  -1.289  24.312  0.00  0.00    +0.136 C 
ATOM     13  C   UNL     1      -4.440   0.251  24.305  0.00  0.00    +0.270 C 
ATOM     14  C   UNL     1      -3.284  -1.395  23.362  0.00  0.00    +0.170 C 
ATOM     15  C   UNL     1      -4.520  -2.003  23.997  0.00  0.00    +0.196 C 
ENDROOT
BRANCH  10   6
ATOM      6  N   UNL     1      -2.709   1.887  24.903  0.00  0.00    -0.290 NA
ATOM      8  N   UNL     1      -1.531   4.490  25.346  0.00  0.00    -0.303 NA
ATOM     16  C   UNL     1      -1.412   2.033  25.576  0.00  0.00    +0.100 C 
ATOM     17  C   UNL     1      -3.544   3.073  25.137  0.00  0.00    +0.100 C 
ATOM     18  C   UNL     1      -0.697   3.306  25.111  0.00  0.00    +0.099 C 
ATOM     19  C   UNL     1      -2.828   4.345  24.672  0.00  0.00    +0.099 C 
ATOM     21  C   UNL     1      -0.848   5.704  24.900  0.00  0.00    +0.105 C 
ENDBRANCH  10   6
BRANCH  12   7
ATOM      5  O   UNL     1       0.690  -1.563  25.015  0.00  0.00    -0.252 OA
ATOM      7  N   UNL     1      -0.941  -0.733  23.603  0.00  0.00    -0.291 N 
ATOM      9  N   UNL     1       1.255  -0.267  23.142  0.00  0.00    -0.269 N 
ATOM     20  C   UNL     1       0.381  -0.916  24.017  0.00  0.00    +0.304 C 
ATOM     28  H   UNL     1      -1.122  -0.120  22.814  0.00  0.00    +0.151 HD
ATOM     30  H   UNL     1       0.834   0.228  22.359  0.00  0.00    +0.156 HD
BRANCH   9  22
ATOM      1  F   UNL     1       6.788  -0.042  23.398  0.00  0.00    -0.205 F 
ATOM     22  C   UNL     1       2.666  -0.210  23.207  0.00  0.00    +0.035 A 
ATOM     23  C   UNL     1       3.388  -1.300  23.694  0.00  0.00    +0.026 A 
ATOM     24  C   UNL     1       3.338   0.938  22.785  0.00  0.00    +0.026 A 
ATOM     25  C   UNL     1       4.780  -1.244  23.758  0.00  0.00    +0.040 A 
ATOM     26  C   UNL     1       4.730   0.994  22.850  0.00  0.00    +0.040 A 
ATOM     27  C   UNL     1       5.451  -0.097  23.337  0.00  0.00    +0.124 A 
ENDBRANCH   9  22
ENDBRANCH  12   7
BRANCH  11   4
ATOM      4  O   UNL     1      -2.897  -1.329  26.589  0.00  0.00    -0.388 OA
ATOM     29  H   UNL     1      -2.962  -2.220  26.204  0.00  0.00    +0.210 HD
ENDBRANCH  11   4
TORSDOF 4
ENDMDL
MODEL 2
REMARK VINA RESULT:      -0.2      2.104      4.297
REMARK  Name = 45360576
REMARK  5 active torsions:
REMARK  status: ('A' for Active; 'I' for Inactive)
REMARK    1  A    between atoms: O_4  and  C_11
REMARK    2  A    between atoms: N_6  and  C_10
REMARK    3  A    between atoms: N_7  and  C_12
REMARK    4  A    between atoms: N_8  and  C_21
REMARK    5  A    between atoms: N_9  and  C_22
REMARK                            x       y       z     vdW  Elec       q    Type
REMARK                         _______ _______ _______ _____ _____    ______ ____
ROOT
ATOM      2  O   UNL     1      -1.848   2.034  25.744  0.00  0.00    -0.342 OA
ATOM      3  O   UNL     1      -3.585   3.567  25.855  0.00  0.00    -0.347 OA
ATOM     10  C   UNL     1      -3.768   1.703  24.324  0.00  0.00    +0.144 C 
ATOM     11  C   UNL     1      -3.105   2.533  23.201  0.00  0.00    +0.159 C 
ATOM     12  C   UNL     1      -1.660   2.968  23.529  0.00  0.00    +0.136 C 
ATOM     13  C   UNL     1      -3.274   2.172  25.705  0.00  0.00    +0.270 C 
ATOM     14  C   UNL     1      -1.424   3.203  25.035  0.00  0.00    +0.170 C 
ATOM     15  C   UNL     1      -2.336   4.246  25.652  0.00  0.00    +0.196 C 
ENDROOT
BRANCH  10   6
ATOM      6  N   UNL     1      -3.466   0.285  24.146  0.00  0.00    -0.290 NA
ATOM      8  N   UNL     1      -3.542  -2.486  24.969  0.00  0.00    -0.303 NA
ATOM     16  C   UNL     1      -4.701  -0.504  24.056  0.00  0.00    +0.100 C 
ATOM     17  C   UNL     1      -2.621  -0.210  25.241  0.00  0.00    +0.100 C 
ATOM     18  C   UNL     1      -4.386  -1.992  23.874  0.00  0.00    +0.099 C 
ATOM     19  C   UNL     1      -2.306  -1.698  25.059  0.00  0.00    +0.099 C 
ATOM     21  C   UNL     1      -3.241  -3.906  24.793  0.00  0.00    +0.105 C 
ENDBRANCH  10   6
BRANCH  12   7
ATOM      5  O   UNL     1       1.001   2.511  24.485  0.00  0.00    -0.252 OA
ATOM      7  N   UNL     1      -0.719   1.987  23.033  0.00  0.00    -0.291 N 
ATOM      9  N   UNL     1       1.242   0.812  22.885  0.00  0.00    -0.269 N 
ATOM     20  C   UNL     1       0.565   1.830  23.559  0.00  0.00    +0.304 C 
ATOM     28  H   UNL     1      -0.979   1.441  22.217  0.00  0.00    +0.151 HD
ATOM     30  H   UNL     1       0.736   0.342  22.138  0.00  0.00    +0.156 HD
BRANCH   9  22
ATOM      1  F   UNL     1       6.400  -1.017  23.775  0.00  0.00    -0.205 F 
ATOM     22  C   UNL     1       2.558   0.345  23.112  0.00  0.00    +0.035 A 
ATOM     23  C   UNL     1       2.770  -0.966  23.539  0.00  0.00    +0.026 A 
ATOM     24  C   UNL     1       3.645   1.196  22.910  0.00  0.00    +0.026 A 
ATOM     25  C   UNL     1       4.068  -1.426  23.763  0.00  0.00    +0.040 A 
ATOM     26  C   UNL     1       4.942   0.736  23.134  0.00  0.00    +0.040 A 
ATOM     27  C   UNL     1       5.153  -0.575  23.561  0.00  0.00    +0.124 A 
ENDBRANCH   9  22
ENDBRANCH  12   7
BRANCH  11   4
ATOM      4  O   UNL     1      -3.903   3.705  22.995  0.00  0.00    -0.388 OA
ATOM     29  H   UNL     1      -4.796   3.413  22.742  0.00  0.00    +0.210 HD
ENDBRANCH  11   4
TORSDOF 4
ENDMDL
