MODEL 1
REMARK VINA RESULT:       1.7      0.000      0.000
REMARK  Name = 26744806
REMARK  6 active torsions:
REMARK  status: ('A' for Active; 'I' for Inactive)
REMARK    1  A    between atoms: O_2  and  C_23
REMARK    2  A    between atoms: O_2  and  C_28
REMARK    3  A    between atoms: N_3  and  C_14
REMARK    4  A    between atoms: C_9  and  C_15
REMARK    5  A    between atoms: C_14  and  C_16
REMARK    6  A    between atoms: C_20  and  C_24
REMARK                            x       y       z     vdW  Elec       q    Type
REMARK                         _______ _______ _______ _____ _____    ______ ____
ROOT
ATOM      3  N   UNL     1      -1.423   1.513  25.485  0.00  0.00    -0.281 NA
ATOM      4  N   UNL     1      -4.189   4.045  25.421  0.00  0.00    -0.347 N 
ATOM      5  N   UNL     1      -3.366   4.591  23.414  0.00  0.00    -0.240 NA
ATOM      9  C   UNL     1      -1.360   1.393  23.988  0.00  0.00    +0.152 C 
ATOM     10  C   UNL     1      -1.614   2.764  23.266  0.00  0.00    +0.086 C 
ATOM     11  C   UNL     1      -2.752   1.997  25.959  0.00  0.00    +0.140 C 
ATOM     12  C   UNL     1      -3.204   3.145  25.147  0.00  0.00    +0.053 A 
ATOM     13  C   UNL     1      -2.722   3.495  23.913  0.00  0.00    +0.065 A 
ATOM     17  C   UNL     1      -4.248   4.898  24.346  0.00  0.00    +0.197 A 
ATOM     30  H   UNL     1      -4.768   4.081  26.249  0.00  0.00    +0.167 HD
ENDROOT
BRANCH   9  15
ATOM      1  O   UNL     1      -0.087   0.195  22.266  0.00  0.00    -0.336 OA
ATOM      6  N   UNL     1       1.148   0.861  24.013  0.00  0.00    -0.189 NA
ATOM      7  N   UNL     1       1.222  -0.231  22.003  0.00  0.00    -0.054 NA
ATOM     15  C   UNL     1      -0.042   0.828  23.468  0.00  0.00    +0.245 A 
ATOM     20  C   UNL     1       1.889   0.199  23.078  0.00  0.00    +0.220 A 
BRANCH  20  24
ATOM      8  N   UNL     1       3.654  -1.246  23.682  0.00  0.00    -0.252 NA
ATOM     24  C   UNL     1       3.298  -0.016  23.247  0.00  0.00    +0.111 A 
ATOM     25  C   UNL     1       4.198   1.001  22.972  0.00  0.00    +0.031 A 
ATOM     26  C   UNL     1       5.551   0.738  23.154  0.00  0.00    +0.004 A 
ATOM     27  C   UNL     1       4.978  -1.464  23.847  0.00  0.00    +0.111 A 
ATOM     29  C   UNL     1       5.957  -0.515  23.600  0.00  0.00    +0.020 A 
ENDBRANCH  20  24
ENDBRANCH   9  15
BRANCH   3  14
ATOM     14  C   UNL     1      -1.134   0.240  26.160  0.00  0.00    +0.120 C 
BRANCH  14  16
ATOM     16  C   UNL     1      -1.911  -0.902  25.560  0.00  0.00    -0.033 A 
ATOM     18  C   UNL     1      -1.240  -1.942  24.917  0.00  0.00    +0.008 A 
ATOM     19  C   UNL     1      -3.303  -0.918  25.645  0.00  0.00    +0.008 A 
ATOM     21  C   UNL     1      -1.960  -2.999  24.361  0.00  0.00    +0.046 A 
ATOM     22  C   UNL     1      -4.024  -1.975  25.089  0.00  0.00    +0.046 A 
ATOM     23  C   UNL     1      -3.351  -3.015  24.446  0.00  0.00    +0.120 A 
BRANCH  23   2
ATOM      2  O   UNL     1      -4.055  -4.047  23.904  0.00  0.00    -0.495 OA
ATOM     28  C   UNL     1      -5.097  -3.712  22.990  0.00  0.00    +0.277 C 
ENDBRANCH  23   2
ENDBRANCH  14  16
ENDBRANCH   3  14
TORSDOF 5
ENDMDL
MODEL 2
REMARK VINA RESULT:       2.2      2.249      7.400
REMARK  Name = 26744806
REMARK  6 active torsions:
REMARK  status: ('A' for Active; 'I' for Inactive)
REMARK    1  A    between atoms: O_2  and  C_23
REMARK    2  A    between atoms: O_2  and  C_28
REMARK    3  A    between atoms: N_3  and  C_14
REMARK    4  A    between atoms: C_9  and  C_15
REMARK    5  A    between atoms: C_14  and  C_16
REMARK    6  A    between atoms: C_20  and  C_24
REMARK                            x       y       z     vdW  Elec       q    Type
REMARK                         _______ _______ _______ _____ _____    ______ ____
ROOT
ATOM      3  N   UNL     1       2.016   1.354  23.625  0.00  0.00    -0.281 NA
ATOM      4  N   UNL     1       5.533   0.103  23.260  0.00  0.00    -0.347 N 
ATOM      5  N   UNL     1       4.655  -1.896  23.743  0.00  0.00    -0.240 NA
ATOM      9  C   UNL     1       1.400   0.036  23.244  0.00  0.00    +0.152 C 
ATOM     10  C   UNL     1       2.221  -1.188  23.785  0.00  0.00    +0.086 C 
ATOM     11  C   UNL     1       3.400   1.507  23.090  0.00  0.00    +0.140 C 
ATOM     12  C   UNL     1       4.183   0.276  23.321  0.00  0.00    +0.053 A 
ATOM     13  C   UNL     1       3.669  -0.961  23.611  0.00  0.00    +0.065 A 
ATOM     17  C   UNL     1       5.768  -1.224  23.523  0.00  0.00    +0.197 A 
ATOM     30  H   UNL     1       6.228   0.808  23.058  0.00  0.00    +0.167 HD
ENDROOT
BRANCH   9  15
ATOM      1  O   UNL     1      -0.393  -1.354  24.179  0.00  0.00    -0.336 OA
ATOM      6  N   UNL     1      -1.017   0.748  23.719  0.00  0.00    -0.189 NA
ATOM      7  N   UNL     1      -1.744  -1.261  24.538  0.00  0.00    -0.054 NA
ATOM     15  C   UNL     1      -0.044  -0.128  23.707  0.00  0.00    +0.245 A 
ATOM     20  C   UNL     1      -2.040   0.007  24.237  0.00  0.00    +0.220 A 
BRANCH  20  24
ATOM      8  N   UNL     1      -3.587   1.737  23.813  0.00  0.00    -0.252 NA
ATOM     24  C   UNL     1      -3.345   0.564  24.442  0.00  0.00    +0.111 A 
ATOM     25  C   UNL     1      -4.267  -0.092  25.241  0.00  0.00    +0.031 A 
ATOM     26  C   UNL     1      -5.518   0.494  25.406  0.00  0.00    +0.004 A 
ATOM     27  C   UNL     1      -4.813   2.276  23.998  0.00  0.00    +0.111 A 
ATOM     29  C   UNL     1      -5.803   1.700  24.776  0.00  0.00    +0.020 A 
ENDBRANCH  20  24
ENDBRANCH   9  15
BRANCH   3  14
ATOM     14  C   UNL     1       1.218   2.498  23.161  0.00  0.00    +0.120 C 
BRANCH  14  16
ATOM     16  C   UNL     1       0.216   2.938  24.196  0.00  0.00    -0.033 A 
ATOM     18  C   UNL     1       0.251   2.392  25.479  0.00  0.00    +0.008 A 
ATOM     19  C   UNL     1      -0.747   3.892  23.870  0.00  0.00    +0.008 A 
ATOM     21  C   UNL     1      -0.677   2.800  26.436  0.00  0.00    +0.046 A 
ATOM     22  C   UNL     1      -1.676   4.301  24.827  0.00  0.00    +0.046 A 
ATOM     23  C   UNL     1      -1.640   3.754  26.111  0.00  0.00    +0.120 A 
BRANCH  23   2
ATOM      2  O   UNL     1      -2.546   4.153  27.045  0.00  0.00    -0.495 OA
ATOM     28  C   UNL     1      -3.920   4.146  26.662  0.00  0.00    +0.277 C 
ENDBRANCH  23   2
ENDBRANCH  14  16
ENDBRANCH   3  14
TORSDOF 5
ENDMDL
MODEL 3
REMARK VINA RESULT:       2.6      2.364      4.740
REMARK  Name = 26744806
REMARK  6 active torsions:
REMARK  status: ('A' for Active; 'I' for Inactive)
REMARK    1  A    between atoms: O_2  and  C_23
REMARK    2  A    between atoms: O_2  and  C_28
REMARK    3  A    between atoms: N_3  and  C_14
REMARK    4  A    between atoms: C_9  and  C_15
REMARK    5  A    between atoms: C_14  and  C_16
REMARK    6  A    between atoms: C_20  and  C_24
REMARK                            x       y       z     vdW  Elec       q    Type
REMARK                         _______ _______ _______ _____ _____    ______ ____
ROOT
ATOM      3  N   UNL     1      -1.848   0.414  23.351  0.00  0.00    -0.281 NA
ATOM      4  N   UNL     1      -4.850  -1.644  24.252  0.00  0.00    -0.347 N 
ATOM      5  N   UNL     1      -3.426  -3.368  24.215  0.00  0.00    -0.240 NA
ATOM      9  C   UNL     1      -0.877  -0.533  24.000  0.00  0.00    +0.152 C 
ATOM     10  C   UNL     1      -1.303  -2.034  23.834  0.00  0.00    +0.086 C 
ATOM     11  C   UNL     1      -3.220   0.301  23.926  0.00  0.00    +0.140 C 
ATOM     12  C   UNL     1      -3.609  -1.118  24.057  0.00  0.00    +0.053 A 
ATOM     13  C   UNL     1      -2.756  -2.190  24.045  0.00  0.00    +0.065 A 
ATOM     17  C   UNL     1      -4.688  -3.005  24.340  0.00  0.00    +0.197 A 
ATOM     30  H   UNL     1      -5.723  -1.137  24.322  0.00  0.00    +0.167 HD
ENDROOT
BRANCH   9  15
ATOM      1  O   UNL     1       0.704  -0.065  22.184  0.00  0.00    -0.336 OA
ATOM      6  N   UNL     1       1.683  -0.547  24.140  0.00  0.00    -0.189 NA
ATOM      7  N   UNL     1       2.085   0.003  21.956  0.00  0.00    -0.054 NA
ATOM     15  C   UNL     1       0.555  -0.394  23.494  0.00  0.00    +0.245 A 
ATOM     20  C   UNL     1       2.593  -0.293  23.155  0.00  0.00    +0.220 A 
BRANCH  20  24
ATOM      8  N   UNL     1       4.475  -1.518  23.880  0.00  0.00    -0.252 NA
ATOM     24  C   UNL     1       4.005  -0.343  23.404  0.00  0.00    +0.111 A 
ATOM     25  C   UNL     1       4.798   0.767  23.157  0.00  0.00    +0.031 A 
ATOM     26  C   UNL     1       6.160   0.663  23.416  0.00  0.00    +0.004 A 
ATOM     27  C   UNL     1       5.804  -1.580  24.119  0.00  0.00    +0.111 A 
ATOM     29  C   UNL     1       6.680  -0.529  23.907  0.00  0.00    +0.020 A 
ENDBRANCH  20  24
ENDBRANCH   9  15
BRANCH   3  14
ATOM     14  C   UNL     1      -1.421   1.816  23.464  0.00  0.00    +0.120 C 
BRANCH  14  16
ATOM     16  C   UNL     1      -2.438   2.655  24.191  0.00  0.00    -0.033 A 
ATOM     18  C   UNL     1      -2.138   3.186  25.445  0.00  0.00    +0.008 A 
ATOM     19  C   UNL     1      -3.682   2.901  23.610  0.00  0.00    +0.008 A 
ATOM     21  C   UNL     1      -3.080   3.962  26.119  0.00  0.00    +0.046 A 
ATOM     22  C   UNL     1      -4.625   3.678  24.283  0.00  0.00    +0.046 A 
ATOM     23  C   UNL     1      -4.324   4.208  25.538  0.00  0.00    +0.120 A 
BRANCH  23   2
ATOM      2  O   UNL     1      -5.244   4.966  26.194  0.00  0.00    -0.495 OA
ATOM     28  C   UNL     1      -6.430   5.310  25.480  0.00  0.00    +0.277 C 
ENDBRANCH  23   2
ENDBRANCH  14  16
ENDBRANCH   3  14
TORSDOF 5
ENDMDL
MODEL 4
REMARK VINA RESULT:       3.5      1.761      6.472
REMARK  Name = 26744806
REMARK  6 active torsions:
REMARK  status: ('A' for Active; 'I' for Inactive)
REMARK    1  A    between atoms: O_2  and  C_23
REMARK    2  A    between atoms: O_2  and  C_28
REMARK    3  A    between atoms: N_3  and  C_14
REMARK    4  A    between atoms: C_9  and  C_15
REMARK    5  A    between atoms: C_14  and  C_16
REMARK    6  A    between atoms: C_20  and  C_24
REMARK                            x       y       z     vdW  Elec       q    Type
REMARK                         _______ _______ _______ _____ _____    ______ ____
ROOT
ATOM      3  N   UNL     1       0.092   0.022  24.480  0.00  0.00    -0.281 NA
ATOM      4  N   UNL     1       3.370  -0.824  22.866  0.00  0.00    -0.347 N 
ATOM      5  N   UNL     1       3.448   1.352  22.355  0.00  0.00    -0.240 NA
ATOM      9  C   UNL     1       0.481   1.448  24.757  0.00  0.00    +0.152 C 
ATOM     10  C   UNL     1       1.363   2.062  23.613  0.00  0.00    +0.086 C 
ATOM     11  C   UNL     1       1.279  -0.871  24.340  0.00  0.00    +0.140 C 
ATOM     12  C   UNL     1       2.299  -0.244  23.475  0.00  0.00    +0.053 A 
ATOM     13  C   UNL     1       2.372   1.087  23.154  0.00  0.00    +0.065 A 
ATOM     17  C   UNL     1       4.032   0.180  22.202  0.00  0.00    +0.197 A 
ATOM     30  H   UNL     1       3.632  -1.800  22.896  0.00  0.00    +0.167 HD
ENDROOT
BRANCH   9  15
ATOM      1  O   UNL     1      -0.419   3.697  25.148  0.00  0.00    -0.336 OA
ATOM      6  N   UNL     1      -1.983   2.098  25.044  0.00  0.00    -0.189 NA
ATOM      7  N   UNL     1      -1.648   4.342  25.336  0.00  0.00    -0.054 NA
ATOM     15  C   UNL     1      -0.706   2.380  24.983  0.00  0.00    +0.245 A 
ATOM     20  C   UNL     1      -2.521   3.333  25.262  0.00  0.00    +0.220 A 
BRANCH  20  24
ATOM      8  N   UNL     1      -4.670   2.397  25.531  0.00  0.00    -0.252 NA
ATOM     24  C   UNL     1      -3.936   3.525  25.400  0.00  0.00    +0.111 A 
ATOM     25  C   UNL     1      -4.471   4.803  25.394  0.00  0.00    +0.031 A 
ATOM     26  C   UNL     1      -5.849   4.930  25.532  0.00  0.00    +0.004 A 
ATOM     27  C   UNL     1      -6.005   2.561  25.661  0.00  0.00    +0.111 A 
ATOM     29  C   UNL     1      -6.637   3.794  25.668  0.00  0.00    +0.020 A 
ENDBRANCH  20  24
ENDBRANCH   9  15
BRANCH   3  14
ATOM     14  C   UNL     1      -0.777  -0.534  25.527  0.00  0.00    +0.120 C 
BRANCH  14  16
ATOM     16  C   UNL     1      -2.016  -1.165  24.950  0.00  0.00    -0.033 A 
ATOM     18  C   UNL     1      -2.030  -2.526  24.646  0.00  0.00    +0.008 A 
ATOM     19  C   UNL     1      -3.150  -0.388  24.719  0.00  0.00    +0.008 A 
ATOM     21  C   UNL     1      -3.178  -3.110  24.112  0.00  0.00    +0.046 A 
ATOM     22  C   UNL     1      -4.299  -0.971  24.185  0.00  0.00    +0.046 A 
ATOM     23  C   UNL     1      -4.312  -2.333  23.881  0.00  0.00    +0.120 A 
BRANCH  23   2
ATOM      2  O   UNL     1      -5.434  -2.902  23.360  0.00  0.00    -0.495 OA
ATOM     28  C   UNL     1      -5.250  -3.993  22.460  0.00  0.00    +0.277 C 
ENDBRANCH  23   2
ENDBRANCH  14  16
ENDBRANCH   3  14
TORSDOF 5
ENDMDL
MODEL 5
REMARK VINA RESULT:       4.2      2.143      3.234
REMARK  Name = 26744806
REMARK  6 active torsions:
REMARK  status: ('A' for Active; 'I' for Inactive)
REMARK    1  A    between atoms: O_2  and  C_23
REMARK    2  A    between atoms: O_2  and  C_28
REMARK    3  A    between atoms: N_3  and  C_14
REMARK    4  A    between atoms: C_9  and  C_15
REMARK    5  A    between atoms: C_14  and  C_16
REMARK    6  A    between atoms: C_20  and  C_24
REMARK                            x       y       z     vdW  Elec       q    Type
REMARK                         _______ _______ _______ _____ _____    ______ ____
ROOT
ATOM      3  N   UNL     1      -4.298   1.380  24.867  0.00  0.00    -0.281 NA
ATOM      4  N   UNL     1      -6.983   3.869  25.677  0.00  0.00    -0.347 N 
ATOM      5  N   UNL     1      -5.289   5.305  25.941  0.00  0.00    -0.240 NA
ATOM      9  C   UNL     1      -3.339   2.424  24.365  0.00  0.00    +0.152 C 
ATOM     10  C   UNL     1      -3.425   3.760  25.186  0.00  0.00    +0.086 C 
ATOM     11  C   UNL     1      -5.718   1.830  24.788  0.00  0.00    +0.140 C 
ATOM     12  C   UNL     1      -5.853   3.208  25.304  0.00  0.00    +0.053 A 
ATOM     13  C   UNL     1      -4.832   4.108  25.468  0.00  0.00    +0.065 A 
ATOM     17  C   UNL     1      -6.591   5.130  26.054  0.00  0.00    +0.197 A 
ATOM     30  H   UNL     1      -7.928   3.508  25.676  0.00  0.00    +0.167 HD
ENDROOT
BRANCH   9  15
ATOM      1  O   UNL     1      -1.240   1.977  25.555  0.00  0.00    -0.336 OA
ATOM      6  N   UNL     1      -1.141   1.577  23.353  0.00  0.00    -0.189 NA
ATOM      7  N   UNL     1       0.063   1.532  25.299  0.00  0.00    -0.054 NA
ATOM     15  C   UNL     1      -1.882   1.974  24.357  0.00  0.00    +0.245 A 
ATOM     20  C   UNL     1       0.043   1.317  23.980  0.00  0.00    +0.220 A 
BRANCH  20  24
ATOM      8  N   UNL     1       2.357   1.461  23.542  0.00  0.00    -0.252 NA
ATOM     24  C   UNL     1       1.189   0.842  23.259  0.00  0.00    +0.111 A 
ATOM     25  C   UNL     1       1.058  -0.188  22.341  0.00  0.00    +0.031 A 
ATOM     26  C   UNL     1       2.201  -0.609  21.670  0.00  0.00    +0.004 A 
ATOM     27  C   UNL     1       3.446   1.024  22.870  0.00  0.00    +0.111 A 
ATOM     29  C   UNL     1       3.421   0.004  21.933  0.00  0.00    +0.020 A 
ENDBRANCH  20  24
ENDBRANCH   9  15
BRANCH   3  14
ATOM     14  C   UNL     1      -4.180   0.113  24.130  0.00  0.00    +0.120 C 
BRANCH  14  16
ATOM     16  C   UNL     1      -3.003  -0.700  24.600  0.00  0.00    -0.033 A 
ATOM     18  C   UNL     1      -2.585  -0.621  25.929  0.00  0.00    +0.008 A 
ATOM     19  C   UNL     1      -2.330  -1.533  23.706  0.00  0.00    +0.008 A 
ATOM     21  C   UNL     1      -1.495  -1.375  26.363  0.00  0.00    +0.046 A 
ATOM     22  C   UNL     1      -1.240  -2.287  24.140  0.00  0.00    +0.046 A 
ATOM     23  C   UNL     1      -0.822  -2.207  25.469  0.00  0.00    +0.120 A 
BRANCH  23   2
ATOM      2  O   UNL     1       0.241  -2.944  25.893  0.00  0.00    -0.495 OA
ATOM     28  C   UNL     1       1.497  -2.690  25.267  0.00  0.00    +0.277 C 
ENDBRANCH  23   2
ENDBRANCH  14  16
ENDBRANCH   3  14
TORSDOF 5
ENDMDL
MODEL 6
REMARK VINA RESULT:       4.8      2.466      7.246
REMARK  Name = 26744806
REMARK  6 active torsions:
REMARK  status: ('A' for Active; 'I' for Inactive)
REMARK    1  A    between atoms: O_2  and  C_23
REMARK    2  A    between atoms: O_2  and  C_28
REMARK    3  A    between atoms: N_3  and  C_14
REMARK    4  A    between atoms: C_9  and  C_15
REMARK    5  A    between atoms: C_14  and  C_16
REMARK    6  A    between atoms: C_20  and  C_24
REMARK                            x       y       z     vdW  Elec       q    Type
REMARK                         _______ _______ _______ _____ _____    ______ ____
ROOT
ATOM      3  N   UNL     1       2.210   1.057  23.516  0.00  0.00    -0.281 NA
ATOM      4  N   UNL     1       5.900   0.515  23.125  0.00  0.00    -0.347 N 
ATOM      5  N   UNL     1       5.485  -1.516  23.965  0.00  0.00    -0.240 NA
ATOM      9  C   UNL     1       1.878  -0.403  23.382  0.00  0.00    +0.152 C 
ATOM     10  C   UNL     1       2.957  -1.327  24.052  0.00  0.00    +0.086 C 
ATOM     11  C   UNL     1       3.513   1.402  22.877  0.00  0.00    +0.140 C 
ATOM     12  C   UNL     1       4.548   0.414  23.245  0.00  0.00    +0.053 A 
ATOM     13  C   UNL     1       4.318  -0.838  23.753  0.00  0.00    +0.065 A 
ATOM     17  C   UNL     1       6.421  -0.674  23.573  0.00  0.00    +0.197 A 
ATOM     30  H   UNL     1       6.423   1.306  22.773  0.00  0.00    +0.167 HD
ENDROOT
BRANCH   9  15
ATOM      1  O   UNL     1       0.456  -0.961  25.302  0.00  0.00    -0.336 OA
ATOM      6  N   UNL     1      -0.622  -0.968  23.338  0.00  0.00    -0.189 NA
ATOM      7  N   UNL     1      -0.874  -1.298  25.588  0.00  0.00    -0.054 NA
ATOM     15  C   UNL     1       0.517  -0.783  23.956  0.00  0.00    +0.245 A 
ATOM     20  C   UNL     1      -1.445  -1.282  24.381  0.00  0.00    +0.220 A 
BRANCH  20  24
ATOM      8  N   UNL     1      -3.130  -2.867  23.915  0.00  0.00    -0.252 NA
ATOM     24  C   UNL     1      -2.835  -1.574  24.181  0.00  0.00    +0.111 A 
ATOM     25  C   UNL     1      -3.780  -0.565  24.265  0.00  0.00    +0.031 A 
ATOM     26  C   UNL     1      -5.114  -0.904  24.063  0.00  0.00    +0.004 A 
ATOM     27  C   UNL     1      -4.436  -3.158  23.724  0.00  0.00    +0.111 A 
ATOM     29  C   UNL     1      -5.456  -2.222  23.787  0.00  0.00    +0.020 A 
ENDBRANCH  20  24
ENDBRANCH   9  15
BRANCH   3  14
ATOM     14  C   UNL     1       1.174   1.921  22.934  0.00  0.00    +0.120 C 
BRANCH  14  16
ATOM     16  C   UNL     1       0.136   2.315  23.952  0.00  0.00    -0.033 A 
ATOM     18  C   UNL     1      -1.183   2.537  23.554  0.00  0.00    +0.008 A 
ATOM     19  C   UNL     1       0.493   2.457  25.292  0.00  0.00    +0.008 A 
ATOM     21  C   UNL     1      -2.143   2.901  24.497  0.00  0.00    +0.046 A 
ATOM     22  C   UNL     1      -0.467   2.821  26.236  0.00  0.00    +0.046 A 
ATOM     23  C   UNL     1      -1.786   3.044  25.837  0.00  0.00    +0.120 A 
BRANCH  23   2
ATOM      2  O   UNL     1      -2.723   3.398  26.759  0.00  0.00    -0.495 OA
ATOM     28  C   UNL     1      -4.010   3.765  26.267  0.00  0.00    +0.277 C 
ENDBRANCH  23   2
ENDBRANCH  14  16
ENDBRANCH   3  14
TORSDOF 5
ENDMDL
