MODEL 1
REMARK VINA RESULT:      -2.4      0.000      0.000
REMARK  Name = 38027864
REMARK  16 active torsions:
REMARK  status: ('A' for Active; 'I' for Inactive)
REMARK    1  A    between atoms: O_3  and  C_30
REMARK    2  A    between atoms: O_3  and  C_31
REMARK    3  A    between atoms: N_4  and  C_13
REMARK    4  A    between atoms: N_5  and  C_24
REMARK    5  A    between atoms: C_6  and  C_10
REMARK    6  A    between atoms: C_7  and  C_13
REMARK    7  A    between atoms: C_9  and  C_14
REMARK    8  A    between atoms: C_10  and  C_15
REMARK    9  A    between atoms: C_10  and  C_16
REMARK   10  A    between atoms: C_11  and  C_17
REMARK   11  A    between atoms: C_14  and  C_18
REMARK   12  A    between atoms: C_19  and  C_20
REMARK   13  A    between atoms: C_20  and  C_21
REMARK   14  A    between atoms: C_20  and  C_22
REMARK   15  A    between atoms: C_20  and  C_23
REMARK   16  A    between atoms: C_24  and  C_25
REMARK                            x       y       z     vdW  Elec       q    Type
REMARK                         _______ _______ _______ _____ _____    ______ ____
ROOT
ATOM      6  C   UNL     1      -1.309   0.603  24.640  0.00  0.00    +0.000 C 
ATOM      7  C   UNL     1      -0.105  -0.344  24.408  0.00  0.00    +0.032 C 
ATOM      8  C   UNL     1      -2.272   0.001  25.674  0.00  0.00    +0.012 C 
ATOM      9  C   UNL     1      -2.811  -1.374  25.238  0.00  0.00    +0.023 C 
ATOM     11  C   UNL     1      -1.702  -2.280  24.738  0.00  0.00    -0.073 C 
ATOM     12  C   UNL     1      -0.496  -1.803  24.384  0.00  0.00    -0.022 C 
ATOM     17  C   UNL     1      -1.999  -3.753  24.698  0.00  0.00    +0.039 C 
ENDROOT
BRANCH   6  10
ATOM     10  C   UNL     1      -0.859   1.994  25.098  0.00  0.00    -0.013 C 
ATOM     15  C   UNL     1      -0.018   1.890  26.366  0.00  0.00    +0.007 C 
ATOM     16  C   UNL     1      -0.081   2.694  23.988  0.00  0.00    +0.007 C 
ENDBRANCH   6  10
BRANCH   7  13
ATOM     13  C   UNL     1       0.633   0.008  23.110  0.00  0.00    +0.112 C 
BRANCH  13   4
ATOM      2  O   UNL     1       2.900   1.730  23.232  0.00  0.00    -0.275 OA
ATOM      4  N   UNL     1       2.002  -0.398  23.178  0.00  0.00    -0.314 N 
ATOM     19  C   UNL     1       3.061   0.509  23.235  0.00  0.00    +0.218 C 
ATOM     32  H   UNL     1       2.200  -1.392  23.242  0.00  0.00    +0.149 HD
BRANCH  19  20
ATOM     20  C   UNL     1       4.460  -0.137  23.307  0.00  0.00    +0.039 C 
ATOM     21  C   UNL     1       5.132  -0.097  21.927  0.00  0.00    +0.020 C 
ATOM     22  C   UNL     1       5.334   0.650  24.301  0.00  0.00    +0.020 C 
ATOM     23  C   UNL     1       4.346  -1.588  23.799  0.00  0.00    +0.020 C 
ENDBRANCH  19  20
ENDBRANCH  13   4
ENDBRANCH   7  13
BRANCH   9  14
ATOM     14  C   UNL     1      -3.915  -1.227  24.186  0.00  0.00    +0.103 C 
BRANCH  14  18
ATOM      1  O   UNL     1      -3.782   0.905  23.052  0.00  0.00    -0.276 OA
ATOM      5  N   UNL     1      -5.231   0.655  24.852  0.00  0.00    -0.311 N 
ATOM     18  C   UNL     1      -4.278   0.220  23.942  0.00  0.00    +0.214 C 
ATOM     33  H   UNL     1      -5.582   0.011  25.555  0.00  0.00    +0.149 HD
BRANCH   5  24
ATOM     24  C   UNL     1      -5.763   1.998  24.856  0.00  0.00    +0.139 C 
BRANCH  24  25
ATOM     25  C   UNL     1      -4.681   3.031  24.984  0.00  0.00    -0.030 A 
ATOM     26  C   UNL     1      -4.228   3.711  23.853  0.00  0.00    +0.009 A 
ATOM     27  C   UNL     1      -4.131   3.313  26.234  0.00  0.00    +0.009 A 
ATOM     28  C   UNL     1      -3.223   4.672  23.973  0.00  0.00    +0.046 A 
ATOM     29  C   UNL     1      -3.126   4.273  26.354  0.00  0.00    +0.046 A 
ATOM     30  C   UNL     1      -2.673   4.952  25.223  0.00  0.00    +0.120 A 
BRANCH  30   3
ATOM      3  O   UNL     1      -1.694   5.890  25.340  0.00  0.00    -0.495 OA
ATOM     31  C   UNL     1      -0.475   5.648  24.640  0.00  0.00    +0.277 C 
ENDBRANCH  30   3
ENDBRANCH  24  25
ENDBRANCH   5  24
ENDBRANCH  14  18
ENDBRANCH   9  14
TORSDOF 9
ENDMDL
MODEL 2
REMARK VINA RESULT:      -1.7      1.795      7.011
REMARK  Name = 38027864
REMARK  16 active torsions:
REMARK  status: ('A' for Active; 'I' for Inactive)
REMARK    1  A    between atoms: O_3  and  C_30
REMARK    2  A    between atoms: O_3  and  C_31
REMARK    3  A    between atoms: N_4  and  C_13
REMARK    4  A    between atoms: N_5  and  C_24
REMARK    5  A    between atoms: C_6  and  C_10
REMARK    6  A    between atoms: C_7  and  C_13
REMARK    7  A    between atoms: C_9  and  C_14
REMARK    8  A    between atoms: C_10  and  C_15
REMARK    9  A    between atoms: C_10  and  C_16
REMARK   10  A    between atoms: C_11  and  C_17
REMARK   11  A    between atoms: C_14  and  C_18
REMARK   12  A    between atoms: C_19  and  C_20
REMARK   13  A    between atoms: C_20  and  C_21
REMARK   14  A    between atoms: C_20  and  C_22
REMARK   15  A    between atoms: C_20  and  C_23
REMARK   16  A    between atoms: C_24  and  C_25
REMARK                            x       y       z     vdW  Elec       q    Type
REMARK                         _______ _______ _______ _____ _____    ______ ____
ROOT
ATOM      6  C   UNL     1      -3.538   2.688  25.312  0.00  0.00    +0.000 C 
ATOM      7  C   UNL     1      -3.475   2.743  23.764  0.00  0.00    +0.032 C 
ATOM      8  C   UNL     1      -2.867   3.930  25.919  0.00  0.00    +0.012 C 
ATOM      9  C   UNL     1      -1.392   4.061  25.496  0.00  0.00    +0.023 C 
ATOM     11  C   UNL     1      -1.215   3.858  24.004  0.00  0.00    -0.073 C 
ATOM     12  C   UNL     1      -2.162   3.279  23.245  0.00  0.00    -0.022 C 
ATOM     17  C   UNL     1       0.059   4.377  23.397  0.00  0.00    +0.039 C 
ENDROOT
BRANCH   6  10
ATOM     10  C   UNL     1      -4.980   2.577  25.819  0.00  0.00    -0.013 C 
ATOM     15  C   UNL     1      -5.689   3.922  25.702  0.00  0.00    +0.007 C 
ATOM     16  C   UNL     1      -5.733   1.497  25.049  0.00  0.00    +0.007 C 
ENDBRANCH   6  10
BRANCH   7  13
ATOM     13  C   UNL     1      -3.742   1.363  23.151  0.00  0.00    +0.112 C 
BRANCH  13   4
ATOM      2  O   UNL     1      -4.573  -1.362  23.214  0.00  0.00    -0.275 OA
ATOM      4  N   UNL     1      -3.192   0.329  23.970  0.00  0.00    -0.314 N 
ATOM     19  C   UNL     1      -3.656  -0.987  23.944  0.00  0.00    +0.218 C 
ATOM     32  H   UNL     1      -2.394   0.559  24.554  0.00  0.00    +0.149 HD
BRANCH  19  20
ATOM     20  C   UNL     1      -2.922  -1.948  24.903  0.00  0.00    +0.039 C 
ATOM     21  C   UNL     1      -3.140  -1.508  26.358  0.00  0.00    +0.020 C 
ATOM     22  C   UNL     1      -3.487  -3.370  24.731  0.00  0.00    +0.020 C 
ATOM     23  C   UNL     1      -1.422  -1.976  24.576  0.00  0.00    +0.020 C 
ENDBRANCH  19  20
ENDBRANCH  13   4
ENDBRANCH   7  13
BRANCH   9  14
ATOM     14  C   UNL     1      -0.501   3.100  26.290  0.00  0.00    +0.103 C 
BRANCH  14  18
ATOM      1  O   UNL     1      -0.953   0.730  26.120  0.00  0.00    -0.276 OA
ATOM      5  N   UNL     1       0.311   1.774  24.473  0.00  0.00    -0.311 N 
ATOM     18  C   UNL     1      -0.426   1.733  25.648  0.00  0.00    +0.214 C 
ATOM     33  H   UNL     1       0.710   2.656  24.163  0.00  0.00    +0.149 HD
BRANCH   5  24
ATOM     24  C   UNL     1       0.549   0.612  23.650  0.00  0.00    +0.139 C 
BRANCH  24  25
ATOM     25  C   UNL     1       2.013   0.385  23.406  0.00  0.00    -0.030 A 
ATOM     26  C   UNL     1       2.576  -0.868  23.650  0.00  0.00    +0.009 A 
ATOM     27  C   UNL     1       2.810   1.427  22.932  0.00  0.00    +0.009 A 
ATOM     28  C   UNL     1       3.936  -1.078  23.422  0.00  0.00    +0.046 A 
ATOM     29  C   UNL     1       4.170   1.217  22.704  0.00  0.00    +0.046 A 
ATOM     30  C   UNL     1       4.732  -0.036  22.949  0.00  0.00    +0.120 A 
BRANCH  30   3
ATOM      3  O   UNL     1       6.059  -0.241  22.725  0.00  0.00    -0.495 OA
ATOM     31  C   UNL     1       6.867  -0.562  23.857  0.00  0.00    +0.277 C 
ENDBRANCH  30   3
ENDBRANCH  24  25
ENDBRANCH   5  24
ENDBRANCH  14  18
ENDBRANCH   9  14
TORSDOF 9
ENDMDL
MODEL 3
REMARK VINA RESULT:      -0.7      1.939      5.066
REMARK  Name = 38027864
REMARK  16 active torsions:
REMARK  status: ('A' for Active; 'I' for Inactive)
REMARK    1  A    between atoms: O_3  and  C_30
REMARK    2  A    between atoms: O_3  and  C_31
REMARK    3  A    between atoms: N_4  and  C_13
REMARK    4  A    between atoms: N_5  and  C_24
REMARK    5  A    between atoms: C_6  and  C_10
REMARK    6  A    between atoms: C_7  and  C_13
REMARK    7  A    between atoms: C_9  and  C_14
REMARK    8  A    between atoms: C_10  and  C_15
REMARK    9  A    between atoms: C_10  and  C_16
REMARK   10  A    between atoms: C_11  and  C_17
REMARK   11  A    between atoms: C_14  and  C_18
REMARK   12  A    between atoms: C_19  and  C_20
REMARK   13  A    between atoms: C_20  and  C_21
REMARK   14  A    between atoms: C_20  and  C_22
REMARK   15  A    between atoms: C_20  and  C_23
REMARK   16  A    between atoms: C_24  and  C_25
REMARK                            x       y       z     vdW  Elec       q    Type
REMARK                         _______ _______ _______ _____ _____    ______ ____
ROOT
ATOM      6  C   UNL     1      -2.317   2.297  23.653  0.00  0.00    +0.000 C 
ATOM      7  C   UNL     1      -0.937   2.888  24.036  0.00  0.00    +0.032 C 
ATOM      8  C   UNL     1      -3.282   3.417  23.235  0.00  0.00    +0.012 C 
ATOM      9  C   UNL     1      -3.491   4.455  24.354  0.00  0.00    +0.023 C 
ATOM     11  C   UNL     1      -2.175   4.889  24.969  0.00  0.00    -0.073 C 
ATOM     12  C   UNL     1      -1.042   4.183  24.806  0.00  0.00    -0.022 C 
ATOM     17  C   UNL     1      -2.183   6.180  25.741  0.00  0.00    +0.039 C 
ENDROOT
BRANCH   6  10
ATOM     10  C   UNL     1      -2.201   1.265  22.526  0.00  0.00    -0.013 C 
ATOM     15  C   UNL     1      -3.266   0.184  22.683  0.00  0.00    +0.007 C 
ATOM     16  C   UNL     1      -2.318   1.946  21.166  0.00  0.00    +0.007 C 
ENDBRANCH   6  10
BRANCH   7  13
ATOM     13  C   UNL     1      -0.109   1.880  24.842  0.00  0.00    +0.112 C 
BRANCH  13   4
ATOM      2  O   UNL     1       0.369  -0.509  23.366  0.00  0.00    -0.275 OA
ATOM      4  N   UNL     1       1.093   1.541  24.148  0.00  0.00    -0.314 N 
ATOM     19  C   UNL     1       1.251   0.345  23.445  0.00  0.00    +0.218 C 
ATOM     32  H   UNL     1       1.840   2.228  24.127  0.00  0.00    +0.149 HD
BRANCH  19  20
ATOM     20  C   UNL     1       2.626   0.176  22.764  0.00  0.00    +0.039 C 
ATOM     21  C   UNL     1       3.421  -0.944  23.451  0.00  0.00    +0.020 C 
ATOM     22  C   UNL     1       2.418  -0.206  21.287  0.00  0.00    +0.020 C 
ATOM     23  C   UNL     1       3.409   1.495  22.822  0.00  0.00    +0.020 C 
ENDBRANCH  19  20
ENDBRANCH  13   4
ENDBRANCH   7  13
BRANCH   9  14
ATOM     14  C   UNL     1      -4.450   3.927  25.426  0.00  0.00    +0.103 C 
BRANCH  14  18
ATOM      1  O   UNL     1      -5.923   2.503  24.138  0.00  0.00    -0.276 OA
ATOM      5  N   UNL     1      -4.584   1.568  25.792  0.00  0.00    -0.311 N 
ATOM     18  C   UNL     1      -5.081   2.612  25.026  0.00  0.00    +0.214 C 
ATOM     33  H   UNL     1      -3.886   1.759  26.506  0.00  0.00    +0.149 HD
BRANCH   5  24
ATOM     24  C   UNL     1      -5.010   0.198  25.630  0.00  0.00    +0.139 C 
BRANCH  24  25
ATOM     25  C   UNL     1      -3.847  -0.736  25.456  0.00  0.00    -0.030 A 
ATOM     26  C   UNL     1      -4.007  -1.925  24.743  0.00  0.00    +0.009 A 
ATOM     27  C   UNL     1      -2.607  -0.414  26.006  0.00  0.00    +0.009 A 
ATOM     28  C   UNL     1      -2.926  -2.792  24.581  0.00  0.00    +0.046 A 
ATOM     29  C   UNL     1      -1.526  -1.281  25.844  0.00  0.00    +0.046 A 
ATOM     30  C   UNL     1      -1.686  -2.469  25.132  0.00  0.00    +0.120 A 
BRANCH  30   3
ATOM      3  O   UNL     1      -0.631  -3.314  24.973  0.00  0.00    -0.495 OA
ATOM     31  C   UNL     1       0.626  -2.892  25.501  0.00  0.00    +0.277 C 
ENDBRANCH  30   3
ENDBRANCH  24  25
ENDBRANCH   5  24
ENDBRANCH  14  18
ENDBRANCH   9  14
TORSDOF 9
ENDMDL
MODEL 4
REMARK VINA RESULT:      -0.7      1.914      7.188
REMARK  Name = 38027864
REMARK  16 active torsions:
REMARK  status: ('A' for Active; 'I' for Inactive)
REMARK    1  A    between atoms: O_3  and  C_30
REMARK    2  A    between atoms: O_3  and  C_31
REMARK    3  A    between atoms: N_4  and  C_13
REMARK    4  A    between atoms: N_5  and  C_24
REMARK    5  A    between atoms: C_6  and  C_10
REMARK    6  A    between atoms: C_7  and  C_13
REMARK    7  A    between atoms: C_9  and  C_14
REMARK    8  A    between atoms: C_10  and  C_15
REMARK    9  A    between atoms: C_10  and  C_16
REMARK   10  A    between atoms: C_11  and  C_17
REMARK   11  A    between atoms: C_14  and  C_18
REMARK   12  A    between atoms: C_19  and  C_20
REMARK   13  A    between atoms: C_20  and  C_21
REMARK   14  A    between atoms: C_20  and  C_22
REMARK   15  A    between atoms: C_20  and  C_23
REMARK   16  A    between atoms: C_24  and  C_25
REMARK                            x       y       z     vdW  Elec       q    Type
REMARK                         _______ _______ _______ _____ _____    ______ ____
ROOT
ATOM      6  C   UNL     1      -3.653   3.062  25.380  0.00  0.00    +0.000 C 
ATOM      7  C   UNL     1      -4.453   2.036  24.538  0.00  0.00    +0.032 C 
ATOM      8  C   UNL     1      -2.876   4.017  24.461  0.00  0.00    +0.012 C 
ATOM      9  C   UNL     1      -1.893   3.270  23.540  0.00  0.00    +0.023 C 
ATOM     11  C   UNL     1      -2.544   2.073  22.876  0.00  0.00    -0.073 C 
ATOM     12  C   UNL     1      -3.695   1.543  23.329  0.00  0.00    -0.022 C 
ATOM     17  C   UNL     1      -1.865   1.526  21.652  0.00  0.00    +0.039 C 
ENDROOT
BRANCH   6  10
ATOM     10  C   UNL     1      -4.564   3.867  26.313  0.00  0.00    -0.013 C 
ATOM     15  C   UNL     1      -3.807   5.052  26.903  0.00  0.00    +0.007 C 
ATOM     16  C   UNL     1      -5.809   4.336  25.566  0.00  0.00    +0.007 C 
ENDBRANCH   6  10
BRANCH   7  13
ATOM     13  C   UNL     1      -4.885   0.838  25.393  0.00  0.00    +0.112 C 
BRANCH  13   4
ATOM      2  O   UNL     1      -2.977  -0.971  26.494  0.00  0.00    -0.275 OA
ATOM      4  N   UNL     1      -4.445  -0.389  24.806  0.00  0.00    -0.314 N 
ATOM     19  C   UNL     1      -3.503  -1.224  25.409  0.00  0.00    +0.218 C 
ATOM     32  H   UNL     1      -4.882  -0.684  23.939  0.00  0.00    +0.149 HD
BRANCH  19  20
ATOM     20  C   UNL     1      -3.170  -2.502  24.611  0.00  0.00    +0.039 C 
ATOM     21  C   UNL     1      -1.712  -2.459  24.132  0.00  0.00    +0.020 C 
ATOM     22  C   UNL     1      -3.352  -3.731  25.519  0.00  0.00    +0.020 C 
ATOM     23  C   UNL     1      -4.119  -2.636  23.411  0.00  0.00    +0.020 C 
ENDBRANCH  19  20
ENDBRANCH  13   4
ENDBRANCH   7  13
BRANCH   9  14
ATOM     14  C   UNL     1      -0.629   2.855  24.301  0.00  0.00    +0.103 C 
BRANCH  14  18
ATOM      1  O   UNL     1      -0.913   0.479  24.655  0.00  0.00    -0.276 OA
ATOM      5  N   UNL     1       0.767   1.232  23.236  0.00  0.00    -0.311 N 
ATOM     18  C   UNL     1      -0.303   1.392  24.106  0.00  0.00    +0.214 C 
ATOM     33  H   UNL     1       1.208   2.052  22.830  0.00  0.00    +0.149 HD
BRANCH   5  24
ATOM     24  C   UNL     1       1.297  -0.059  22.867  0.00  0.00    +0.139 C 
BRANCH  24  25
ATOM     25  C   UNL     1       2.774  -0.155  23.122  0.00  0.00    -0.030 A 
ATOM     26  C   UNL     1       3.601   0.937  22.858  0.00  0.00    +0.009 A 
ATOM     27  C   UNL     1       3.318  -1.336  23.627  0.00  0.00    +0.009 A 
ATOM     28  C   UNL     1       4.972   0.847  23.096  0.00  0.00    +0.046 A 
ATOM     29  C   UNL     1       4.689  -1.426  23.866  0.00  0.00    +0.046 A 
ATOM     30  C   UNL     1       5.516  -0.334  23.601  0.00  0.00    +0.120 A 
BRANCH  30   3
ATOM      3  O   UNL     1       6.853  -0.422  23.835  0.00  0.00    -0.495 OA
ATOM     31  C   UNL     1       7.691  -0.720  22.718  0.00  0.00    +0.277 C 
ENDBRANCH  30   3
ENDBRANCH  24  25
ENDBRANCH   5  24
ENDBRANCH  14  18
ENDBRANCH   9  14
TORSDOF 9
ENDMDL
MODEL 5
REMARK VINA RESULT:       0.6      1.757      3.722
REMARK  Name = 38027864
REMARK  16 active torsions:
REMARK  status: ('A' for Active; 'I' for Inactive)
REMARK    1  A    between atoms: O_3  and  C_30
REMARK    2  A    between atoms: O_3  and  C_31
REMARK    3  A    between atoms: N_4  and  C_13
REMARK    4  A    between atoms: N_5  and  C_24
REMARK    5  A    between atoms: C_6  and  C_10
REMARK    6  A    between atoms: C_7  and  C_13
REMARK    7  A    between atoms: C_9  and  C_14
REMARK    8  A    between atoms: C_10  and  C_15
REMARK    9  A    between atoms: C_10  and  C_16
REMARK   10  A    between atoms: C_11  and  C_17
REMARK   11  A    between atoms: C_14  and  C_18
REMARK   12  A    between atoms: C_19  and  C_20
REMARK   13  A    between atoms: C_20  and  C_21
REMARK   14  A    between atoms: C_20  and  C_22
REMARK   15  A    between atoms: C_20  and  C_23
REMARK   16  A    between atoms: C_24  and  C_25
REMARK                            x       y       z     vdW  Elec       q    Type
REMARK                         _______ _______ _______ _____ _____    ______ ____
ROOT
ATOM      6  C   UNL     1      -3.320  -0.914  24.889  0.00  0.00    +0.000 C 
ATOM      7  C   UNL     1      -2.233  -0.191  24.054  0.00  0.00    +0.032 C 
ATOM      8  C   UNL     1      -4.711  -0.667  24.285  0.00  0.00    +0.012 C 
ATOM      9  C   UNL     1      -5.061   0.832  24.221  0.00  0.00    +0.023 C 
ATOM     11  C   UNL     1      -3.921   1.652  23.652  0.00  0.00    -0.073 C 
ATOM     12  C   UNL     1      -2.667   1.173  23.573  0.00  0.00    -0.022 C 
ATOM     17  C   UNL     1      -4.266   3.020  23.132  0.00  0.00    +0.039 C 
ENDROOT
BRANCH   6  10
ATOM     10  C   UNL     1      -3.056  -2.420  24.985  0.00  0.00    -0.013 C 
ATOM     15  C   UNL     1      -4.036  -3.188  24.103  0.00  0.00    +0.007 C 
ATOM     16  C   UNL     1      -1.615  -2.734  24.595  0.00  0.00    +0.007 C 
ENDBRANCH   6  10
BRANCH   7  13
ATOM     13  C   UNL     1      -0.924  -0.063  24.843  0.00  0.00    +0.112 C 
BRANCH  13   4
ATOM      2  O   UNL     1       1.238   1.678  24.199  0.00  0.00    -0.275 OA
ATOM      4  N   UNL     1       0.199  -0.378  24.018  0.00  0.00    -0.314 N 
ATOM     19  C   UNL     1       1.222   0.532  23.748  0.00  0.00    +0.218 C 
ATOM     32  H   UNL     1       0.275  -1.325  23.660  0.00  0.00    +0.149 HD
BRANCH  19  20
ATOM     20  C   UNL     1       2.343  -0.010  22.837  0.00  0.00    +0.039 C 
ATOM     21  C   UNL     1       3.019  -1.221  23.497  0.00  0.00    +0.020 C 
ATOM     22  C   UNL     1       1.737  -0.457  21.494  0.00  0.00    +0.020 C 
ATOM     23  C   UNL     1       3.378   1.091  22.563  0.00  0.00    +0.020 C 
ENDBRANCH  19  20
ENDBRANCH  13   4
ENDBRANCH   7  13
BRANCH   9  14
ATOM     14  C   UNL     1      -5.483   1.360  25.597  0.00  0.00    +0.103 C 
BRANCH  14  18
ATOM      1  O   UNL     1      -5.807   3.754  25.477  0.00  0.00    -0.276 OA
ATOM      5  N   UNL     1      -3.835   2.910  26.370  0.00  0.00    -0.311 N 
ATOM     18  C   UNL     1      -5.093   2.807  25.794  0.00  0.00    +0.214 C 
ATOM     33  H   UNL     1      -3.318   2.065  26.597  0.00  0.00    +0.149 HD
BRANCH   5  24
ATOM     24  C   UNL     1      -3.206   4.174  26.671  0.00  0.00    +0.139 C 
BRANCH  24  25
ATOM     25  C   UNL     1      -2.080   4.482  25.727  0.00  0.00    -0.030 A 
ATOM     26  C   UNL     1      -1.957   5.759  25.179  0.00  0.00    +0.009 A 
ATOM     27  C   UNL     1      -1.155   3.491  25.400  0.00  0.00    +0.009 A 
ATOM     28  C   UNL     1      -0.911   6.045  24.302  0.00  0.00    +0.046 A 
ATOM     29  C   UNL     1      -0.108   3.777  24.523  0.00  0.00    +0.046 A 
ATOM     30  C   UNL     1       0.014   5.053  23.975  0.00  0.00    +0.120 A 
BRANCH  30   3
ATOM      3  O   UNL     1       1.036   5.332  23.121  0.00  0.00    -0.495 OA
ATOM     31  C   UNL     1       0.686   5.738  21.798  0.00  0.00    +0.277 C 
ENDBRANCH  30   3
ENDBRANCH  24  25
ENDBRANCH   5  24
ENDBRANCH  14  18
ENDBRANCH   9  14
TORSDOF 9
ENDMDL
MODEL 6
REMARK VINA RESULT:       0.8      1.879      5.826
REMARK  Name = 38027864
REMARK  16 active torsions:
REMARK  status: ('A' for Active; 'I' for Inactive)
REMARK    1  A    between atoms: O_3  and  C_30
REMARK    2  A    between atoms: O_3  and  C_31
REMARK    3  A    between atoms: N_4  and  C_13
REMARK    4  A    between atoms: N_5  and  C_24
REMARK    5  A    between atoms: C_6  and  C_10
REMARK    6  A    between atoms: C_7  and  C_13
REMARK    7  A    between atoms: C_9  and  C_14
REMARK    8  A    between atoms: C_10  and  C_15
REMARK    9  A    between atoms: C_10  and  C_16
REMARK   10  A    between atoms: C_11  and  C_17
REMARK   11  A    between atoms: C_14  and  C_18
REMARK   12  A    between atoms: C_19  and  C_20
REMARK   13  A    between atoms: C_20  and  C_21
REMARK   14  A    between atoms: C_20  and  C_22
REMARK   15  A    between atoms: C_20  and  C_23
REMARK   16  A    between atoms: C_24  and  C_25
REMARK                            x       y       z     vdW  Elec       q    Type
REMARK                         _______ _______ _______ _____ _____    ______ ____
ROOT
ATOM      6  C   UNL     1      -3.557   2.468  23.659  0.00  0.00    +0.000 C 
ATOM      7  C   UNL     1      -4.149   3.756  24.286  0.00  0.00    +0.032 C 
ATOM      8  C   UNL     1      -4.638   1.382  23.549  0.00  0.00    +0.012 C 
ATOM      9  C   UNL     1      -5.245   1.023  24.919  0.00  0.00    +0.023 C 
ATOM     11  C   UNL     1      -5.609   2.261  25.714  0.00  0.00    -0.073 C 
ATOM     12  C   UNL     1      -5.119   3.475  25.409  0.00  0.00    -0.022 C 
ATOM     17  C   UNL     1      -6.585   2.077  26.843  0.00  0.00    +0.039 C 
ENDROOT
BRANCH   6  10
ATOM     10  C   UNL     1      -2.948   2.735  22.279  0.00  0.00    -0.013 C 
ATOM     15  C   UNL     1      -2.534   1.424  21.618  0.00  0.00    +0.007 C 
ATOM     16  C   UNL     1      -3.935   3.497  21.400  0.00  0.00    +0.007 C 
ENDBRANCH   6  10
BRANCH   7  13
ATOM     13  C   UNL     1      -3.038   4.685  24.791  0.00  0.00    +0.112 C 
BRANCH  13   4
ATOM      2  O   UNL     1      -2.248   3.180  27.079  0.00  0.00    -0.275 OA
ATOM      4  N   UNL     1      -1.811   3.968  24.951  0.00  0.00    -0.314 N 
ATOM     19  C   UNL     1      -1.496   3.253  26.107  0.00  0.00    +0.218 C 
ATOM     32  H   UNL     1      -1.171   3.941  24.164  0.00  0.00    +0.149 HD
BRANCH  19  20
ATOM     20  C   UNL     1      -0.123   2.548  26.074  0.00  0.00    +0.039 C 
ATOM     21  C   UNL     1       0.762   3.064  27.218  0.00  0.00    +0.020 C 
ATOM     22  C   UNL     1      -0.324   1.032  26.254  0.00  0.00    +0.020 C 
ATOM     23  C   UNL     1       0.563   2.793  24.722  0.00  0.00    +0.020 C 
ENDBRANCH  19  20
ENDBRANCH  13   4
ENDBRANCH   7  13
BRANCH   9  14
ATOM     14  C   UNL     1      -4.307   0.113  25.718  0.00  0.00    +0.103 C 
BRANCH  14  18
ATOM      1  O   UNL     1      -4.282  -1.614  24.024  0.00  0.00    -0.276 OA
ATOM      5  N   UNL     1      -2.307  -1.052  25.115  0.00  0.00    -0.311 N 
ATOM     18  C   UNL     1      -3.665  -0.946  24.849  0.00  0.00    +0.214 C 
ATOM     33  H   UNL     1      -1.887  -0.452  25.819  0.00  0.00    +0.149 HD
BRANCH   5  24
ATOM     24  C   UNL     1      -1.441  -1.985  24.434  0.00  0.00    +0.139 C 
BRANCH  24  25
ATOM     25  C   UNL     1      -0.213  -1.317  23.887  0.00  0.00    -0.030 A 
ATOM     26  C   UNL     1      -0.329  -0.358  22.881  0.00  0.00    +0.009 A 
ATOM     27  C   UNL     1       1.044  -1.655  24.387  0.00  0.00    +0.009 A 
ATOM     28  C   UNL     1       0.813   0.263  22.374  0.00  0.00    +0.046 A 
ATOM     29  C   UNL     1       2.186  -1.034  23.881  0.00  0.00    +0.046 A 
ATOM     30  C   UNL     1       2.070  -0.075  22.874  0.00  0.00    +0.120 A 
BRANCH  30   3
ATOM      3  O   UNL     1       3.184   0.531  22.381  0.00  0.00    -0.495 OA
ATOM     31  C   UNL     1       4.376   0.434  23.160  0.00  0.00    +0.277 C 
ENDBRANCH  30   3
ENDBRANCH  24  25
ENDBRANCH   5  24
ENDBRANCH  14  18
ENDBRANCH   9  14
TORSDOF 9
ENDMDL
MODEL 7
REMARK VINA RESULT:       1.3      2.048      6.628
REMARK  Name = 38027864
REMARK  16 active torsions:
REMARK  status: ('A' for Active; 'I' for Inactive)
REMARK    1  A    between atoms: O_3  and  C_30
REMARK    2  A    between atoms: O_3  and  C_31
REMARK    3  A    between atoms: N_4  and  C_13
REMARK    4  A    between atoms: N_5  and  C_24
REMARK    5  A    between atoms: C_6  and  C_10
REMARK    6  A    between atoms: C_7  and  C_13
REMARK    7  A    between atoms: C_9  and  C_14
REMARK    8  A    between atoms: C_10  and  C_15
REMARK    9  A    between atoms: C_10  and  C_16
REMARK   10  A    between atoms: C_11  and  C_17
REMARK   11  A    between atoms: C_14  and  C_18
REMARK   12  A    between atoms: C_19  and  C_20
REMARK   13  A    between atoms: C_20  and  C_21
REMARK   14  A    between atoms: C_20  and  C_22
REMARK   15  A    between atoms: C_20  and  C_23
REMARK   16  A    between atoms: C_24  and  C_25
REMARK                            x       y       z     vdW  Elec       q    Type
REMARK                         _______ _______ _______ _____ _____    ______ ____
ROOT
ATOM      6  C   UNL     1      -3.432   1.449  23.643  0.00  0.00    +0.000 C 
ATOM      7  C   UNL     1      -4.536   1.616  24.718  0.00  0.00    +0.032 C 
ATOM      8  C   UNL     1      -3.252  -0.034  23.287  0.00  0.00    +0.012 C 
ATOM      9  C   UNL     1      -2.872  -0.887  24.512  0.00  0.00    +0.023 C 
ATOM     11  C   UNL     1      -3.755  -0.580  25.706  0.00  0.00    -0.073 C 
ATOM     12  C   UNL     1      -4.501   0.537  25.774  0.00  0.00    -0.022 C 
ATOM     17  C   UNL     1      -3.795  -1.610  26.800  0.00  0.00    +0.039 C 
ENDROOT
BRANCH   6  10
ATOM     10  C   UNL     1      -3.744   2.253  22.377  0.00  0.00    -0.013 C 
ATOM     15  C   UNL     1      -4.091   3.695  22.734  0.00  0.00    +0.007 C 
ATOM     16  C   UNL     1      -2.565   2.202  21.410  0.00  0.00    +0.007 C 
ENDBRANCH   6  10
BRANCH   7  13
ATOM     13  C   UNL     1      -4.450   2.991  25.390  0.00  0.00    +0.112 C 
BRANCH  13   4
ATOM      2  O   UNL     1      -1.873   2.231  26.340  0.00  0.00    -0.275 OA
ATOM      4  N   UNL     1      -3.210   3.631  25.078  0.00  0.00    -0.314 N 
ATOM     19  C   UNL     1      -1.984   3.198  25.586  0.00  0.00    +0.218 C 
ATOM     32  H   UNL     1      -3.226   4.401  24.416  0.00  0.00    +0.149 HD
BRANCH  19  20
ATOM     20  C   UNL     1      -0.767   4.026  25.123  0.00  0.00    +0.039 C 
ATOM     21  C   UNL     1      -1.121   5.520  25.107  0.00  0.00    +0.020 C 
ATOM     22  C   UNL     1       0.400   3.809  26.104  0.00  0.00    +0.020 C 
ATOM     23  C   UNL     1      -0.321   3.572  23.725  0.00  0.00    +0.020 C 
ENDBRANCH  19  20
ENDBRANCH  13   4
ENDBRANCH   7  13
BRANCH   9  14
ATOM     14  C   UNL     1      -1.391  -0.716  24.867  0.00  0.00    +0.103 C 
BRANCH  14  18
ATOM      1  O   UNL     1      -0.453  -2.229  23.230  0.00  0.00    -0.276 OA
ATOM      5  N   UNL     1       0.294  -0.030  23.316  0.00  0.00    -0.311 N 
ATOM     18  C   UNL     1      -0.484  -1.105  23.722  0.00  0.00    +0.214 C 
ATOM     33  H   UNL     1       0.195   0.865  23.787  0.00  0.00    +0.149 HD
BRANCH   5  24
ATOM     24  C   UNL     1       1.254  -0.113  22.241  0.00  0.00    +0.139 C 
BRANCH  24  25
ATOM     25  C   UNL     1       2.667  -0.135  22.749  0.00  0.00    -0.030 A 
ATOM     26  C   UNL     1       3.181  -1.292  23.333  0.00  0.00    +0.009 A 
ATOM     27  C   UNL     1       3.466   1.002  22.633  0.00  0.00    +0.009 A 
ATOM     28  C   UNL     1       4.494  -1.312  23.804  0.00  0.00    +0.046 A 
ATOM     29  C   UNL     1       4.779   0.983  23.104  0.00  0.00    +0.046 A 
ATOM     30  C   UNL     1       5.293  -0.175  23.689  0.00  0.00    +0.120 A 
BRANCH  30   3
ATOM      3  O   UNL     1       6.574  -0.194  24.146  0.00  0.00    -0.495 OA
ATOM     31  C   UNL     1       7.599  -0.482  23.196  0.00  0.00    +0.277 C 
ENDBRANCH  30   3
ENDBRANCH  24  25
ENDBRANCH   5  24
ENDBRANCH  14  18
ENDBRANCH   9  14
TORSDOF 9
ENDMDL
