MODEL 1
REMARK VINA RESULT:       2.7      0.000      0.000
REMARK  Name = 45783288
REMARK  4 active torsions:
REMARK  status: ('A' for Active; 'I' for Inactive)
REMARK    1  A    between atoms: N_4  and  C_13
REMARK    2  A    between atoms: C_9  and  C_14
REMARK    3  A    between atoms: C_13  and  C_15
REMARK    4  A    between atoms: C_16  and  C_21
REMARK                            x       y       z     vdW  Elec       q    Type
REMARK                         _______ _______ _______ _____ _____    ______ ____
ROOT
ATOM      2  O   UNL     1      -2.304  -0.872  25.821  0.00  0.00    -0.336 OA
ATOM      5  N   UNL     1      -2.058   0.580  24.133  0.00  0.00    -0.190 NA
ATOM      7  N   UNL     1      -1.126  -1.241  25.158  0.00  0.00    -0.056 NA
ATOM     14  C   UNL     1      -2.789   0.208  25.154  0.00  0.00    +0.245 A 
ATOM     16  C   UNL     1      -1.049  -0.339  24.175  0.00  0.00    +0.202 A 
ENDROOT
BRANCH  16  21
ATOM      3  O   UNL     1       6.386  -0.402  23.823  0.00  0.00    -0.377 OA
ATOM      6  N   UNL     1       3.663  -0.279  23.138  0.00  0.00    -0.311 N 
ATOM      8  N   UNL     1       2.104  -0.308  21.357  0.00  0.00    -0.240 NA
ATOM     19  C   UNL     1       4.167  -1.371  23.978  0.00  0.00    +0.134 C 
ATOM     20  C   UNL     1       4.671   0.379  22.295  0.00  0.00    +0.134 C 
ATOM     21  C   UNL     1       0.020  -0.328  23.220  0.00  0.00    +0.027 A 
ATOM     22  C   UNL     1       2.338  -0.300  22.688  0.00  0.00    +0.122 A 
ATOM     23  C   UNL     1       5.409  -0.909  24.732  0.00  0.00    +0.178 C 
ATOM     24  C   UNL     1       5.886   0.747  23.139  0.00  0.00    +0.178 C 
ATOM     25  C   UNL     1       1.342  -0.309  23.651  0.00  0.00    +0.055 A 
ATOM     28  C   UNL     1      -0.261  -0.336  21.858  0.00  0.00    +0.031 A 
ATOM     30  C   UNL     1       0.807  -0.326  20.975  0.00  0.00    +0.113 A 
ENDBRANCH  16  21
BRANCH  14   9
ATOM      4  N   UNL     1      -4.201   2.245  25.375  0.00  0.00    -0.287 NA
ATOM      9  C   UNL     1      -4.075   0.806  25.683  0.00  0.00    +0.146 C 
ATOM     10  C   UNL     1      -5.329   0.164  25.061  0.00  0.00    +0.030 C 
ATOM     11  C   UNL     1      -6.126   1.323  24.483  0.00  0.00    +0.017 C 
ATOM     12  C   UNL     1      -5.633   2.522  25.269  0.00  0.00    +0.085 C 
BRANCH   4  13
ATOM     13  C   UNL     1      -3.548   3.101  26.358  0.00  0.00    +0.123 C 
BRANCH  13  15
ATOM      1  F   UNL     1      -0.913   2.062  26.449  0.00  0.00    -0.205 F 
ATOM     15  C   UNL     1      -2.361   3.820  25.776  0.00  0.00    +0.002 A 
ATOM     17  C   UNL     1      -1.090   3.251  25.855  0.00  0.00    +0.128 A 
ATOM     18  C   UNL     1      -2.533   5.057  25.155  0.00  0.00    +0.008 A 
ATOM     26  C   UNL     1       0.009   3.919  25.314  0.00  0.00    +0.038 A 
ATOM     27  C   UNL     1      -1.435   5.726  24.614  0.00  0.00    +0.000 A 
ATOM     29  C   UNL     1      -0.164   5.157  24.694  0.00  0.00    +0.003 A 
ENDBRANCH  13  15
ENDBRANCH   4  13
ENDBRANCH  14   9
TORSDOF 4
ENDMDL
MODEL 2
REMARK VINA RESULT:       3.3      2.135      3.561
REMARK  Name = 45783288
REMARK  4 active torsions:
REMARK  status: ('A' for Active; 'I' for Inactive)
REMARK    1  A    between atoms: N_4  and  C_13
REMARK    2  A    between atoms: C_9  and  C_14
REMARK    3  A    between atoms: C_13  and  C_15
REMARK    4  A    between atoms: C_16  and  C_21
REMARK                            x       y       z     vdW  Elec       q    Type
REMARK                         _______ _______ _______ _____ _____    ______ ____
ROOT
ATOM      2  O   UNL     1      -1.616   2.528  25.051  0.00  0.00    -0.336 OA
ATOM      5  N   UNL     1      -1.912   1.265  23.226  0.00  0.00    -0.190 NA
ATOM      7  N   UNL     1      -0.343   2.068  24.686  0.00  0.00    -0.056 NA
ATOM     14  C   UNL     1      -2.480   2.009  24.140  0.00  0.00    +0.245 A 
ATOM     16  C   UNL     1      -0.601   1.330  23.602  0.00  0.00    +0.202 A 
ENDROOT
BRANCH  16  21
ATOM      3  O   UNL     1       6.632  -0.376  24.032  0.00  0.00    -0.377 OA
ATOM      6  N   UNL     1       3.990  -0.078  23.122  0.00  0.00    -0.311 N 
ATOM      8  N   UNL     1       2.429  -0.690  21.451  0.00  0.00    -0.240 NA
ATOM     19  C   UNL     1       4.258  -0.672  24.436  0.00  0.00    +0.134 C 
ATOM     20  C   UNL     1       5.101  -0.150  22.163  0.00  0.00    +0.134 C 
ATOM     21  C   UNL     1       0.427   0.646  22.872  0.00  0.00    +0.027 A 
ATOM     22  C   UNL     1       2.685  -0.059  22.618  0.00  0.00    +0.122 A 
ATOM     23  C   UNL     1       5.586  -0.151  24.976  0.00  0.00    +0.178 C 
ATOM     24  C   UNL     1       6.383   0.344  22.824  0.00  0.00    +0.178 C 
ATOM     25  C   UNL     1       1.729   0.617  23.361  0.00  0.00    +0.055 A 
ATOM     28  C   UNL     1       0.125   0.008  21.674  0.00  0.00    +0.031 A 
ATOM     30  C   UNL     1       1.153  -0.640  21.008  0.00  0.00    +0.113 A 
ENDBRANCH  16  21
BRANCH  14   9
ATOM      4  N   UNL     1      -4.547   1.705  25.493  0.00  0.00    -0.287 NA
ATOM      9  C   UNL     1      -3.941   2.365  24.318  0.00  0.00    +0.146 C 
ATOM     10  C   UNL     1      -4.161   3.870  24.559  0.00  0.00    +0.030 C 
ATOM     11  C   UNL     1      -4.950   3.954  25.857  0.00  0.00    +0.017 C 
ATOM     12  C   UNL     1      -5.609   2.593  25.963  0.00  0.00    +0.085 C 
BRANCH   4  13
ATOM     13  C   UNL     1      -5.040   0.364  25.206  0.00  0.00    +0.123 C 
BRANCH  13  15
ATOM      1  F   UNL     1      -5.097  -1.892  23.492  0.00  0.00    -0.205 F 
ATOM     15  C   UNL     1      -3.921  -0.641  25.132  0.00  0.00    +0.002 A 
ATOM     17  C   UNL     1      -4.013  -1.729  24.265  0.00  0.00    +0.128 A 
ATOM     18  C   UNL     1      -2.790  -0.482  25.933  0.00  0.00    +0.008 A 
ATOM     26  C   UNL     1      -2.975  -2.659  24.199  0.00  0.00    +0.038 A 
ATOM     27  C   UNL     1      -1.751  -1.410  25.867  0.00  0.00    +0.000 A 
ATOM     29  C   UNL     1      -1.844  -2.499  25.000  0.00  0.00    +0.003 A 
ENDBRANCH  13  15
ENDBRANCH   4  13
ENDBRANCH  14   9
TORSDOF 4
ENDMDL
MODEL 3
REMARK VINA RESULT:       4.2      2.230      7.224
REMARK  Name = 45783288
REMARK  4 active torsions:
REMARK  status: ('A' for Active; 'I' for Inactive)
REMARK    1  A    between atoms: N_4  and  C_13
REMARK    2  A    between atoms: C_9  and  C_14
REMARK    3  A    between atoms: C_13  and  C_15
REMARK    4  A    between atoms: C_16  and  C_21
REMARK                            x       y       z     vdW  Elec       q    Type
REMARK                         _______ _______ _______ _____ _____    ______ ____
ROOT
ATOM      2  O   UNL     1       1.080  -1.590  24.179  0.00  0.00    -0.336 OA
ATOM      5  N   UNL     1      -0.345  -0.105  23.293  0.00  0.00    -0.190 NA
ATOM      7  N   UNL     1      -0.195  -1.952  24.637  0.00  0.00    -0.056 NA
ATOM     14  C   UNL     1       0.901  -0.494  23.396  0.00  0.00    +0.245 A 
ATOM     16  C   UNL     1      -0.980  -1.030  24.072  0.00  0.00    +0.202 A 
ENDROOT
BRANCH  16  21
ATOM      3  O   UNL     1      -6.480   3.644  25.894  0.00  0.00    -0.377 OA
ATOM      6  N   UNL     1      -5.023   1.330  25.242  0.00  0.00    -0.311 N 
ATOM      8  N   UNL     1      -5.171  -0.953  24.637  0.00  0.00    -0.240 NA
ATOM     19  C   UNL     1      -4.919   2.531  24.406  0.00  0.00    +0.134 C 
ATOM     20  C   UNL     1      -6.246   1.234  26.052  0.00  0.00    +0.134 C 
ATOM     21  C   UNL     1      -2.401  -1.004  24.265  0.00  0.00    +0.027 A 
ATOM     22  C   UNL     1      -4.405   0.142  24.837  0.00  0.00    +0.122 A 
ATOM     23  C   UNL     1      -5.215   3.770  25.244  0.00  0.00    +0.178 C 
ATOM     24  C   UNL     1      -6.470   2.542  26.802  0.00  0.00    +0.178 C 
ATOM     25  C   UNL     1      -3.030   0.170  24.666  0.00  0.00    +0.055 A 
ATOM     28  C   UNL     1      -3.156  -2.153  24.050  0.00  0.00    +0.031 A 
ATOM     30  C   UNL     1      -4.525  -2.075  24.248  0.00  0.00    +0.113 A 
ENDBRANCH  16  21
BRANCH  14   9
ATOM      4  N   UNL     1       2.671   1.250  23.533  0.00  0.00    -0.287 NA
ATOM      9  C   UNL     1       2.146   0.099  22.771  0.00  0.00    +0.146 C 
ATOM     10  C   UNL     1       3.317  -0.900  22.718  0.00  0.00    +0.030 C 
ATOM     11  C   UNL     1       4.470  -0.199  23.420  0.00  0.00    +0.017 C 
ATOM     12  C   UNL     1       4.116   1.270  23.310  0.00  0.00    +0.085 C 
BRANCH   4  13
ATOM     13  C   UNL     1       2.041   2.513  23.169  0.00  0.00    +0.123 C 
BRANCH  13  15
ATOM      1  F   UNL     1       0.389   4.786  22.801  0.00  0.00    -0.205 F 
ATOM     15  C   UNL     1       0.894   2.852  24.083  0.00  0.00    +0.002 A 
ATOM     17  C   UNL     1       0.120   3.987  23.844  0.00  0.00    +0.128 A 
ATOM     18  C   UNL     1       0.606   2.029  25.172  0.00  0.00    +0.008 A 
ATOM     26  C   UNL     1      -0.942   4.300  24.693  0.00  0.00    +0.038 A 
ATOM     27  C   UNL     1      -0.456   2.339  26.020  0.00  0.00    +0.000 A 
ATOM     29  C   UNL     1      -1.230   3.475  25.781  0.00  0.00    +0.003 A 
ENDBRANCH  13  15
ENDBRANCH   4  13
ENDBRANCH  14   9
TORSDOF 4
ENDMDL
MODEL 4
REMARK VINA RESULT:       5.9      1.961      2.795
REMARK  Name = 45783288
REMARK  4 active torsions:
REMARK  status: ('A' for Active; 'I' for Inactive)
REMARK    1  A    between atoms: N_4  and  C_13
REMARK    2  A    between atoms: C_9  and  C_14
REMARK    3  A    between atoms: C_13  and  C_15
REMARK    4  A    between atoms: C_16  and  C_21
REMARK                            x       y       z     vdW  Elec       q    Type
REMARK                         _______ _______ _______ _____ _____    ______ ____
ROOT
ATOM      2  O   UNL     1      -5.146   0.320  24.648  0.00  0.00    -0.336 OA
ATOM      5  N   UNL     1      -3.177   1.001  25.471  0.00  0.00    -0.190 NA
ATOM      7  N   UNL     1      -4.202  -0.632  24.237  0.00  0.00    -0.056 NA
ATOM     14  C   UNL     1      -4.459   1.245  25.368  0.00  0.00    +0.245 A 
ATOM     16  C   UNL     1      -3.067  -0.161  24.761  0.00  0.00    +0.202 A 
ENDROOT
BRANCH  16  21
ATOM      3  O   UNL     1       3.837   1.088  22.272  0.00  0.00    -0.377 OA
ATOM      6  N   UNL     1       1.527  -0.154  23.282  0.00  0.00    -0.311 N 
ATOM      8  N   UNL     1       0.651  -2.117  24.273  0.00  0.00    -0.240 NA
ATOM     19  C   UNL     1       2.036   1.076  23.899  0.00  0.00    +0.134 C 
ATOM     20  C   UNL     1       2.517  -0.932  22.525  0.00  0.00    +0.134 C 
ATOM     21  C   UNL     1      -1.807  -0.824  24.595  0.00  0.00    +0.027 A 
ATOM     22  C   UNL     1       0.460  -0.840  23.873  0.00  0.00    +0.122 A 
ATOM     23  C   UNL     1       2.813   1.886  22.866  0.00  0.00    +0.178 C 
ATOM     24  C   UNL     1       3.267  -0.015  21.566  0.00  0.00    +0.178 C 
ATOM     25  C   UNL     1      -0.736  -0.155  24.011  0.00  0.00    +0.055 A 
ATOM     28  C   UNL     1      -1.649  -2.140  25.018  0.00  0.00    +0.031 A 
ATOM     30  C   UNL     1      -0.411  -2.735  24.836  0.00  0.00    +0.113 A 
ENDBRANCH  16  21
BRANCH  14   9
ATOM      4  N   UNL     1      -4.663   3.710  25.637  0.00  0.00    -0.287 NA
ATOM      9  C   UNL     1      -5.266   2.395  25.932  0.00  0.00    +0.146 C 
ATOM     10  C   UNL     1      -6.685   2.474  25.338  0.00  0.00    +0.030 C 
ATOM     11  C   UNL     1      -6.807   3.886  24.787  0.00  0.00    +0.017 C 
ATOM     12  C   UNL     1      -5.768   4.666  25.568  0.00  0.00    +0.085 C 
BRANCH   4  13
ATOM     13  C   UNL     1      -3.653   4.109  26.610  0.00  0.00    +0.123 C 
BRANCH  13  15
ATOM      1  F   UNL     1      -2.596   5.922  24.705  0.00  0.00    -0.205 F 
ATOM     15  C   UNL     1      -2.260   3.994  26.050  0.00  0.00    +0.002 A 
ATOM     17  C   UNL     1      -1.802   4.922  25.115  0.00  0.00    +0.128 A 
ATOM     18  C   UNL     1      -1.426   2.957  26.469  0.00  0.00    +0.008 A 
ATOM     26  C   UNL     1      -0.511   4.813  24.598  0.00  0.00    +0.038 A 
ATOM     27  C   UNL     1      -0.135   2.848  25.954  0.00  0.00    +0.000 A 
ATOM     29  C   UNL     1       0.322   3.776  25.018  0.00  0.00    +0.003 A 
ENDBRANCH  13  15
ENDBRANCH   4  13
ENDBRANCH  14   9
TORSDOF 4
ENDMDL
