MODEL 1
REMARK VINA RESULT:       2.3      0.000      0.000
REMARK  Name = 26745395
REMARK  5 active torsions:
REMARK  status: ('A' for Active; 'I' for Inactive)
REMARK    1  A    between atoms: N_4  and  C_19
REMARK    2  A    between atoms: C_7  and  C_14
REMARK    3  A    between atoms: C_12  and  C_13
REMARK    4  A    between atoms: C_14  and  C_20
REMARK    5  A    between atoms: C_19  and  C_21
REMARK                            x       y       z     vdW  Elec       q    Type
REMARK                         _______ _______ _______ _____ _____    ______ ____
ROOT
ATOM      4  N   UNL     1      -0.337   0.557  24.598  0.00  0.00    -0.281 NA
ATOM      5  N   UNL     1       1.886  -0.901  21.959  0.00  0.00    -0.347 N 
ATOM      6  N   UNL     1       3.061   0.987  22.200  0.00  0.00    -0.240 NA
ATOM     12  C   UNL     1       0.757   1.366  25.207  0.00  0.00    +0.150 C 
ATOM     15  C   UNL     1       1.755   1.940  24.156  0.00  0.00    +0.085 C 
ATOM     16  C   UNL     1       0.191  -0.626  23.859  0.00  0.00    +0.140 C 
ATOM     17  C   UNL     1       2.066   0.920  23.134  0.00  0.00    +0.065 A 
ATOM     18  C   UNL     1       1.328  -0.227  23.002  0.00  0.00    +0.053 A 
ATOM     22  C   UNL     1       2.928  -0.128  21.508  0.00  0.00    +0.197 A 
ATOM     33  H   UNL     1       1.598  -1.797  21.588  0.00  0.00    +0.167 HD
ENDROOT
BRANCH  12  13
ATOM      2  O   UNL     1       0.417   2.727  27.107  0.00  0.00    -0.274 OA
ATOM      3  N   UNL     1      -0.683   3.363  25.161  0.00  0.00    -0.300 N 
ATOM      7  C   UNL     1      -3.200   4.381  24.139  0.00  0.00    -0.004 C 
ATOM      8  C   UNL     1      -2.527   3.136  23.542  0.00  0.00    +0.023 C 
ATOM      9  C   UNL     1      -2.796   4.548  25.612  0.00  0.00    +0.023 C 
ATOM     10  C   UNL     1      -1.014   3.169  23.745  0.00  0.00    +0.108 C 
ATOM     11  C   UNL     1      -1.278   4.554  25.772  0.00  0.00    +0.108 C 
ATOM     13  C   UNL     1       0.155   2.542  25.915  0.00  0.00    +0.233 C 
BRANCH   7  14
ATOM     14  C   UNL     1      -4.717   4.301  23.997  0.00  0.00    +0.038 C 
BRANCH  14  20
ATOM     20  C   UNL     1      -5.298   3.208  24.853  0.00  0.00    -0.047 A 
ATOM     23  C   UNL     1      -5.461   1.926  24.330  0.00  0.00    +0.003 A 
ATOM     24  C   UNL     1      -5.671   3.477  26.170  0.00  0.00    +0.003 A 
ATOM     27  C   UNL     1      -5.999   0.912  25.122  0.00  0.00    +0.000 A 
ATOM     28  C   UNL     1      -6.209   2.463  26.962  0.00  0.00    +0.000 A 
ATOM     29  C   UNL     1      -6.372   1.181  26.439  0.00  0.00    +0.000 A 
ENDBRANCH  14  20
ENDBRANCH   7  14
ENDBRANCH  12  13
BRANCH   4  19
ATOM     19  C   UNL     1      -1.308   0.088  25.595  0.00  0.00    +0.120 C 
BRANCH  19  21
ATOM      1 CL   UNL     1      -5.440  -3.542  23.158  0.00  0.00    -0.084 Cl
ATOM     21  C   UNL     1      -2.342  -0.821  24.985  0.00  0.00    -0.033 A 
ATOM     25  C   UNL     1      -3.100  -0.384  23.899  0.00  0.00    +0.006 A 
ATOM     26  C   UNL     1      -2.542  -2.099  25.506  0.00  0.00    +0.006 A 
ATOM     30  C   UNL     1      -4.059  -1.225  23.334  0.00  0.00    +0.020 A 
ATOM     31  C   UNL     1      -3.500  -2.941  24.941  0.00  0.00    +0.020 A 
ATOM     32  C   UNL     1      -4.258  -2.503  23.855  0.00  0.00    +0.041 A 
ENDBRANCH  19  21
ENDBRANCH   4  19
TORSDOF 5
ENDMDL
