MODEL 1
REMARK VINA RESULT:       3.4      0.000      0.000
REMARK  Name = 44716834
REMARK  14 active torsions:
REMARK  status: ('A' for Active; 'I' for Inactive)
REMARK    1  A    between atoms: S_1  and  N_11
REMARK    2  A    between atoms: S_1  and  C_25
REMARK    3  A    between atoms: S_2  and  C_24
REMARK    4  A    between atoms: S_2  and  C_31
REMARK    5  A    between atoms: O_8  and  C_37
REMARK    6  A    between atoms: N_11  and  C_16
REMARK    7  A    between atoms: N_12  and  C_23
REMARK    8  A    between atoms: N_14  and  C_34
REMARK    9  A    between atoms: C_18  and  C_21
REMARK   10  A    between atoms: C_22  and  C_24
REMARK   11  A    between atoms: C_23  and  C_26
REMARK   12  A    between atoms: C_23  and  C_27
REMARK   13  A    between atoms: C_26  and  C_29
REMARK   14  A    between atoms: C_31  and  C_37
REMARK                            x       y       z     vdW  Elec       q    Type
REMARK                         _______ _______ _______ _____ _____    ______ ____
ROOT
ATOM      4  O   UNL     1       2.821  -1.671  23.308  0.00  0.00    -0.275 OA
ATOM     10  N   UNL     1       0.910  -0.344  23.363  0.00  0.00    -0.289 N 
ATOM     16  C   UNL     1      -1.927  -0.105  23.988  0.00  0.00    +0.080 C 
ATOM     17  C   UNL     1      -1.315   0.682  22.828  0.00  0.00    +0.052 C 
ATOM     18  C   UNL     1       0.196   0.884  22.969  0.00  0.00    +0.163 C 
ATOM     19  C   UNL     1      -1.164  -1.406  24.213  0.00  0.00    +0.039 C 
ATOM     20  C   UNL     1       0.314  -1.129  24.452  0.00  0.00    +0.110 C 
ATOM     22  C   UNL     1       2.168  -0.716  22.879  0.00  0.00    +0.226 C 
ENDROOT
BRANCH  18  21
ATOM      3  O   UNL     1       1.665   2.400  24.087  0.00  0.00    -0.274 OA
ATOM     12  N   UNL     1      -0.551   2.258  24.784  0.00  0.00    -0.302 N 
ATOM     21  C   UNL     1       0.534   1.930  23.990  0.00  0.00    +0.234 C 
ATOM     40  H   UNL     1      -1.461   1.858  24.576  0.00  0.00    +0.150 HD
BRANCH  12  23
ATOM     23  C   UNL     1      -0.484   3.224  25.857  0.00  0.00    +0.163 C 
BRANCH  23  27
ATOM      7  O   UNL     1      -1.441   5.147  24.722  0.00  0.00    -0.274 OA
ATOM     15  N   UNL     1      -2.671   4.118  26.366  0.00  0.00    -0.328 N 
ATOM     27  C   UNL     1      -1.548   4.276  25.581  0.00  0.00    +0.231 C 
ATOM     41  H   UNL     1      -2.754   3.379  27.058  0.00  0.00    +0.145 HD
ATOM     42  H   UNL     1      -3.463   4.745  26.274  0.00  0.00    +0.145 HD
ENDBRANCH  23  27
BRANCH  23  26
ATOM     26  C   UNL     1      -0.712   2.582  27.230  0.00  0.00    +0.067 C 
BRANCH  26  29
ATOM     29  C   UNL     1       0.526   2.593  28.094  0.00  0.00    -0.045 A 
ATOM     32  C   UNL     1       0.448   2.200  29.429  0.00  0.00    +0.004 A 
ATOM     33  C   UNL     1       1.748   2.995  27.555  0.00  0.00    +0.004 A 
ATOM     35  C   UNL     1       1.592   2.210  30.227  0.00  0.00    +0.000 A 
ATOM     36  C   UNL     1       2.892   3.005  28.353  0.00  0.00    +0.000 A 
ATOM     38  C   UNL     1       2.815   2.613  29.689  0.00  0.00    +0.000 A 
ENDBRANCH  26  29
ENDBRANCH  23  26
ENDBRANCH  12  23
ENDBRANCH  18  21
BRANCH  16  11
ATOM     11  N   UNL     1      -3.344  -0.409  23.677  0.00  0.00    -0.185 NA
ATOM     39  H   UNL     1      -3.613  -0.334  22.688  0.00  0.00    +0.148 HD
BRANCH  11   1
ATOM      1  S   UNL     1      -4.537  -0.192  24.866  0.00  0.00    +0.077 S 
ATOM      5  O   UNL     1      -3.989  -0.526  26.167  0.00  0.00    -0.152 OA
ATOM      6  O   UNL     1      -5.768  -0.808  24.411  0.00  0.00    -0.152 OA
BRANCH   1  25
ATOM     13  N   UNL     1      -4.136   2.363  23.913  0.00  0.00    -0.216 NA
ATOM     14  N   UNL     1      -5.469   3.584  25.203  0.00  0.00    -0.338 N 
ATOM     25  C   UNL     1      -4.787   1.557  24.814  0.00  0.00    +0.211 A 
ATOM     28  C   UNL     1      -5.619   2.293  25.625  0.00  0.00    +0.135 A 
ATOM     30  C   UNL     1      -4.569   3.576  24.174  0.00  0.00    +0.201 A 
ATOM     34  C   UNL     1      -6.137   4.742  25.744  0.00  0.00    +0.150 C 
ENDBRANCH   1  25
ENDBRANCH  11   1
ENDBRANCH  16  11
BRANCH  22  24
ATOM     24  C   UNL     1       2.737   0.113  21.753  0.00  0.00    +0.165 C 
BRANCH  24   2
ATOM      2  S   UNL     1       3.921   1.264  22.466  0.00  0.00    -0.140 S 
BRANCH   2  31
ATOM     31  C   UNL     1       5.287   0.114  22.757  0.00  0.00    +0.189 C 
BRANCH  31  37
ATOM      9  O   UNL     1       5.528   0.750  25.068  0.00  0.00    -0.250 OA
ATOM     37  C   UNL     1       5.425  -0.136  24.231  0.00  0.00    +0.315 C 
BRANCH  37   8
ATOM      8  O   UNL     1       5.408  -1.457  24.541  0.00  0.00    -0.480 OA
ATOM     43  H   UNL     1       6.312  -1.811  24.679  0.00  0.00    +0.295 HD
ENDBRANCH  37   8
ENDBRANCH  31  37
ENDBRANCH   2  31
ENDBRANCH  24   2
ENDBRANCH  22  24
TORSDOF 13
ENDMDL
MODEL 2
REMARK VINA RESULT:       4.2      2.552      7.209
REMARK  Name = 44716834
REMARK  14 active torsions:
REMARK  status: ('A' for Active; 'I' for Inactive)
REMARK    1  A    between atoms: S_1  and  N_11
REMARK    2  A    between atoms: S_1  and  C_25
REMARK    3  A    between atoms: S_2  and  C_24
REMARK    4  A    between atoms: S_2  and  C_31
REMARK    5  A    between atoms: O_8  and  C_37
REMARK    6  A    between atoms: N_11  and  C_16
REMARK    7  A    between atoms: N_12  and  C_23
REMARK    8  A    between atoms: N_14  and  C_34
REMARK    9  A    between atoms: C_18  and  C_21
REMARK   10  A    between atoms: C_22  and  C_24
REMARK   11  A    between atoms: C_23  and  C_26
REMARK   12  A    between atoms: C_23  and  C_27
REMARK   13  A    between atoms: C_26  and  C_29
REMARK   14  A    between atoms: C_31  and  C_37
REMARK                            x       y       z     vdW  Elec       q    Type
REMARK                         _______ _______ _______ _____ _____    ______ ____
ROOT
ATOM      4  O   UNL     1      -4.043  -0.086  23.981  0.00  0.00    -0.275 OA
ATOM     10  N   UNL     1      -1.948   0.753  24.552  0.00  0.00    -0.289 N 
ATOM     16  C   UNL     1       0.668   1.696  23.680  0.00  0.00    +0.080 C 
ATOM     17  C   UNL     1       0.508   0.963  25.013  0.00  0.00    +0.052 C 
ATOM     18  C   UNL     1      -0.917   1.030  25.568  0.00  0.00    +0.163 C 
ATOM     19  C   UNL     1      -0.388   1.230  22.683  0.00  0.00    +0.039 C 
ATOM     20  C   UNL     1      -1.787   1.420  23.254  0.00  0.00    +0.110 C 
ATOM     22  C   UNL     1      -3.121   0.031  24.794  0.00  0.00    +0.226 C 
ENDROOT
BRANCH  18  21
ATOM      3  O   UNL     1      -0.780   2.733  27.238  0.00  0.00    -0.274 OA
ATOM     12  N   UNL     1      -2.086   3.110  25.348  0.00  0.00    -0.302 N 
ATOM     21  C   UNL     1      -1.233   2.375  26.153  0.00  0.00    +0.234 C 
ATOM     40  H   UNL     1      -2.349   2.747  24.437  0.00  0.00    +0.150 HD
BRANCH  12  23
ATOM     23  C   UNL     1      -2.561   4.430  25.695  0.00  0.00    +0.163 C 
BRANCH  23  27
ATOM      7  O   UNL     1      -1.792   6.637  25.031  0.00  0.00    -0.274 OA
ATOM     15  N   UNL     1      -0.394   4.844  24.709  0.00  0.00    -0.328 N 
ATOM     27  C   UNL     1      -1.578   5.430  25.106  0.00  0.00    +0.231 C 
ATOM     41  H   UNL     1      -0.221   3.847  24.797  0.00  0.00    +0.145 HD
ATOM     42  H   UNL     1       0.355   5.401  24.311  0.00  0.00    +0.145 HD
ENDBRANCH  23  27
BRANCH  23  26
ATOM     26  C   UNL     1      -3.975   4.695  25.165  0.00  0.00    +0.067 C 
BRANCH  26  29
ATOM     29  C   UNL     1      -4.904   3.524  25.366  0.00  0.00    -0.045 A 
ATOM     32  C   UNL     1      -5.278   3.143  26.654  0.00  0.00    +0.004 A 
ATOM     33  C   UNL     1      -5.391   2.823  24.263  0.00  0.00    +0.004 A 
ATOM     35  C   UNL     1      -6.138   2.061  26.840  0.00  0.00    +0.000 A 
ATOM     36  C   UNL     1      -6.251   1.740  24.449  0.00  0.00    +0.000 A 
ATOM     38  C   UNL     1      -6.625   1.359  25.737  0.00  0.00    +0.000 A 
ENDBRANCH  26  29
ENDBRANCH  23  26
ENDBRANCH  12  23
ENDBRANCH  18  21
BRANCH  16  11
ATOM     11  N   UNL     1       2.019   1.422  23.132  0.00  0.00    -0.185 NA
ATOM     39  H   UNL     1       2.534   2.238  22.779  0.00  0.00    +0.148 HD
BRANCH  11   1
ATOM      1  S   UNL     1       2.378  -0.110  22.493  0.00  0.00    +0.077 S 
ATOM      5  O   UNL     1       2.457  -0.023  21.047  0.00  0.00    -0.152 OA
ATOM      6  O   UNL     1       1.514  -1.092  23.120  0.00  0.00    -0.152 OA
BRANCH   1  25
ATOM     13  N   UNL     1       4.309  -1.444  23.937  0.00  0.00    -0.216 NA
ATOM     14  N   UNL     1       6.132  -0.236  23.553  0.00  0.00    -0.338 N 
ATOM     25  C   UNL     1       4.010  -0.389  23.112  0.00  0.00    +0.211 A 
ATOM     28  C   UNL     1       5.126   0.376  22.860  0.00  0.00    +0.135 A 
ATOM     30  C   UNL     1       5.595  -1.323  24.184  0.00  0.00    +0.201 A 
ATOM     34  C   UNL     1       7.510   0.188  23.610  0.00  0.00    +0.150 C 
ENDBRANCH   1  25
ENDBRANCH  11   1
ENDBRANCH  16  11
BRANCH  22  24
ATOM     24  C   UNL     1      -3.238  -0.648  26.137  0.00  0.00    +0.165 C 
BRANCH  24   2
ATOM      2  S   UNL     1      -3.605  -2.384  25.842  0.00  0.00    -0.140 S 
BRANCH   2  31
ATOM     31  C   UNL     1      -2.821  -2.562  24.220  0.00  0.00    +0.189 C 
BRANCH  31  37
ATOM      9  O   UNL     1      -0.726  -2.653  25.406  0.00  0.00    -0.250 OA
ATOM     37  C   UNL     1      -1.333  -2.430  24.368  0.00  0.00    +0.315 C 
BRANCH  37   8
ATOM      8  O   UNL     1      -0.725  -2.050  23.216  0.00  0.00    -0.480 OA
ATOM     43  H   UNL     1      -0.692  -2.781  22.562  0.00  0.00    +0.295 HD
ENDBRANCH  37   8
ENDBRANCH  31  37
ENDBRANCH   2  31
ENDBRANCH  24   2
ENDBRANCH  22  24
TORSDOF 13
ENDMDL
MODEL 3
REMARK VINA RESULT:       4.7      2.773      7.966
REMARK  Name = 44716834
REMARK  14 active torsions:
REMARK  status: ('A' for Active; 'I' for Inactive)
REMARK    1  A    between atoms: S_1  and  N_11
REMARK    2  A    between atoms: S_1  and  C_25
REMARK    3  A    between atoms: S_2  and  C_24
REMARK    4  A    between atoms: S_2  and  C_31
REMARK    5  A    between atoms: O_8  and  C_37
REMARK    6  A    between atoms: N_11  and  C_16
REMARK    7  A    between atoms: N_12  and  C_23
REMARK    8  A    between atoms: N_14  and  C_34
REMARK    9  A    between atoms: C_18  and  C_21
REMARK   10  A    between atoms: C_22  and  C_24
REMARK   11  A    between atoms: C_23  and  C_26
REMARK   12  A    between atoms: C_23  and  C_27
REMARK   13  A    between atoms: C_26  and  C_29
REMARK   14  A    between atoms: C_31  and  C_37
REMARK                            x       y       z     vdW  Elec       q    Type
REMARK                         _______ _______ _______ _____ _____    ______ ____
ROOT
ATOM      4  O   UNL     1      -2.604   5.533  25.882  0.00  0.00    -0.275 OA
ATOM     10  N   UNL     1      -1.975   3.572  24.796  0.00  0.00    -0.289 N 
ATOM     16  C   UNL     1       0.164   1.780  23.955  0.00  0.00    +0.080 C 
ATOM     17  C   UNL     1      -1.099   1.941  23.106  0.00  0.00    +0.052 C 
ATOM     18  C   UNL     1      -2.302   2.444  23.907  0.00  0.00    +0.163 C 
ATOM     19  C   UNL     1       0.451   3.059  24.734  0.00  0.00    +0.039 C 
ATOM     20  C   UNL     1      -0.746   3.447  25.591  0.00  0.00    +0.110 C 
ATOM     22  C   UNL     1      -2.821   4.660  25.037  0.00  0.00    +0.226 C 
ENDROOT
BRANCH  18  21
ATOM      3  O   UNL     1      -2.621   1.268  25.962  0.00  0.00    -0.274 OA
ATOM     12  N   UNL     1      -3.739   0.533  24.058  0.00  0.00    -0.302 N 
ATOM     21  C   UNL     1      -2.896   1.369  24.769  0.00  0.00    +0.234 C 
ATOM     40  H   UNL     1      -3.951   0.745  23.087  0.00  0.00    +0.150 HD
BRANCH  12  23
ATOM     23  C   UNL     1      -4.421  -0.595  24.651  0.00  0.00    +0.163 C 
BRANCH  23  27
ATOM      7  O   UNL     1      -4.930  -2.814  23.802  0.00  0.00    -0.274 OA
ATOM     15  N   UNL     1      -3.811  -1.347  22.436  0.00  0.00    -0.328 N 
ATOM     27  C   UNL     1      -4.415  -1.714  23.620  0.00  0.00    +0.231 C 
ATOM     41  H   UNL     1      -3.408  -0.426  22.291  0.00  0.00    +0.145 HD
ATOM     42  H   UNL     1      -3.751  -1.996  21.659  0.00  0.00    +0.145 HD
ENDBRANCH  23  27
BRANCH  23  26
ATOM     26  C   UNL     1      -3.751  -1.061  25.948  0.00  0.00    +0.067 C 
BRANCH  26  29
ATOM     29  C   UNL     1      -2.375  -1.638  25.722  0.00  0.00    -0.045 A 
ATOM     32  C   UNL     1      -2.218  -2.779  24.936  0.00  0.00    +0.004 A 
ATOM     33  C   UNL     1      -1.259  -1.030  26.297  0.00  0.00    +0.004 A 
ATOM     35  C   UNL     1      -0.947  -3.313  24.725  0.00  0.00    +0.000 A 
ATOM     36  C   UNL     1       0.012  -1.564  26.088  0.00  0.00    +0.000 A 
ATOM     38  C   UNL     1       0.169  -2.705  25.302  0.00  0.00    +0.000 A 
ENDBRANCH  26  29
ENDBRANCH  23  26
ENDBRANCH  12  23
ENDBRANCH  18  21
BRANCH  16  11
ATOM     11  N   UNL     1       1.312   1.472  23.068  0.00  0.00    -0.185 NA
ATOM     39  H   UNL     1       1.632   2.240  22.465  0.00  0.00    +0.148 HD
BRANCH  11   1
ATOM      1  S   UNL     1       1.591  -0.128  22.571  0.00  0.00    +0.077 S 
ATOM      5  O   UNL     1       1.579  -0.192  21.122  0.00  0.00    -0.152 OA
ATOM      6  O   UNL     1       0.746  -1.013  23.349  0.00  0.00    -0.152 OA
BRANCH   1  25
ATOM     13  N   UNL     1       3.640  -1.545  23.748  0.00  0.00    -0.216 NA
ATOM     14  N   UNL     1       5.370  -0.168  23.546  0.00  0.00    -0.338 N 
ATOM     25  C   UNL     1       3.252  -0.392  23.114  0.00  0.00    +0.211 A 
ATOM     28  C   UNL     1       4.310   0.479  22.978  0.00  0.00    +0.135 A 
ATOM     30  C   UNL     1       4.921  -1.378  23.995  0.00  0.00    +0.201 A 
ATOM     34  C   UNL     1       6.718   0.335  23.654  0.00  0.00    +0.150 C 
ENDBRANCH   1  25
ENDBRANCH  11   1
ENDBRANCH  16  11
BRANCH  22  24
ATOM     24  C   UNL     1      -4.067   4.753  24.190  0.00  0.00    +0.165 C 
BRANCH  24   2
ATOM      2  S   UNL     1      -5.482   4.780  25.300  0.00  0.00    -0.140 S 
BRANCH   2  31
ATOM     31  C   UNL     1      -5.144   3.257  26.219  0.00  0.00    +0.189 C 
BRANCH  31  37
ATOM      9  O   UNL     1      -6.514   1.897  24.777  0.00  0.00    -0.250 OA
ATOM     37  C   UNL     1      -6.205   2.241  25.910  0.00  0.00    +0.315 C 
BRANCH  37   8
ATOM      8  O   UNL     1      -6.780   1.729  27.028  0.00  0.00    -0.480 OA
ATOM     43  H   UNL     1      -7.634   1.289  26.830  0.00  0.00    +0.295 HD
ENDBRANCH  37   8
ENDBRANCH  31  37
ENDBRANCH   2  31
ENDBRANCH  24   2
ENDBRANCH  22  24
TORSDOF 13
ENDMDL
MODEL 4
REMARK VINA RESULT:       4.9      1.803      2.356
REMARK  Name = 44716834
REMARK  14 active torsions:
REMARK  status: ('A' for Active; 'I' for Inactive)
REMARK    1  A    between atoms: S_1  and  N_11
REMARK    2  A    between atoms: S_1  and  C_25
REMARK    3  A    between atoms: S_2  and  C_24
REMARK    4  A    between atoms: S_2  and  C_31
REMARK    5  A    between atoms: O_8  and  C_37
REMARK    6  A    between atoms: N_11  and  C_16
REMARK    7  A    between atoms: N_12  and  C_23
REMARK    8  A    between atoms: N_14  and  C_34
REMARK    9  A    between atoms: C_18  and  C_21
REMARK   10  A    between atoms: C_22  and  C_24
REMARK   11  A    between atoms: C_23  and  C_26
REMARK   12  A    between atoms: C_23  and  C_27
REMARK   13  A    between atoms: C_26  and  C_29
REMARK   14  A    between atoms: C_31  and  C_37
REMARK                            x       y       z     vdW  Elec       q    Type
REMARK                         _______ _______ _______ _____ _____    ______ ____
ROOT
ATOM      4  O   UNL     1       0.435  -2.163  25.077  0.00  0.00    -0.275 OA
ATOM     10  N   UNL     1      -1.293  -0.673  24.612  0.00  0.00    -0.289 N 
ATOM     16  C   UNL     1      -3.964   0.303  25.248  0.00  0.00    +0.080 C 
ATOM     17  C   UNL     1      -3.448   0.325  23.809  0.00  0.00    +0.052 C 
ATOM     18  C   UNL     1      -1.920   0.316  23.718  0.00  0.00    +0.163 C 
ATOM     19  C   UNL     1      -3.322  -0.839  26.029  0.00  0.00    +0.039 C 
ATOM     20  C   UNL     1      -1.804  -0.732  25.988  0.00  0.00    +0.110 C 
ATOM     22  C   UNL     1      -0.167  -1.435  24.282  0.00  0.00    +0.226 C 
ENDROOT
BRANCH  18  21
ATOM      3  O   UNL     1      -1.543   2.651  23.381  0.00  0.00    -0.274 OA
ATOM     12  N   UNL     1      -0.514   1.591  25.180  0.00  0.00    -0.302 N 
ATOM     21  C   UNL     1      -1.324   1.650  24.060  0.00  0.00    +0.234 C 
ATOM     40  H   UNL     1      -0.453   0.726  25.708  0.00  0.00    +0.150 HD
BRANCH  12  23
ATOM     23  C   UNL     1       0.195   2.736  25.705  0.00  0.00    +0.163 C 
BRANCH  23  27
ATOM      7  O   UNL     1      -0.700   4.899  25.054  0.00  0.00    -0.274 OA
ATOM     15  N   UNL     1       0.550   3.724  23.528  0.00  0.00    -0.328 N 
ATOM     27  C   UNL     1      -0.059   3.896  24.753  0.00  0.00    +0.231 C 
ATOM     41  H   UNL     1       1.096   2.899  23.300  0.00  0.00    +0.145 HD
ATOM     42  H   UNL     1       0.473   4.431  22.804  0.00  0.00    +0.145 HD
ENDBRANCH  23  27
BRANCH  23  26
ATOM     26  C   UNL     1      -0.259   3.100  27.123  0.00  0.00    +0.067 C 
BRANCH  26  29
ATOM     29  C   UNL     1       0.790   2.803  28.167  0.00  0.00    -0.045 A 
ATOM     32  C   UNL     1       0.410   2.330  29.422  0.00  0.00    +0.004 A 
ATOM     33  C   UNL     1       2.139   2.999  27.875  0.00  0.00    +0.004 A 
ATOM     35  C   UNL     1       1.378   2.055  30.387  0.00  0.00    +0.000 A 
ATOM     36  C   UNL     1       3.109   2.724  28.841  0.00  0.00    +0.000 A 
ATOM     38  C   UNL     1       2.729   2.252  30.096  0.00  0.00    +0.000 A 
ENDBRANCH  26  29
ENDBRANCH  23  26
ENDBRANCH  12  23
ENDBRANCH  18  21
BRANCH  16  11
ATOM     11  N   UNL     1      -5.436   0.127  25.236  0.00  0.00    -0.185 NA
ATOM     39  H   UNL     1      -5.788  -0.669  24.690  0.00  0.00    +0.148 HD
BRANCH  11   1
ATOM      1  S   UNL     1      -6.450   1.468  25.472  0.00  0.00    +0.077 S 
ATOM      5  O   UNL     1      -6.962   1.455  26.829  0.00  0.00    -0.152 OA
ATOM      6  O   UNL     1      -7.362   1.568  24.349  0.00  0.00    -0.152 OA
BRANCH   1  25
ATOM     13  N   UNL     1      -4.669   3.344  26.422  0.00  0.00    -0.216 NA
ATOM     14  N   UNL     1      -4.054   4.416  24.578  0.00  0.00    -0.338 N 
ATOM     25  C   UNL     1      -5.312   2.813  25.332  0.00  0.00    +0.211 A 
ATOM     28  C   UNL     1      -4.945   3.463  24.176  0.00  0.00    +0.135 A 
ATOM     30  C   UNL     1      -3.919   4.307  25.934  0.00  0.00    +0.201 A 
ATOM     34  C   UNL     1      -3.377   5.365  23.727  0.00  0.00    +0.150 C 
ENDBRANCH   1  25
ENDBRANCH  11   1
ENDBRANCH  16  11
BRANCH  22  24
ATOM     24  C   UNL     1       0.316  -1.352  22.854  0.00  0.00    +0.165 C 
BRANCH  24   2
ATOM      2  S   UNL     1       1.353   0.111  22.712  0.00  0.00    -0.140 S 
BRANCH   2  31
ATOM     31  C   UNL     1       2.957  -0.649  23.067  0.00  0.00    +0.189 C 
BRANCH  31  37
ATOM      9  O   UNL     1       5.223   0.166  23.150  0.00  0.00    -0.250 OA
ATOM     37  C   UNL     1       4.030   0.400  23.011  0.00  0.00    +0.315 C 
BRANCH  37   8
ATOM      8  O   UNL     1       3.536   1.641  22.772  0.00  0.00    -0.480 OA
ATOM     43  H   UNL     1       3.666   1.913  21.838  0.00  0.00    +0.295 HD
ENDBRANCH  37   8
ENDBRANCH  31  37
ENDBRANCH   2  31
ENDBRANCH  24   2
ENDBRANCH  22  24
TORSDOF 13
ENDMDL
MODEL 5
REMARK VINA RESULT:       5.3      2.785      7.768
REMARK  Name = 44716834
REMARK  14 active torsions:
REMARK  status: ('A' for Active; 'I' for Inactive)
REMARK    1  A    between atoms: S_1  and  N_11
REMARK    2  A    between atoms: S_1  and  C_25
REMARK    3  A    between atoms: S_2  and  C_24
REMARK    4  A    between atoms: S_2  and  C_31
REMARK    5  A    between atoms: O_8  and  C_37
REMARK    6  A    between atoms: N_11  and  C_16
REMARK    7  A    between atoms: N_12  and  C_23
REMARK    8  A    between atoms: N_14  and  C_34
REMARK    9  A    between atoms: C_18  and  C_21
REMARK   10  A    between atoms: C_22  and  C_24
REMARK   11  A    between atoms: C_23  and  C_26
REMARK   12  A    between atoms: C_23  and  C_27
REMARK   13  A    between atoms: C_26  and  C_29
REMARK   14  A    between atoms: C_31  and  C_37
REMARK                            x       y       z     vdW  Elec       q    Type
REMARK                         _______ _______ _______ _____ _____    ______ ____
ROOT
ATOM      4  O   UNL     1      -2.013   3.835  27.913  0.00  0.00    -0.275 OA
ATOM     10  N   UNL     1      -1.607   2.974  25.789  0.00  0.00    -0.289 N 
ATOM     16  C   UNL     1       0.121   1.419  24.031  0.00  0.00    +0.080 C 
ATOM     17  C   UNL     1      -0.683   2.601  23.488  0.00  0.00    +0.052 C 
ATOM     18  C   UNL     1      -1.904   2.942  24.346  0.00  0.00    +0.163 C 
ATOM     19  C   UNL     1       0.461   1.635  25.502  0.00  0.00    +0.039 C 
ATOM     20  C   UNL     1      -0.803   1.864  26.318  0.00  0.00    +0.110 C 
ATOM     22  C   UNL     1      -2.158   3.892  26.689  0.00  0.00    +0.226 C 
ENDROOT
BRANCH  18  21
ATOM      3  O   UNL     1      -3.279   1.477  23.053  0.00  0.00    -0.274 OA
ATOM     12  N   UNL     1      -3.708   1.709  25.329  0.00  0.00    -0.302 N 
ATOM     21  C   UNL     1      -3.023   1.961  24.154  0.00  0.00    +0.234 C 
ATOM     40  H   UNL     1      -3.372   2.111  26.199  0.00  0.00    +0.150 HD
BRANCH  12  23
ATOM     23  C   UNL     1      -4.842   0.817  25.409  0.00  0.00    +0.163 C 
BRANCH  23  27
ATOM      7  O   UNL     1      -6.938   1.614  24.474  0.00  0.00    -0.274 OA
ATOM     15  N   UNL     1      -6.209   2.512  26.457  0.00  0.00    -0.328 N 
ATOM     27  C   UNL     1      -6.094   1.680  25.364  0.00  0.00    +0.231 C 
ATOM     41  H   UNL     1      -5.515   2.540  27.198  0.00  0.00    +0.145 HD
ATOM     42  H   UNL     1      -7.006   3.131  26.559  0.00  0.00    +0.145 HD
ENDBRANCH  23  27
BRANCH  23  26
ATOM     26  C   UNL     1      -4.857  -0.206  24.268  0.00  0.00    +0.067 C 
BRANCH  26  29
ATOM     29  C   UNL     1      -3.788  -1.261  24.414  0.00  0.00    -0.045 A 
ATOM     32  C   UNL     1      -3.973  -2.525  23.855  0.00  0.00    +0.004 A 
ATOM     33  C   UNL     1      -2.613  -0.972  25.108  0.00  0.00    +0.004 A 
ATOM     35  C   UNL     1      -2.985  -3.500  23.990  0.00  0.00    +0.000 A 
ATOM     36  C   UNL     1      -1.624  -1.947  25.243  0.00  0.00    +0.000 A 
ATOM     38  C   UNL     1      -1.810  -3.210  24.684  0.00  0.00    +0.000 A 
ENDBRANCH  26  29
ENDBRANCH  23  26
ENDBRANCH  12  23
ENDBRANCH  18  21
BRANCH  16  11
ATOM     11  N   UNL     1       1.374   1.281  23.250  0.00  0.00    -0.185 NA
ATOM     39  H   UNL     1       1.711   2.135  22.788  0.00  0.00    +0.148 HD
BRANCH  11   1
ATOM      1  S   UNL     1       1.799  -0.226  22.592  0.00  0.00    +0.077 S 
ATOM      5  O   UNL     1       1.818  -0.133  21.144  0.00  0.00    -0.152 OA
ATOM      6  O   UNL     1       1.018  -1.258  23.246  0.00  0.00    -0.152 OA
BRANCH   1  25
ATOM     13  N   UNL     1       3.897  -1.531  23.810  0.00  0.00    -0.216 NA
ATOM     14  N   UNL     1       5.570  -0.088  23.587  0.00  0.00    -0.338 N 
ATOM     25  C   UNL     1       3.466  -0.409  23.149  0.00  0.00    +0.211 A 
ATOM     28  C   UNL     1       4.487   0.502  22.999  0.00  0.00    +0.135 A 
ATOM     30  C   UNL     1       5.168  -1.306  24.060  0.00  0.00    +0.201 A 
ATOM     34  C   UNL     1       6.895   0.473  23.690  0.00  0.00    +0.150 C 
ENDBRANCH   1  25
ENDBRANCH  11   1
ENDBRANCH  16  11
BRANCH  22  24
ATOM     24  C   UNL     1      -2.966   5.022  26.099  0.00  0.00    +0.165 C 
BRANCH  24   2
ATOM      2  S   UNL     1      -1.998   5.751  24.770  0.00  0.00    -0.140 S 
BRANCH   2  31
ATOM     31  C   UNL     1      -3.320   5.982  23.556  0.00  0.00    +0.189 C 
BRANCH  31  37
ATOM      9  O   UNL     1      -4.998   4.579  24.567  0.00  0.00    -0.250 OA
ATOM     37  C   UNL     1      -4.264   4.816  23.617  0.00  0.00    +0.315 C 
BRANCH  37   8
ATOM      8  O   UNL     1      -4.229   4.056  22.494  0.00  0.00    -0.480 OA
ATOM     43  H   UNL     1      -3.309   3.863  22.212  0.00  0.00    +0.295 HD
ENDBRANCH  37   8
ENDBRANCH  31  37
ENDBRANCH   2  31
ENDBRANCH  24   2
ENDBRANCH  22  24
TORSDOF 13
ENDMDL
MODEL 6
REMARK VINA RESULT:       5.5      2.876      7.332
REMARK  Name = 44716834
REMARK  14 active torsions:
REMARK  status: ('A' for Active; 'I' for Inactive)
REMARK    1  A    between atoms: S_1  and  N_11
REMARK    2  A    between atoms: S_1  and  C_25
REMARK    3  A    between atoms: S_2  and  C_24
REMARK    4  A    between atoms: S_2  and  C_31
REMARK    5  A    between atoms: O_8  and  C_37
REMARK    6  A    between atoms: N_11  and  C_16
REMARK    7  A    between atoms: N_12  and  C_23
REMARK    8  A    between atoms: N_14  and  C_34
REMARK    9  A    between atoms: C_18  and  C_21
REMARK   10  A    between atoms: C_22  and  C_24
REMARK   11  A    between atoms: C_23  and  C_26
REMARK   12  A    between atoms: C_23  and  C_27
REMARK   13  A    between atoms: C_26  and  C_29
REMARK   14  A    between atoms: C_31  and  C_37
REMARK                            x       y       z     vdW  Elec       q    Type
REMARK                         _______ _______ _______ _____ _____    ______ ____
ROOT
ATOM      4  O   UNL     1      -2.496   4.159  27.380  0.00  0.00    -0.275 OA
ATOM     10  N   UNL     1      -2.181   3.041  25.362  0.00  0.00    -0.289 N 
ATOM     16  C   UNL     1      -0.467   1.384  23.686  0.00  0.00    +0.080 C 
ATOM     17  C   UNL     1      -1.406   2.418  23.061  0.00  0.00    +0.052 C 
ATOM     18  C   UNL     1      -2.582   2.787  23.968  0.00  0.00    +0.163 C 
ATOM     19  C   UNL     1      -0.037   1.827  25.080  0.00  0.00    +0.039 C 
ATOM     20  C   UNL     1      -1.251   2.077  25.964  0.00  0.00    +0.110 C 
ATOM     22  C   UNL     1      -2.736   4.035  26.176  0.00  0.00    +0.226 C 
ENDROOT
BRANCH  18  21
ATOM      3  O   UNL     1      -3.941   1.077  22.999  0.00  0.00    -0.274 OA
ATOM     12  N   UNL     1      -4.178   1.558  25.265  0.00  0.00    -0.302 N 
ATOM     21  C   UNL     1      -3.627   1.711  24.005  0.00  0.00    +0.234 C 
ATOM     40  H   UNL     1      -3.799   2.087  26.044  0.00  0.00    +0.150 HD
BRANCH  12  23
ATOM     23  C   UNL     1      -5.221   0.603  25.562  0.00  0.00    +0.163 C 
BRANCH  23  27
ATOM      7  O   UNL     1      -7.188   1.548  24.493  0.00  0.00    -0.274 OA
ATOM     15  N   UNL     1      -6.968   1.757  26.769  0.00  0.00    -0.328 N 
ATOM     27  C   UNL     1      -6.543   1.355  25.520  0.00  0.00    +0.231 C 
ATOM     41  H   UNL     1      -6.435   1.571  27.614  0.00  0.00    +0.145 HD
ATOM     42  H   UNL     1      -7.842   2.257  26.886  0.00  0.00    +0.145 HD
ENDBRANCH  23  27
BRANCH  23  26
ATOM     26  C   UNL     1      -5.239  -0.564  24.568  0.00  0.00    +0.067 C 
BRANCH  26  29
ATOM     29  C   UNL     1      -3.996  -1.416  24.644  0.00  0.00    -0.045 A 
ATOM     32  C   UNL     1      -2.976  -1.085  25.535  0.00  0.00    +0.004 A 
ATOM     33  C   UNL     1      -3.867  -2.537  23.823  0.00  0.00    +0.004 A 
ATOM     35  C   UNL     1      -1.827  -1.873  25.606  0.00  0.00    +0.000 A 
ATOM     36  C   UNL     1      -2.718  -3.324  23.893  0.00  0.00    +0.000 A 
ATOM     38  C   UNL     1      -1.698  -2.993  24.784  0.00  0.00    +0.000 A 
ENDBRANCH  26  29
ENDBRANCH  23  26
ENDBRANCH  12  23
ENDBRANCH  18  21
BRANCH  16  11
ATOM     11  N   UNL     1       0.730   1.229  22.825  0.00  0.00    -0.185 NA
ATOM     39  H   UNL     1       0.881   1.970  22.128  0.00  0.00    +0.148 HD
BRANCH  11   1
ATOM      1  S   UNL     1       1.357  -0.320  22.520  0.00  0.00    +0.077 S 
ATOM      5  O   UNL     1       1.317  -0.585  21.094  0.00  0.00    -0.152 OA
ATOM      6  O   UNL     1       0.763  -1.257  23.454  0.00  0.00    -0.152 OA
BRANCH   1  25
ATOM     13  N   UNL     1       3.724   1.057  22.823  0.00  0.00    -0.216 NA
ATOM     14  N   UNL     1       5.064  -0.461  23.734  0.00  0.00    -0.338 N 
ATOM     25  C   UNL     1       3.050  -0.125  22.991  0.00  0.00    +0.211 A 
ATOM     28  C   UNL     1       3.861  -1.083  23.555  0.00  0.00    +0.135 A 
ATOM     30  C   UNL     1       4.934   0.822  23.280  0.00  0.00    +0.201 A 
ATOM     34  C   UNL     1       6.253  -1.050  24.299  0.00  0.00    +0.150 C 
ENDBRANCH   1  25
ENDBRANCH  11   1
ENDBRANCH  16  11
BRANCH  22  24
ATOM     24  C   UNL     1      -3.678   5.010  25.513  0.00  0.00    +0.165 C 
BRANCH  24   2
ATOM      2  S   UNL     1      -2.819   5.726  24.103  0.00  0.00    -0.140 S 
BRANCH   2  31
ATOM     31  C   UNL     1      -1.258   6.149  24.915  0.00  0.00    +0.189 C 
BRANCH  31  37
ATOM      9  O   UNL     1       0.123   5.194  23.187  0.00  0.00    -0.250 OA
ATOM     37  C   UNL     1      -0.161   5.278  24.374  0.00  0.00    +0.315 C 
BRANCH  37   8
ATOM      8  O   UNL     1       0.497   4.600  25.348  0.00  0.00    -0.480 OA
ATOM     43  H   UNL     1       0.567   5.124  26.174  0.00  0.00    +0.295 HD
ENDBRANCH  37   8
ENDBRANCH  31  37
ENDBRANCH   2  31
ENDBRANCH  24   2
ENDBRANCH  22  24
TORSDOF 13
ENDMDL
MODEL 7
REMARK VINA RESULT:       5.6      2.549      5.506
REMARK  Name = 44716834
REMARK  14 active torsions:
REMARK  status: ('A' for Active; 'I' for Inactive)
REMARK    1  A    between atoms: S_1  and  N_11
REMARK    2  A    between atoms: S_1  and  C_25
REMARK    3  A    between atoms: S_2  and  C_24
REMARK    4  A    between atoms: S_2  and  C_31
REMARK    5  A    between atoms: O_8  and  C_37
REMARK    6  A    between atoms: N_11  and  C_16
REMARK    7  A    between atoms: N_12  and  C_23
REMARK    8  A    between atoms: N_14  and  C_34
REMARK    9  A    between atoms: C_18  and  C_21
REMARK   10  A    between atoms: C_22  and  C_24
REMARK   11  A    between atoms: C_23  and  C_26
REMARK   12  A    between atoms: C_23  and  C_27
REMARK   13  A    between atoms: C_26  and  C_29
REMARK   14  A    between atoms: C_31  and  C_37
REMARK                            x       y       z     vdW  Elec       q    Type
REMARK                         _______ _______ _______ _____ _____    ______ ____
ROOT
ATOM      4  O   UNL     1       1.225   3.689  26.622  0.00  0.00    -0.275 OA
ATOM     10  N   UNL     1      -0.488   2.389  25.729  0.00  0.00    -0.289 N 
ATOM     16  C   UNL     1      -2.895   2.242  24.093  0.00  0.00    +0.080 C 
ATOM     17  C   UNL     1      -2.716   1.322  25.302  0.00  0.00    +0.052 C 
ATOM     18  C   UNL     1      -1.250   1.129  25.698  0.00  0.00    +0.163 C 
ATOM     19  C   UNL     1      -2.150   3.556  24.306  0.00  0.00    +0.039 C 
ATOM     20  C   UNL     1      -0.677   3.300  24.593  0.00  0.00    +0.110 C 
ATOM     22  C   UNL     1       0.496   2.695  26.676  0.00  0.00    +0.226 C 
ENDROOT
BRANCH  18  21
ATOM      3  O   UNL     1      -0.836  -0.979  24.653  0.00  0.00    -0.274 OA
ATOM     12  N   UNL     1       0.500   0.842  24.088  0.00  0.00    -0.302 N 
ATOM     21  C   UNL     1      -0.528   0.206  24.761  0.00  0.00    +0.234 C 
ATOM     40  H   UNL     1       0.629   1.843  24.201  0.00  0.00    +0.150 HD
BRANCH  12  23
ATOM     23  C   UNL     1       1.363   0.169  23.144  0.00  0.00    +0.163 C 
BRANCH  23  27
ATOM      7  O   UNL     1       0.970  -0.664  20.895  0.00  0.00    -0.274 OA
ATOM     15  N   UNL     1      -0.708   0.502  21.943  0.00  0.00    -0.328 N 
ATOM     27  C   UNL     1       0.558  -0.040  21.870  0.00  0.00    +0.231 C 
ATOM     41  H   UNL     1      -1.044   0.996  22.765  0.00  0.00    +0.145 HD
ATOM     42  H   UNL     1      -1.355   0.422  21.166  0.00  0.00    +0.145 HD
ENDBRANCH  23  27
BRANCH  23  26
ATOM     26  C   UNL     1       2.634   0.972  22.845  0.00  0.00    +0.067 C 
BRANCH  26  29
ATOM     29  C   UNL     1       3.892   0.259  23.280  0.00  0.00    -0.045 A 
ATOM     32  C   UNL     1       5.091   0.962  23.386  0.00  0.00    +0.004 A 
ATOM     33  C   UNL     1       3.854  -1.103  23.576  0.00  0.00    +0.004 A 
ATOM     35  C   UNL     1       6.253   0.304  23.788  0.00  0.00    +0.000 A 
ATOM     36  C   UNL     1       5.017  -1.762  23.978  0.00  0.00    +0.000 A 
ATOM     38  C   UNL     1       6.216  -1.059  24.084  0.00  0.00    +0.000 A 
ENDBRANCH  26  29
ENDBRANCH  23  26
ENDBRANCH  12  23
ENDBRANCH  18  21
BRANCH  16  11
ATOM     11  N   UNL     1      -4.339   2.518  23.899  0.00  0.00    -0.185 NA
ATOM     39  H   UNL     1      -4.573   3.453  23.543  0.00  0.00    +0.148 HD
BRANCH  11   1
ATOM      1  S   UNL     1      -5.491   1.684  24.827  0.00  0.00    +0.077 S 
ATOM      5  O   UNL     1      -6.728   1.576  24.079  0.00  0.00    -0.152 OA
ATOM      6  O   UNL     1      -5.495   2.233  26.170  0.00  0.00    -0.152 OA
BRANCH   1  25
ATOM     13  N   UNL     1      -4.282  -0.435  26.108  0.00  0.00    -0.216 NA
ATOM     14  N   UNL     1      -4.030  -1.918  24.475  0.00  0.00    -0.338 N 
ATOM     25  C   UNL     1      -4.775   0.072  24.932  0.00  0.00    +0.211 A 
ATOM     28  C   UNL     1      -4.629  -0.831  23.904  0.00  0.00    +0.135 A 
ATOM     30  C   UNL     1      -3.840  -1.634  25.798  0.00  0.00    +0.201 A 
ATOM     34  C   UNL     1      -3.663  -3.141  23.804  0.00  0.00    +0.150 C 
ENDBRANCH   1  25
ENDBRANCH  11   1
ENDBRANCH  16  11
BRANCH  22  24
ATOM     24  C   UNL     1       0.648   1.737  27.832  0.00  0.00    +0.165 C 
BRANCH  24   2
ATOM      2  S   UNL     1       0.552   2.695  29.352  0.00  0.00    -0.140 S 
BRANCH   2  31
ATOM     31  C   UNL     1       2.220   2.386  29.982  0.00  0.00    +0.189 C 
BRANCH  31  37
ATOM      9  O   UNL     1       4.052   2.043  28.455  0.00  0.00    -0.250 OA
ATOM     37  C   UNL     1       3.229   2.801  28.950  0.00  0.00    +0.315 C 
BRANCH  37   8
ATOM      8  O   UNL     1       3.122   4.110  28.611  0.00  0.00    -0.480 OA
ATOM     43  H   UNL     1       3.894   4.632  28.919  0.00  0.00    +0.295 HD
ENDBRANCH  37   8
ENDBRANCH  31  37
ENDBRANCH   2  31
ENDBRANCH  24   2
ENDBRANCH  22  24
TORSDOF 13
ENDMDL
MODEL 8
REMARK VINA RESULT:       5.9      2.352      5.146
REMARK  Name = 44716834
REMARK  14 active torsions:
REMARK  status: ('A' for Active; 'I' for Inactive)
REMARK    1  A    between atoms: S_1  and  N_11
REMARK    2  A    between atoms: S_1  and  C_25
REMARK    3  A    between atoms: S_2  and  C_24
REMARK    4  A    between atoms: S_2  and  C_31
REMARK    5  A    between atoms: O_8  and  C_37
REMARK    6  A    between atoms: N_11  and  C_16
REMARK    7  A    between atoms: N_12  and  C_23
REMARK    8  A    between atoms: N_14  and  C_34
REMARK    9  A    between atoms: C_18  and  C_21
REMARK   10  A    between atoms: C_22  and  C_24
REMARK   11  A    between atoms: C_23  and  C_26
REMARK   12  A    between atoms: C_23  and  C_27
REMARK   13  A    between atoms: C_26  and  C_29
REMARK   14  A    between atoms: C_31  and  C_37
REMARK                            x       y       z     vdW  Elec       q    Type
REMARK                         _______ _______ _______ _____ _____    ______ ____
ROOT
ATOM      4  O   UNL     1      -0.124   3.743  23.613  0.00  0.00    -0.275 OA
ATOM     10  N   UNL     1      -1.536   2.151  24.559  0.00  0.00    -0.289 N 
ATOM     16  C   UNL     1      -3.941   0.521  24.330  0.00  0.00    +0.080 C 
ATOM     17  C   UNL     1      -3.473   1.035  25.693  0.00  0.00    +0.052 C 
ATOM     18  C   UNL     1      -1.980   1.373  25.728  0.00  0.00    +0.163 C 
ATOM     19  C   UNL     1      -3.515   1.479  23.223  0.00  0.00    +0.039 C 
ATOM     20  C   UNL     1      -2.008   1.692  23.246  0.00  0.00    +0.110 C 
ATOM     22  C   UNL     1      -0.593   3.184  24.609  0.00  0.00    +0.226 C 
ENDROOT
BRANCH  18  21
ATOM      3  O   UNL     1      -1.158  -0.630  26.738  0.00  0.00    -0.274 OA
ATOM     12  N   UNL     1      -0.309   0.020  24.671  0.00  0.00    -0.302 N 
ATOM     21  C   UNL     1      -1.123   0.143  25.783  0.00  0.00    +0.234 C 
ATOM     40  H   UNL     1      -0.406   0.680  23.905  0.00  0.00    +0.150 HD
BRANCH  12  23
ATOM     23  C   UNL     1       0.628  -1.065  24.491  0.00  0.00    +0.163 C 
BRANCH  23  27
ATOM      7  O   UNL     1       0.206  -3.277  25.404  0.00  0.00    -0.274 OA
ATOM     15  N   UNL     1      -1.323  -2.382  23.944  0.00  0.00    -0.328 N 
ATOM     27  C   UNL     1      -0.149  -2.361  24.666  0.00  0.00    +0.231 C 
ATOM     41  H   UNL     1      -1.615  -1.608  23.354  0.00  0.00    +0.145 HD
ATOM     42  H   UNL     1      -1.944  -3.183  23.982  0.00  0.00    +0.145 HD
ENDBRANCH  23  27
BRANCH  23  26
ATOM     26  C   UNL     1       1.302  -1.028  23.114  0.00  0.00    +0.067 C 
BRANCH  26  29
ATOM     29  C   UNL     1       2.740  -0.575  23.179  0.00  0.00    -0.045 A 
ATOM     32  C   UNL     1       3.107   0.659  22.642  0.00  0.00    +0.004 A 
ATOM     33  C   UNL     1       3.701  -1.389  23.777  0.00  0.00    +0.004 A 
ATOM     35  C   UNL     1       4.436   1.079  22.702  0.00  0.00    +0.000 A 
ATOM     36  C   UNL     1       5.031  -0.970  23.836  0.00  0.00    +0.000 A 
ATOM     38  C   UNL     1       5.398   0.264  23.299  0.00  0.00    +0.000 A 
ENDBRANCH  26  29
ENDBRANCH  23  26
ENDBRANCH  12  23
ENDBRANCH  18  21
BRANCH  16  11
ATOM     11  N   UNL     1      -5.418   0.398  24.336  0.00  0.00    -0.185 NA
ATOM     39  H   UNL     1      -5.830  -0.107  23.542  0.00  0.00    +0.148 HD
BRANCH  11   1
ATOM      1  S   UNL     1      -6.360   1.559  25.143  0.00  0.00    +0.077 S 
ATOM      5  O   UNL     1      -6.598   1.125  26.506  0.00  0.00    -0.152 OA
ATOM      6  O   UNL     1      -7.473   1.932  24.290  0.00  0.00    -0.152 OA
BRANCH   1  25
ATOM     13  N   UNL     1      -4.800   3.466  26.376  0.00  0.00    -0.216 NA
ATOM     14  N   UNL     1      -3.973   4.608  24.661  0.00  0.00    -0.338 N 
ATOM     25  C   UNL     1      -5.264   2.944  25.195  0.00  0.00    +0.211 A 
ATOM     28  C   UNL     1      -4.764   3.637  24.116  0.00  0.00    +0.135 A 
ATOM     30  C   UNL     1      -4.025   4.466  26.020  0.00  0.00    +0.201 A 
ATOM     34  C   UNL     1      -3.219   5.602  23.936  0.00  0.00    +0.150 C 
ENDBRANCH   1  25
ENDBRANCH  11   1
ENDBRANCH  16  11
BRANCH  22  24
ATOM     24  C   UNL     1      -0.146   3.630  25.979  0.00  0.00    +0.165 C 
BRANCH  24   2
ATOM      2  S   UNL     1       0.955   2.367  26.633  0.00  0.00    -0.140 S 
BRANCH   2  31
ATOM     31  C   UNL     1       0.752   2.707  28.399  0.00  0.00    +0.189 C 
BRANCH  31  37
ATOM      9  O   UNL     1       3.093   3.133  28.780  0.00  0.00    -0.250 OA
ATOM     37  C   UNL     1       2.071   2.538  29.096  0.00  0.00    +0.315 C 
BRANCH  37   8
ATOM      8  O   UNL     1       2.008   1.661  30.129  0.00  0.00    -0.480 OA
ATOM     43  H   UNL     1       2.480   1.995  30.922  0.00  0.00    +0.295 HD
ENDBRANCH  37   8
ENDBRANCH  31  37
ENDBRANCH   2  31
ENDBRANCH  24   2
ENDBRANCH  22  24
TORSDOF 13
ENDMDL
MODEL 9
REMARK VINA RESULT:       6.1      2.848      5.946
REMARK  Name = 44716834
REMARK  14 active torsions:
REMARK  status: ('A' for Active; 'I' for Inactive)
REMARK    1  A    between atoms: S_1  and  N_11
REMARK    2  A    between atoms: S_1  and  C_25
REMARK    3  A    between atoms: S_2  and  C_24
REMARK    4  A    between atoms: S_2  and  C_31
REMARK    5  A    between atoms: O_8  and  C_37
REMARK    6  A    between atoms: N_11  and  C_16
REMARK    7  A    between atoms: N_12  and  C_23
REMARK    8  A    between atoms: N_14  and  C_34
REMARK    9  A    between atoms: C_18  and  C_21
REMARK   10  A    between atoms: C_22  and  C_24
REMARK   11  A    between atoms: C_23  and  C_26
REMARK   12  A    between atoms: C_23  and  C_27
REMARK   13  A    between atoms: C_26  and  C_29
REMARK   14  A    between atoms: C_31  and  C_37
REMARK                            x       y       z     vdW  Elec       q    Type
REMARK                         _______ _______ _______ _____ _____    ______ ____
ROOT
ATOM      4  O   UNL     1      -0.674  -0.969  27.504  0.00  0.00    -0.275 OA
ATOM     10  N   UNL     1      -0.974   0.585  25.796  0.00  0.00    -0.289 N 
ATOM     16  C   UNL     1      -1.598   3.323  25.015  0.00  0.00    +0.080 C 
ATOM     17  C   UNL     1      -2.007   2.146  24.127  0.00  0.00    +0.052 C 
ATOM     18  C   UNL     1      -1.164   0.891  24.367  0.00  0.00    +0.163 C 
ATOM     19  C   UNL     1      -1.553   2.898  26.479  0.00  0.00    +0.039 C 
ATOM     20  C   UNL     1      -0.617   1.712  26.668  0.00  0.00    +0.110 C 
ATOM     22  C   UNL     1      -0.965  -0.707  26.333  0.00  0.00    +0.226 C 
ENDROOT
BRANCH  18  21
ATOM      3  O   UNL     1       0.737   2.094  23.562  0.00  0.00    -0.274 OA
ATOM     12  N   UNL     1       0.745  -0.231  23.452  0.00  0.00    -0.302 N 
ATOM     21  C   UNL     1       0.204   1.004  23.761  0.00  0.00    +0.234 C 
ATOM     40  H   UNL     1       0.248  -1.076  23.720  0.00  0.00    +0.150 HD
BRANCH  12  23
ATOM     23  C   UNL     1       2.043  -0.396  22.838  0.00  0.00    +0.163 C 
BRANCH  23  27
ATOM      7  O   UNL     1       0.832  -0.720  20.757  0.00  0.00    -0.274 OA
ATOM     15  N   UNL     1       2.889   0.297  20.683  0.00  0.00    -0.328 N 
ATOM     27  C   UNL     1       1.840  -0.319  21.333  0.00  0.00    +0.231 C 
ATOM     41  H   UNL     1       3.708   0.644  21.175  0.00  0.00    +0.145 HD
ATOM     42  H   UNL     1       2.876   0.426  19.677  0.00  0.00    +0.145 HD
ENDBRANCH  23  27
BRANCH  23  26
ATOM     26  C   UNL     1       3.042   0.671  23.298  0.00  0.00    +0.067 C 
BRANCH  26  29
ATOM     29  C   UNL     1       4.418   0.110  23.561  0.00  0.00    -0.045 A 
ATOM     32  C   UNL     1       4.577  -1.248  23.837  0.00  0.00    +0.004 A 
ATOM     33  C   UNL     1       5.532   0.949  23.527  0.00  0.00    +0.004 A 
ATOM     35  C   UNL     1       5.848  -1.767  24.079  0.00  0.00    +0.000 A 
ATOM     36  C   UNL     1       6.804   0.430  23.770  0.00  0.00    +0.000 A 
ATOM     38  C   UNL     1       6.962  -0.928  24.046  0.00  0.00    +0.000 A 
ENDBRANCH  26  29
ENDBRANCH  23  26
ENDBRANCH  12  23
ENDBRANCH  18  21
BRANCH  16  11
ATOM     11  N   UNL     1      -2.578   4.423  24.849  0.00  0.00    -0.185 NA
ATOM     39  H   UNL     1      -2.677   5.060  25.649  0.00  0.00    +0.148 HD
BRANCH  11   1
ATOM      1  S   UNL     1      -3.890   4.233  23.787  0.00  0.00    +0.077 S 
ATOM      5  O   UNL     1      -3.440   3.577  22.575  0.00  0.00    -0.152 OA
ATOM      6  O   UNL     1      -4.616   5.487  23.713  0.00  0.00    -0.152 OA
BRANCH   1  25
ATOM     13  N   UNL     1      -5.474   1.997  24.077  0.00  0.00    -0.216 NA
ATOM     14  N   UNL     1      -6.053   2.079  26.219  0.00  0.00    -0.338 N 
ATOM     25  C   UNL     1      -4.913   3.098  24.674  0.00  0.00    +0.211 A 
ATOM     28  C   UNL     1      -5.259   3.169  26.005  0.00  0.00    +0.135 A 
ATOM     30  C   UNL     1      -6.154   1.405  25.033  0.00  0.00    +0.201 A 
ATOM     34  C   UNL     1      -6.672   1.705  27.467  0.00  0.00    +0.150 C 
ENDBRANCH   1  25
ENDBRANCH  11   1
ENDBRANCH  16  11
BRANCH  22  24
ATOM     24  C   UNL     1      -1.349  -1.832  25.404  0.00  0.00    +0.165 C 
BRANCH  24   2
ATOM      2  S   UNL     1      -2.913  -2.507  25.981  0.00  0.00    -0.140 S 
BRANCH   2  31
ATOM     31  C   UNL     1      -4.024  -1.241  25.318  0.00  0.00    +0.189 C 
BRANCH  31  37
ATOM      9  O   UNL     1      -4.637  -2.527  23.375  0.00  0.00    -0.250 OA
ATOM     37  C   UNL     1      -4.228  -1.475  23.849  0.00  0.00    +0.315 C 
BRANCH  37   8
ATOM      8  O   UNL     1      -3.926  -0.386  23.099  0.00  0.00    -0.480 OA
ATOM     43  H   UNL     1      -3.301   0.213  23.560  0.00  0.00    +0.295 HD
ENDBRANCH  37   8
ENDBRANCH  31  37
ENDBRANCH   2  31
ENDBRANCH  24   2
ENDBRANCH  22  24
TORSDOF 13
ENDMDL
MODEL 10
REMARK VINA RESULT:       6.1      3.056      6.555
REMARK  Name = 44716834
REMARK  14 active torsions:
REMARK  status: ('A' for Active; 'I' for Inactive)
REMARK    1  A    between atoms: S_1  and  N_11
REMARK    2  A    between atoms: S_1  and  C_25
REMARK    3  A    between atoms: S_2  and  C_24
REMARK    4  A    between atoms: S_2  and  C_31
REMARK    5  A    between atoms: O_8  and  C_37
REMARK    6  A    between atoms: N_11  and  C_16
REMARK    7  A    between atoms: N_12  and  C_23
REMARK    8  A    between atoms: N_14  and  C_34
REMARK    9  A    between atoms: C_18  and  C_21
REMARK   10  A    between atoms: C_22  and  C_24
REMARK   11  A    between atoms: C_23  and  C_26
REMARK   12  A    between atoms: C_23  and  C_27
REMARK   13  A    between atoms: C_26  and  C_29
REMARK   14  A    between atoms: C_31  and  C_37
REMARK                            x       y       z     vdW  Elec       q    Type
REMARK                         _______ _______ _______ _____ _____    ______ ____
ROOT
ATOM      4  O   UNL     1      -1.924   5.484  23.857  0.00  0.00    -0.275 OA
ATOM     10  N   UNL     1      -1.864   3.161  23.996  0.00  0.00    -0.289 N 
ATOM     16  C   UNL     1      -2.712   0.590  22.918  0.00  0.00    +0.080 C 
ATOM     17  C   UNL     1      -2.476   0.767  24.419  0.00  0.00    +0.052 C 
ATOM     18  C   UNL     1      -1.543   1.935  24.747  0.00  0.00    +0.163 C 
ATOM     19  C   UNL     1      -3.151   1.906  22.286  0.00  0.00    +0.039 C 
ATOM     20  C   UNL     1      -2.129   3.002  22.560  0.00  0.00    +0.110 C 
ATOM     22  C   UNL     1      -1.785   4.455  24.523  0.00  0.00    +0.226 C 
ENDROOT
BRANCH  18  21
ATOM      3  O   UNL     1       0.815   2.278  24.921  0.00  0.00    -0.274 OA
ATOM     12  N   UNL     1       0.024   0.521  23.615  0.00  0.00    -0.302 N 
ATOM     21  C   UNL     1      -0.107   1.611  24.457  0.00  0.00    +0.234 C 
ATOM     40  H   UNL     1      -0.802  -0.002  23.341  0.00  0.00    +0.150 HD
BRANCH  12  23
ATOM     23  C   UNL     1       1.302   0.018  23.164  0.00  0.00    +0.163 C 
BRANCH  23  27
ATOM      7  O   UNL     1       2.127  -0.477  20.933  0.00  0.00    -0.274 OA
ATOM     15  N   UNL     1      -0.141  -0.325  21.256  0.00  0.00    -0.328 N 
ATOM     27  C   UNL     1       1.172  -0.270  21.676  0.00  0.00    +0.231 C 
ATOM     41  H   UNL     1      -0.923  -0.174  21.887  0.00  0.00    +0.145 HD
ATOM     42  H   UNL     1      -0.370  -0.523  20.288  0.00  0.00    +0.145 HD
ENDBRANCH  23  27
BRANCH  23  26
ATOM     26  C   UNL     1       2.439   1.014  23.417  0.00  0.00    +0.067 C 
BRANCH  26  29
ATOM     29  C   UNL     1       3.783   0.343  23.567  0.00  0.00    -0.045 A 
ATOM     32  C   UNL     1       4.952   1.099  23.497  0.00  0.00    +0.004 A 
ATOM     33  C   UNL     1       3.855  -1.034  23.777  0.00  0.00    +0.004 A 
ATOM     35  C   UNL     1       6.194   0.480  23.637  0.00  0.00    +0.000 A 
ATOM     36  C   UNL     1       5.097  -1.654  23.916  0.00  0.00    +0.000 A 
ATOM     38  C   UNL     1       6.266  -0.898  23.846  0.00  0.00    +0.000 A 
ENDBRANCH  26  29
ENDBRANCH  23  26
ENDBRANCH  12  23
ENDBRANCH  18  21
BRANCH  16  11
ATOM     11  N   UNL     1      -3.763  -0.435  22.707  0.00  0.00    -0.185 NA
ATOM     39  H   UNL     1      -4.436  -0.239  21.955  0.00  0.00    +0.148 HD
BRANCH  11   1
ATOM      1  S   UNL     1      -4.244  -1.431  23.996  0.00  0.00    +0.077 S 
ATOM      5  O   UNL     1      -4.657  -2.722  23.480  0.00  0.00    -0.152 OA
ATOM      6  O   UNL     1      -5.125  -0.676  24.866  0.00  0.00    -0.152 OA
BRANCH   1  25
ATOM     13  N   UNL     1      -2.512  -1.120  26.116  0.00  0.00    -0.216 NA
ATOM     14  N   UNL     1      -0.713  -2.238  25.449  0.00  0.00    -0.338 N 
ATOM     25  C   UNL     1      -2.724  -1.653  24.870  0.00  0.00    +0.211 A 
ATOM     28  C   UNL     1      -1.621  -2.351  24.435  0.00  0.00    +0.135 A 
ATOM     30  C   UNL     1      -1.292  -1.491  26.436  0.00  0.00    +0.201 A 
ATOM     34  C   UNL     1       0.614  -2.803  25.474  0.00  0.00    +0.150 C 
ENDBRANCH   1  25
ENDBRANCH  11   1
ENDBRANCH  16  11
BRANCH  22  24
ATOM     24  C   UNL     1      -1.522   4.570  26.005  0.00  0.00    +0.165 C 
BRANCH  24   2
ATOM      2  S   UNL     1      -3.002   4.020  26.867  0.00  0.00    -0.140 S 
BRANCH   2  31
ATOM     31  C   UNL     1      -4.163   4.059  25.479  0.00  0.00    +0.189 C 
BRANCH  31  37
ATOM      9  O   UNL     1      -5.779   2.787  26.734  0.00  0.00    -0.250 OA
ATOM     37  C   UNL     1      -5.209   2.999  25.672  0.00  0.00    +0.315 C 
BRANCH  37   8
ATOM      8  O   UNL     1      -5.468   2.307  24.535  0.00  0.00    -0.480 OA
ATOM     43  H   UNL     1      -4.762   1.655  24.335  0.00  0.00    +0.295 HD
ENDBRANCH  37   8
ENDBRANCH  31  37
ENDBRANCH   2  31
ENDBRANCH  24   2
ENDBRANCH  22  24
TORSDOF 13
ENDMDL
