MODEL 1
REMARK VINA RESULT:       9.9      0.000      0.000
REMARK  Name = 11912438
REMARK  4 active torsions:
REMARK  status: ('A' for Active; 'I' for Inactive)
REMARK    1  A    between atoms: O_6  and  C_30
REMARK    2  A    between atoms: O_6  and  C_31
REMARK    3  A    between atoms: N_7  and  C_15
REMARK    4  A    between atoms: C_23  and  C_25
REMARK                            x       y       z     vdW  Elec       q    Type
REMARK                         _______ _______ _______ _____ _____    ______ ____
ROOT
ATOM      5  O   UNL     1      -0.143  -0.254  22.034  0.00  0.00    -0.267 OA
ATOM      7  N   UNL     1      -3.966   0.616  25.161  0.00  0.00    -0.298 NA
ATOM      8  N   UNL     1      -1.638  -0.976  23.672  0.00  0.00    -0.311 N 
ATOM      9  C   UNL     1      -4.173  -1.049  23.298  0.00  0.00    +0.024 C 
ATOM     10  C   UNL     1      -3.242  -1.758  25.448  0.00  0.00    +0.050 C 
ATOM     11  C   UNL     1      -4.139  -2.199  24.295  0.00  0.00    +0.017 C 
ATOM     12  C   UNL     1      -4.733   0.221  23.974  0.00  0.00    +0.090 C 
ATOM     13  C   UNL     1      -3.839  -0.497  26.114  0.00  0.00    +0.094 C 
ATOM     14  C   UNL     1      -2.761  -0.841  22.733  0.00  0.00    +0.130 C 
ATOM     16  C   UNL     1      -1.832  -1.482  24.959  0.00  0.00    +0.026 A 
ATOM     19  C   UNL     1      -0.779  -1.704  25.761  0.00  0.00    +0.022 A 
ATOM     20  C   UNL     1      -0.357  -0.670  23.174  0.00  0.00    +0.259 A 
ATOM     23  C   UNL     1       0.802  -0.896  24.109  0.00  0.00    +0.047 A 
ATOM     24  C   UNL     1       0.556  -1.399  25.328  0.00  0.00    +0.015 A 
ENDROOT
BRANCH   7  15
ATOM      4  O   UNL     1      -5.620   4.454  25.568  0.00  0.00    -0.380 OA
ATOM     15  C   UNL     1      -4.558   1.788  25.803  0.00  0.00    +0.061 C 
ATOM     17  C   UNL     1      -3.662   3.014  25.604  0.00  0.00    +0.047 C 
ATOM     18  C   UNL     1      -5.960   2.068  25.252  0.00  0.00    +0.047 C 
ATOM     21  C   UNL     1      -4.338   4.261  26.166  0.00  0.00    +0.161 C 
ATOM     22  C   UNL     1      -6.507   3.367  25.832  0.00  0.00    +0.161 C 
ENDBRANCH   7  15
BRANCH  23  25
ATOM     25  C   UNL     1       2.181  -0.568  23.708  0.00  0.00    -0.012 A 
ATOM     26  C   UNL     1       3.203  -1.499  23.893  0.00  0.00    +0.012 A 
ATOM     27  C   UNL     1       2.466   0.676  23.142  0.00  0.00    +0.012 A 
ATOM     28  C   UNL     1       4.509  -1.187  23.514  0.00  0.00    +0.046 A 
ATOM     29  C   UNL     1       3.772   0.987  22.763  0.00  0.00    +0.046 A 
ATOM     30  C   UNL     1       4.793   0.056  22.949  0.00  0.00    +0.130 A 
BRANCH  30   6
ATOM      6  O   UNL     1       6.067   0.359  22.578  0.00  0.00    -0.406 OA
BRANCH   6  31
ATOM      1  F   UNL     1       7.407  -1.442  22.337  0.00  0.00    -0.133 F 
ATOM      2  F   UNL     1       8.251   0.353  23.256  0.00  0.00    -0.133 F 
ATOM      3  F   UNL     1       6.787  -0.885  24.358  0.00  0.00    -0.133 F 
ATOM     31  C   UNL     1       7.132  -0.394  23.147  0.00  0.00    +0.575 C 
ENDBRANCH   6  31
ENDBRANCH  30   6
ENDBRANCH  23  25
TORSDOF 4
ENDMDL
