MODEL 1
REMARK VINA RESULT:       9.0      0.000      0.000
REMARK  Name = 45360433
REMARK  16 active torsions:
REMARK  status: ('A' for Active; 'I' for Inactive)
REMARK    1  A    between atoms: O_2  and  C_34
REMARK    2  A    between atoms: O_2  and  C_39
REMARK    3  A    between atoms: O_3  and  C_35
REMARK    4  A    between atoms: O_3  and  C_40
REMARK    5  A    between atoms: O_4  and  C_38
REMARK    6  A    between atoms: O_4  and  C_41
REMARK    7  A    between atoms: N_6  and  C_17
REMARK    8  A    between atoms: C_11  and  C_18
REMARK    9  A    between atoms: C_12  and  C_17
REMARK   10  A    between atoms: C_20  and  C_22
REMARK   11  A    between atoms: C_21  and  C_26
REMARK   12  A    between atoms: C_22  and  C_24
REMARK   13  A    between atoms: C_22  and  C_25
REMARK   14  A    between atoms: C_23  and  C_27
REMARK   15  A    between atoms: C_24  and  C_28
REMARK   16  A    between atoms: C_25  and  C_29
REMARK                            x       y       z     vdW  Elec       q    Type
REMARK                         _______ _______ _______ _____ _____    ______ ____
ROOT
ATOM      5  N   UNL     1      -3.440  -2.396  25.504  0.00  0.00    -0.297 NA
ATOM     10  C   UNL     1      -0.940  -2.856  24.938  0.00  0.00    +0.002 C 
ATOM     11  C   UNL     1      -1.105  -1.445  25.564  0.00  0.00    +0.055 C 
ATOM     12  C   UNL     1      -3.317  -2.886  24.106  0.00  0.00    +0.074 C 
ATOM     13  C   UNL     1      -1.834  -2.966  23.685  0.00  0.00    +0.024 C 
ATOM     14  C   UNL     1      -1.481  -3.867  25.972  0.00  0.00    +0.019 C 
ATOM     15  C   UNL     1      -2.631  -1.166  25.685  0.00  0.00    +0.094 C 
ATOM     16  C   UNL     1      -2.896  -3.444  26.401  0.00  0.00    +0.085 C 
ENDROOT
BRANCH  11  18
ATOM      7  N   UNL     1      -0.831   0.955  25.173  0.00  0.00    -0.232 NA
ATOM      8  N   UNL     1       0.948   1.840  23.811  0.00  0.00    -0.232 NA
ATOM     18  C   UNL     1      -0.355  -0.283  24.926  0.00  0.00    +0.050 A 
ATOM     19  C   UNL     1       0.752  -0.536  24.141  0.00  0.00    +0.047 A 
ATOM     20  C   UNL     1       1.370   0.575  23.605  0.00  0.00    +0.048 A 
ATOM     21  C   UNL     1      -0.142   1.955  24.593  0.00  0.00    +0.160 A 
BRANCH  21  26
ATOM      9  N   UNL     1      -1.556   5.884  25.299  0.00  0.00    -0.263 NA
ATOM     26  C   UNL     1      -0.622   3.291  24.833  0.00  0.00    +0.022 A 
ATOM     30  C   UNL     1      -1.501   3.539  25.882  0.00  0.00    +0.031 A 
ATOM     31  C   UNL     1      -0.209   4.338  24.017  0.00  0.00    +0.031 A 
ATOM     36  C   UNL     1      -1.935   4.841  26.070  0.00  0.00    +0.111 A 
ATOM     37  C   UNL     1      -0.701   5.605  24.290  0.00  0.00    +0.111 A 
ENDBRANCH  21  26
BRANCH  20  22
ATOM     22  C   UNL     1       2.576   0.400  22.744  0.00  0.00    +0.037 C 
BRANCH  22  24
ATOM     24  C   UNL     1       2.263  -0.305  21.392  0.00  0.00    +0.006 C 
ATOM     28  C   UNL     1       0.788  -0.654  21.235  0.00  0.00    +0.004 C 
ENDBRANCH  22  24
BRANCH  22  25
ATOM     25  C   UNL     1       3.725  -0.375  23.454  0.00  0.00    +0.006 C 
ATOM     29  C   UNL     1       5.047   0.382  23.440  0.00  0.00    +0.004 C 
ENDBRANCH  22  25
ENDBRANCH  20  22
ENDBRANCH  11  18
BRANCH  12  17
ATOM     17  C   UNL     1      -4.144  -2.055  23.122  0.00  0.00    +0.123 C 
BRANCH  17   6
ATOM      1  O   UNL     1      -2.875   0.470  22.616  0.00  0.00    -0.270 OA
ATOM      6  N   UNL     1      -4.498  -0.792  23.692  0.00  0.00    -0.310 N 
ATOM     23  C   UNL     1      -3.825   0.391  23.390  0.00  0.00    +0.244 C 
ATOM     42  H   UNL     1      -5.229  -0.801  24.395  0.00  0.00    +0.149 HD
BRANCH  23  27
ATOM     27  C   UNL     1      -4.297   1.615  24.087  0.00  0.00    +0.044 A 
ATOM     32  C   UNL     1      -3.985   2.874  23.575  0.00  0.00    +0.062 A 
ATOM     33  C   UNL     1      -5.055   1.504  25.253  0.00  0.00    +0.062 A 
ATOM     34  C   UNL     1      -5.499   2.652  25.908  0.00  0.00    +0.166 A 
ATOM     35  C   UNL     1      -4.430   4.022  24.230  0.00  0.00    +0.166 A 
ATOM     38  C   UNL     1      -5.187   3.911  25.397  0.00  0.00    +0.204 A 
BRANCH  34   2
ATOM      2  O   UNL     1      -6.236   2.530  27.048  0.00  0.00    -0.491 OA
ATOM     39  C   UNL     1      -6.861   1.270  27.283  0.00  0.00    +0.277 C 
ENDBRANCH  34   2
BRANCH  35   3
ATOM      3  O   UNL     1      -4.118   5.247  23.721  0.00  0.00    -0.491 OA
ATOM     40  C   UNL     1      -4.350   5.448  22.328  0.00  0.00    +0.277 C 
ENDBRANCH  35   3
BRANCH  38   4
ATOM      4  O   UNL     1      -5.623   5.034  26.037  0.00  0.00    -0.488 OA
ATOM     41  C   UNL     1      -6.663   5.777  25.405  0.00  0.00    +0.277 C 
ENDBRANCH  38   4
ENDBRANCH  23  27
ENDBRANCH  17   6
ENDBRANCH  12  17
TORSDOF 11
ENDMDL
MODEL 2
REMARK VINA RESULT:       9.1      0.094      2.020
REMARK  Name = 45360433
REMARK  16 active torsions:
REMARK  status: ('A' for Active; 'I' for Inactive)
REMARK    1  A    between atoms: O_2  and  C_34
REMARK    2  A    between atoms: O_2  and  C_39
REMARK    3  A    between atoms: O_3  and  C_35
REMARK    4  A    between atoms: O_3  and  C_40
REMARK    5  A    between atoms: O_4  and  C_38
REMARK    6  A    between atoms: O_4  and  C_41
REMARK    7  A    between atoms: N_6  and  C_17
REMARK    8  A    between atoms: C_11  and  C_18
REMARK    9  A    between atoms: C_12  and  C_17
REMARK   10  A    between atoms: C_20  and  C_22
REMARK   11  A    between atoms: C_21  and  C_26
REMARK   12  A    between atoms: C_22  and  C_24
REMARK   13  A    between atoms: C_22  and  C_25
REMARK   14  A    between atoms: C_23  and  C_27
REMARK   15  A    between atoms: C_24  and  C_28
REMARK   16  A    between atoms: C_25  and  C_29
REMARK                            x       y       z     vdW  Elec       q    Type
REMARK                         _______ _______ _______ _____ _____    ______ ____
ROOT
ATOM      5  N   UNL     1      -3.432  -2.430  25.521  0.00  0.00    -0.297 NA
ATOM     10  C   UNL     1      -0.934  -2.872  24.935  0.00  0.00    +0.002 C 
ATOM     11  C   UNL     1      -1.103  -1.462  25.564  0.00  0.00    +0.055 C 
ATOM     12  C   UNL     1      -3.317  -2.918  24.122  0.00  0.00    +0.074 C 
ATOM     13  C   UNL     1      -1.837  -2.987  23.689  0.00  0.00    +0.024 C 
ATOM     14  C   UNL     1      -1.460  -3.887  25.972  0.00  0.00    +0.019 C 
ATOM     15  C   UNL     1      -2.630  -1.194  25.697  0.00  0.00    +0.094 C 
ATOM     16  C   UNL     1      -2.874  -3.474  26.413  0.00  0.00    +0.085 C 
ENDROOT
BRANCH  11  18
ATOM      7  N   UNL     1      -0.854   0.940  25.168  0.00  0.00    -0.232 NA
ATOM      8  N   UNL     1       0.912   1.839  23.797  0.00  0.00    -0.232 NA
ATOM     18  C   UNL     1      -0.367  -0.295  24.921  0.00  0.00    +0.050 A 
ATOM     19  C   UNL     1       0.739  -0.539  24.132  0.00  0.00    +0.047 A 
ATOM     20  C   UNL     1       1.345   0.577  23.592  0.00  0.00    +0.048 A 
ATOM     21  C   UNL     1      -0.176   1.945  24.584  0.00  0.00    +0.160 A 
BRANCH  21  26
ATOM      9  N   UNL     1      -1.623   5.862  25.289  0.00  0.00    -0.263 NA
ATOM     26  C   UNL     1      -0.668   3.277  24.824  0.00  0.00    +0.022 A 
ATOM     30  C   UNL     1      -1.572   3.512  25.853  0.00  0.00    +0.031 A 
ATOM     31  C   UNL     1      -0.240   4.332  24.026  0.00  0.00    +0.031 A 
ATOM     36  C   UNL     1      -2.015   4.811  26.042  0.00  0.00    +0.111 A 
ATOM     37  C   UNL     1      -0.743   5.595  24.298  0.00  0.00    +0.111 A 
ENDBRANCH  21  26
BRANCH  20  22
ATOM     22  C   UNL     1       2.549   0.412  22.726  0.00  0.00    +0.037 C 
BRANCH  22  24
ATOM     24  C   UNL     1       2.237  -0.299  21.377  0.00  0.00    +0.006 C 
ATOM     28  C   UNL     1       0.763  -0.651  21.221  0.00  0.00    +0.004 C 
ENDBRANCH  22  24
BRANCH  22  25
ATOM     25  C   UNL     1       3.708  -0.351  23.433  0.00  0.00    +0.006 C 
ATOM     29  C   UNL     1       5.027   0.411  23.398  0.00  0.00    +0.004 C 
ENDBRANCH  22  25
ENDBRANCH  20  22
ENDBRANCH  11  18
BRANCH  12  17
ATOM     17  C   UNL     1      -4.158  -2.092  23.145  0.00  0.00    +0.123 C 
BRANCH  17   6
ATOM      1  O   UNL     1      -2.908   0.450  22.675  0.00  0.00    -0.270 OA
ATOM      6  N   UNL     1      -4.528  -0.837  23.724  0.00  0.00    -0.310 N 
ATOM     23  C   UNL     1      -3.864   0.354  23.440  0.00  0.00    +0.244 C 
ATOM     42  H   UNL     1      -5.265  -0.861  24.421  0.00  0.00    +0.149 HD
BRANCH  23  27
ATOM     27  C   UNL     1      -4.354   1.567  24.145  0.00  0.00    +0.044 A 
ATOM     32  C   UNL     1      -5.068   1.442  25.336  0.00  0.00    +0.062 A 
ATOM     33  C   UNL     1      -4.097   2.831  23.614  0.00  0.00    +0.062 A 
ATOM     34  C   UNL     1      -4.555   3.971  24.275  0.00  0.00    +0.166 A 
ATOM     35  C   UNL     1      -5.525   2.582  25.997  0.00  0.00    +0.166 A 
ATOM     38  C   UNL     1      -5.269   3.846  25.467  0.00  0.00    +0.204 A 
BRANCH  34   2
ATOM      2  O   UNL     1      -4.300   5.200  23.746  0.00  0.00    -0.491 OA
ATOM     39  C   UNL     1      -4.045   5.261  22.343  0.00  0.00    +0.277 C 
ENDBRANCH  34   2
BRANCH  35   3
ATOM      3  O   UNL     1      -6.222   2.447  27.160  0.00  0.00    -0.491 OA
ATOM     40  C   UNL     1      -6.945   1.231  27.345  0.00  0.00    +0.277 C 
ENDBRANCH  35   3
BRANCH  38   4
ATOM      4  O   UNL     1      -5.716   4.961  26.114  0.00  0.00    -0.488 OA
ATOM     41  C   UNL     1      -6.648   5.784  25.415  0.00  0.00    +0.277 C 
ENDBRANCH  38   4
ENDBRANCH  23  27
ENDBRANCH  17   6
ENDBRANCH  12  17
TORSDOF 11
ENDMDL
MODEL 3
REMARK VINA RESULT:      10.0      2.526      5.972
REMARK  Name = 45360433
REMARK  16 active torsions:
REMARK  status: ('A' for Active; 'I' for Inactive)
REMARK    1  A    between atoms: O_2  and  C_34
REMARK    2  A    between atoms: O_2  and  C_39
REMARK    3  A    between atoms: O_3  and  C_35
REMARK    4  A    between atoms: O_3  and  C_40
REMARK    5  A    between atoms: O_4  and  C_38
REMARK    6  A    between atoms: O_4  and  C_41
REMARK    7  A    between atoms: N_6  and  C_17
REMARK    8  A    between atoms: C_11  and  C_18
REMARK    9  A    between atoms: C_12  and  C_17
REMARK   10  A    between atoms: C_20  and  C_22
REMARK   11  A    between atoms: C_21  and  C_26
REMARK   12  A    between atoms: C_22  and  C_24
REMARK   13  A    between atoms: C_22  and  C_25
REMARK   14  A    between atoms: C_23  and  C_27
REMARK   15  A    between atoms: C_24  and  C_28
REMARK   16  A    between atoms: C_25  and  C_29
REMARK                            x       y       z     vdW  Elec       q    Type
REMARK                         _______ _______ _______ _____ _____    ______ ____
ROOT
ATOM      5  N   UNL     1      -4.286   4.341  23.982  0.00  0.00    -0.297 NA
ATOM     10  C   UNL     1      -2.082   5.440  24.829  0.00  0.00    +0.002 C 
ATOM     11  C   UNL     1      -1.770   4.161  24.007  0.00  0.00    +0.055 C 
ATOM     12  C   UNL     1      -4.384   4.621  25.439  0.00  0.00    +0.074 C 
ATOM     13  C   UNL     1      -3.021   5.078  26.000  0.00  0.00    +0.024 C 
ATOM     14  C   UNL     1      -2.866   6.389  23.896  0.00  0.00    +0.019 C 
ATOM     15  C   UNL     1      -3.126   3.457  23.712  0.00  0.00    +0.094 C 
ATOM     16  C   UNL     1      -4.057   5.630  23.287  0.00  0.00    +0.085 C 
ENDROOT
BRANCH  11  18
ATOM      7  N   UNL     1      -0.395   3.326  25.850  0.00  0.00    -0.232 NA
ATOM      8  N   UNL     1       1.144   1.492  25.576  0.00  0.00    -0.232 NA
ATOM     18  C   UNL     1      -0.724   3.196  24.548  0.00  0.00    +0.050 A 
ATOM     19  C   UNL     1      -0.170   2.251  23.708  0.00  0.00    +0.047 A 
ATOM     20  C   UNL     1       0.768   1.418  24.283  0.00  0.00    +0.048 A 
ATOM     21  C   UNL     1       0.531   2.455  26.291  0.00  0.00    +0.160 A 
BRANCH  21  26
ATOM      9  N   UNL     1       1.643   2.781  30.365  0.00  0.00    -0.263 NA
ATOM     26  C   UNL     1       0.910   2.566  27.676  0.00  0.00    +0.022 A 
ATOM     30  C   UNL     1      -0.062   2.532  28.670  0.00  0.00    +0.031 A 
ATOM     31  C   UNL     1       2.248   2.706  28.025  0.00  0.00    +0.031 A 
ATOM     36  C   UNL     1       0.353   2.644  29.987  0.00  0.00    +0.111 A 
ATOM     37  C   UNL     1       2.560   2.809  29.371  0.00  0.00    +0.111 A 
ENDBRANCH  21  26
BRANCH  20  22
ATOM     22  C   UNL     1       1.420   0.364  23.452  0.00  0.00    +0.037 C 
BRANCH  22  24
ATOM     24  C   UNL     1       2.682   0.877  22.697  0.00  0.00    +0.006 C 
ATOM     28  C   UNL     1       3.971   0.236  23.197  0.00  0.00    +0.004 C 
ENDBRANCH  22  24
BRANCH  22  25
ATOM     25  C   UNL     1       0.452  -0.284  22.419  0.00  0.00    +0.006 C 
ATOM     29  C   UNL     1       1.146  -0.663  21.115  0.00  0.00    +0.004 C 
ENDBRANCH  22  25
ENDBRANCH  20  22
ENDBRANCH  11  18
BRANCH  12  17
ATOM     17  C   UNL     1      -4.954   3.436  26.223  0.00  0.00    +0.123 C 
BRANCH  17   6
ATOM      1  O   UNL     1      -5.961   1.174  24.771  0.00  0.00    -0.270 OA
ATOM      6  N   UNL     1      -4.244   2.232  25.917  0.00  0.00    -0.310 N 
ATOM     23  C   UNL     1      -4.812   1.178  25.203  0.00  0.00    +0.244 C 
ATOM     42  H   UNL     1      -3.313   2.144  26.309  0.00  0.00    +0.149 HD
BRANCH  23  27
ATOM     27  C   UNL     1      -3.951  -0.014  24.991  0.00  0.00    +0.044 A 
ATOM     32  C   UNL     1      -4.456  -1.130  24.324  0.00  0.00    +0.062 A 
ATOM     33  C   UNL     1      -2.637  -0.016  25.459  0.00  0.00    +0.062 A 
ATOM     34  C   UNL     1      -1.828  -1.134  25.260  0.00  0.00    +0.166 A 
ATOM     35  C   UNL     1      -3.647  -2.248  24.125  0.00  0.00    +0.166 A 
ATOM     38  C   UNL     1      -2.332  -2.250  24.593  0.00  0.00    +0.204 A 
BRANCH  34   2
ATOM      2  O   UNL     1      -0.547  -1.125  25.724  0.00  0.00    -0.491 OA
ATOM     39  C   UNL     1       0.184  -2.347  25.632  0.00  0.00    +0.277 C 
ENDBRANCH  34   2
BRANCH  35   3
ATOM      3  O   UNL     1      -4.152  -3.332  23.472  0.00  0.00    -0.491 OA
ATOM     40  C   UNL     1      -5.537  -3.299  23.136  0.00  0.00    +0.277 C 
ENDBRANCH  35   3
BRANCH  38   4
ATOM      4  O   UNL     1      -1.541  -3.344  24.398  0.00  0.00    -0.488 OA
ATOM     41  C   UNL     1      -1.320  -3.750  23.049  0.00  0.00    +0.277 C 
ENDBRANCH  38   4
ENDBRANCH  23  27
ENDBRANCH  17   6
ENDBRANCH  12  17
TORSDOF 11
ENDMDL
MODEL 4
REMARK VINA RESULT:      10.0      2.525      5.953
REMARK  Name = 45360433
REMARK  16 active torsions:
REMARK  status: ('A' for Active; 'I' for Inactive)
REMARK    1  A    between atoms: O_2  and  C_34
REMARK    2  A    between atoms: O_2  and  C_39
REMARK    3  A    between atoms: O_3  and  C_35
REMARK    4  A    between atoms: O_3  and  C_40
REMARK    5  A    between atoms: O_4  and  C_38
REMARK    6  A    between atoms: O_4  and  C_41
REMARK    7  A    between atoms: N_6  and  C_17
REMARK    8  A    between atoms: C_11  and  C_18
REMARK    9  A    between atoms: C_12  and  C_17
REMARK   10  A    between atoms: C_20  and  C_22
REMARK   11  A    between atoms: C_21  and  C_26
REMARK   12  A    between atoms: C_22  and  C_24
REMARK   13  A    between atoms: C_22  and  C_25
REMARK   14  A    between atoms: C_23  and  C_27
REMARK   15  A    between atoms: C_24  and  C_28
REMARK   16  A    between atoms: C_25  and  C_29
REMARK                            x       y       z     vdW  Elec       q    Type
REMARK                         _______ _______ _______ _____ _____    ______ ____
ROOT
ATOM      5  N   UNL     1      -4.233   4.396  23.958  0.00  0.00    -0.297 NA
ATOM     10  C   UNL     1      -2.020   5.455  24.829  0.00  0.00    +0.002 C 
ATOM     11  C   UNL     1      -1.720   4.181  23.993  0.00  0.00    +0.055 C 
ATOM     12  C   UNL     1      -4.336   4.660  25.418  0.00  0.00    +0.074 C 
ATOM     13  C   UNL     1      -2.969   5.092  25.990  0.00  0.00    +0.024 C 
ATOM     14  C   UNL     1      -2.785   6.425  23.904  0.00  0.00    +0.019 C 
ATOM     15  C   UNL     1      -3.084   3.499  23.683  0.00  0.00    +0.094 C 
ATOM     16  C   UNL     1      -3.983   5.690  23.279  0.00  0.00    +0.085 C 
ENDROOT
BRANCH  11  18
ATOM      7  N   UNL     1      -0.330   3.337  25.821  0.00  0.00    -0.232 NA
ATOM      8  N   UNL     1       1.150   1.456  25.546  0.00  0.00    -0.232 NA
ATOM     18  C   UNL     1      -0.691   3.195  24.528  0.00  0.00    +0.050 A 
ATOM     19  C   UNL     1      -0.182   2.221  23.693  0.00  0.00    +0.047 A 
ATOM     20  C   UNL     1       0.744   1.371  24.262  0.00  0.00    +0.048 A 
ATOM     21  C   UNL     1       0.581   2.447  26.257  0.00  0.00    +0.160 A 
BRANCH  21  26
ATOM      9  N   UNL     1       1.791   2.806  30.300  0.00  0.00    -0.263 NA
ATOM     26  C   UNL     1       0.992   2.570  27.632  0.00  0.00    +0.022 A 
ATOM     30  C   UNL     1       2.309   2.895  27.940  0.00  0.00    +0.031 A 
ATOM     31  C   UNL     1       0.075   2.363  28.655  0.00  0.00    +0.031 A 
ATOM     36  C   UNL     1       2.654   2.999  29.278  0.00  0.00    +0.111 A 
ATOM     37  C   UNL     1       0.520   2.492  29.961  0.00  0.00    +0.111 A 
ENDBRANCH  21  26
BRANCH  20  22
ATOM     22  C   UNL     1       1.348   0.285  23.436  0.00  0.00    +0.037 C 
BRANCH  22  24
ATOM     24  C   UNL     1       2.631   0.738  22.678  0.00  0.00    +0.006 C 
ATOM     28  C   UNL     1       3.894   0.064  23.200  0.00  0.00    +0.004 C 
ENDBRANCH  22  24
BRANCH  22  25
ATOM     25  C   UNL     1       0.352  -0.323  22.405  0.00  0.00    +0.006 C 
ATOM     29  C   UNL     1       1.024  -0.728  21.099  0.00  0.00    +0.004 C 
ENDBRANCH  22  25
ENDBRANCH  20  22
ENDBRANCH  11  18
BRANCH  12  17
ATOM     17  C   UNL     1      -4.925   3.473  26.184  0.00  0.00    +0.123 C 
BRANCH  17   6
ATOM      1  O   UNL     1      -5.975   1.180  24.813  0.00  0.00    -0.270 OA
ATOM      6  N   UNL     1      -4.223   2.266  25.877  0.00  0.00    -0.310 N 
ATOM     23  C   UNL     1      -4.811   1.197  25.205  0.00  0.00    +0.244 C 
ATOM     42  H   UNL     1      -3.278   2.188  26.238  0.00  0.00    +0.149 HD
BRANCH  23  27
ATOM     27  C   UNL     1      -3.954   0.003  24.987  0.00  0.00    +0.044 A 
ATOM     32  C   UNL     1      -2.651  -0.023  25.484  0.00  0.00    +0.062 A 
ATOM     33  C   UNL     1      -4.454  -1.094  24.285  0.00  0.00    +0.062 A 
ATOM     34  C   UNL     1      -3.652  -2.216  24.080  0.00  0.00    +0.166 A 
ATOM     35  C   UNL     1      -1.849  -1.145  25.279  0.00  0.00    +0.166 A 
ATOM     38  C   UNL     1      -2.349  -2.242  24.577  0.00  0.00    +0.204 A 
BRANCH  34   2
ATOM      2  O   UNL     1      -4.151  -3.280  23.391  0.00  0.00    -0.491 OA
ATOM     39  C   UNL     1      -5.560  -3.303  23.167  0.00  0.00    +0.277 C 
ENDBRANCH  34   2
BRANCH  35   3
ATOM      3  O   UNL     1      -0.578  -1.157  25.769  0.00  0.00    -0.491 OA
ATOM     40  C   UNL     1       0.158  -2.372  25.632  0.00  0.00    +0.277 C 
ENDBRANCH  35   3
BRANCH  38   4
ATOM      4  O   UNL     1      -1.564  -3.339  24.377  0.00  0.00    -0.488 OA
ATOM     41  C   UNL     1      -1.315  -3.719  23.025  0.00  0.00    +0.277 C 
ENDBRANCH  38   4
ENDBRANCH  23  27
ENDBRANCH  17   6
ENDBRANCH  12  17
TORSDOF 11
ENDMDL
MODEL 5
REMARK VINA RESULT:      10.6      0.995      4.271
REMARK  Name = 45360433
REMARK  16 active torsions:
REMARK  status: ('A' for Active; 'I' for Inactive)
REMARK    1  A    between atoms: O_2  and  C_34
REMARK    2  A    between atoms: O_2  and  C_39
REMARK    3  A    between atoms: O_3  and  C_35
REMARK    4  A    between atoms: O_3  and  C_40
REMARK    5  A    between atoms: O_4  and  C_38
REMARK    6  A    between atoms: O_4  and  C_41
REMARK    7  A    between atoms: N_6  and  C_17
REMARK    8  A    between atoms: C_11  and  C_18
REMARK    9  A    between atoms: C_12  and  C_17
REMARK   10  A    between atoms: C_20  and  C_22
REMARK   11  A    between atoms: C_21  and  C_26
REMARK   12  A    between atoms: C_22  and  C_24
REMARK   13  A    between atoms: C_22  and  C_25
REMARK   14  A    between atoms: C_23  and  C_27
REMARK   15  A    between atoms: C_24  and  C_28
REMARK   16  A    between atoms: C_25  and  C_29
REMARK                            x       y       z     vdW  Elec       q    Type
REMARK                         _______ _______ _______ _____ _____    ______ ____
ROOT
ATOM      5  N   UNL     1      -3.692  -2.422  25.507  0.00  0.00    -0.297 NA
ATOM     10  C   UNL     1      -1.123  -2.674  25.166  0.00  0.00    +0.002 C 
ATOM     11  C   UNL     1      -1.450  -1.319  25.851  0.00  0.00    +0.055 C 
ATOM     12  C   UNL     1      -3.402  -2.813  24.102  0.00  0.00    +0.074 C 
ATOM     13  C   UNL     1      -1.884  -2.765  23.826  0.00  0.00    +0.024 C 
ATOM     14  C   UNL     1      -1.684  -3.783  26.082  0.00  0.00    +0.019 C 
ATOM     15  C   UNL     1      -2.997  -1.154  25.836  0.00  0.00    +0.094 C 
ATOM     16  C   UNL     1      -3.160  -3.485  26.393  0.00  0.00    +0.085 C 
ENDROOT
BRANCH  11  18
ATOM      7  N   UNL     1       0.289  -0.261  24.494  0.00  0.00    -0.232 NA
ATOM      8  N   UNL     1       0.594   2.128  24.434  0.00  0.00    -0.232 NA
ATOM     18  C   UNL     1      -0.732  -0.072  25.357  0.00  0.00    +0.050 A 
ATOM     19  C   UNL     1      -1.142   1.170  25.798  0.00  0.00    +0.047 A 
ATOM     20  C   UNL     1      -0.435   2.245  25.298  0.00  0.00    +0.048 A 
ATOM     21  C   UNL     1       0.898   0.865  24.080  0.00  0.00    +0.160 A 
BRANCH  21  26
ATOM      9  N   UNL     1       4.120   0.384  21.373  0.00  0.00    -0.263 NA
ATOM     26  C   UNL     1       1.994   0.702  23.159  0.00  0.00    +0.022 A 
ATOM     30  C   UNL     1       1.837  -0.079  22.019  0.00  0.00    +0.031 A 
ATOM     31  C   UNL     1       3.212   1.324  23.407  0.00  0.00    +0.031 A 
ATOM     36  C   UNL     1       2.921  -0.205  21.166  0.00  0.00    +0.111 A 
ATOM     37  C   UNL     1       4.234   1.135  22.491  0.00  0.00    +0.111 A 
ENDBRANCH  21  26
BRANCH  20  22
ATOM     22  C   UNL     1      -0.807   3.628  25.718  0.00  0.00    +0.037 C 
BRANCH  22  24
ATOM     24  C   UNL     1      -2.303   3.757  26.131  0.00  0.00    +0.006 C 
ATOM     28  C   UNL     1      -2.487   3.946  27.632  0.00  0.00    +0.004 C 
ENDBRANCH  22  24
BRANCH  22  25
ATOM     25  C   UNL     1      -0.497   4.699  24.632  0.00  0.00    +0.006 C 
ATOM     29  C   UNL     1      -1.206   6.024  24.888  0.00  0.00    +0.004 C 
ENDBRANCH  22  25
ENDBRANCH  20  22
ENDBRANCH  11  18
BRANCH  12  17
ATOM     17  C   UNL     1      -4.192  -1.980  23.090  0.00  0.00    +0.123 C 
BRANCH  17   6
ATOM      1  O   UNL     1      -2.815   0.512  22.721  0.00  0.00    -0.270 OA
ATOM      6  N   UNL     1      -4.556  -0.713  23.645  0.00  0.00    -0.310 N 
ATOM     23  C   UNL     1      -3.828   0.453  23.414  0.00  0.00    +0.244 C 
ATOM     42  H   UNL     1      -5.342  -0.708  24.286  0.00  0.00    +0.149 HD
BRANCH  23  27
ATOM     27  C   UNL     1      -4.321   1.683  24.085  0.00  0.00    +0.044 A 
ATOM     32  C   UNL     1      -5.193   1.586  25.169  0.00  0.00    +0.062 A 
ATOM     33  C   UNL     1      -3.910   2.936  23.631  0.00  0.00    +0.062 A 
ATOM     34  C   UNL     1      -4.372   4.092  24.260  0.00  0.00    +0.166 A 
ATOM     35  C   UNL     1      -5.654   2.741  25.799  0.00  0.00    +0.166 A 
ATOM     38  C   UNL     1      -5.244   3.995  25.344  0.00  0.00    +0.204 A 
BRANCH  34   2
ATOM      2  O   UNL     1      -3.965   5.310  23.805  0.00  0.00    -0.491 OA
ATOM     39  C   UNL     1      -4.370   5.678  22.487  0.00  0.00    +0.277 C 
ENDBRANCH  34   2
BRANCH  35   3
ATOM      3  O   UNL     1      -6.506   2.633  26.856  0.00  0.00    -0.491 OA
ATOM     40  C   UNL     1      -6.797   1.317  27.322  0.00  0.00    +0.277 C 
ENDBRANCH  35   3
BRANCH  38   4
ATOM      4  O   UNL     1      -5.695   5.125  25.960  0.00  0.00    -0.488 OA
ATOM     41  C   UNL     1      -6.783   5.808  25.342  0.00  0.00    +0.277 C 
ENDBRANCH  38   4
ENDBRANCH  23  27
ENDBRANCH  17   6
ENDBRANCH  12  17
TORSDOF 11
ENDMDL
MODEL 6
REMARK VINA RESULT:      10.8      0.989      3.758
REMARK  Name = 45360433
REMARK  16 active torsions:
REMARK  status: ('A' for Active; 'I' for Inactive)
REMARK    1  A    between atoms: O_2  and  C_34
REMARK    2  A    between atoms: O_2  and  C_39
REMARK    3  A    between atoms: O_3  and  C_35
REMARK    4  A    between atoms: O_3  and  C_40
REMARK    5  A    between atoms: O_4  and  C_38
REMARK    6  A    between atoms: O_4  and  C_41
REMARK    7  A    between atoms: N_6  and  C_17
REMARK    8  A    between atoms: C_11  and  C_18
REMARK    9  A    between atoms: C_12  and  C_17
REMARK   10  A    between atoms: C_20  and  C_22
REMARK   11  A    between atoms: C_21  and  C_26
REMARK   12  A    between atoms: C_22  and  C_24
REMARK   13  A    between atoms: C_22  and  C_25
REMARK   14  A    between atoms: C_23  and  C_27
REMARK   15  A    between atoms: C_24  and  C_28
REMARK   16  A    between atoms: C_25  and  C_29
REMARK                            x       y       z     vdW  Elec       q    Type
REMARK                         _______ _______ _______ _____ _____    ______ ____
ROOT
ATOM      5  N   UNL     1      -3.684  -2.572  25.564  0.00  0.00    -0.297 NA
ATOM     10  C   UNL     1      -1.139  -2.758  25.043  0.00  0.00    +0.002 C 
ATOM     11  C   UNL     1      -1.452  -1.410  25.747  0.00  0.00    +0.055 C 
ATOM     12  C   UNL     1      -3.483  -2.961  24.143  0.00  0.00    +0.074 C 
ATOM     13  C   UNL     1      -1.990  -2.874  23.760  0.00  0.00    +0.024 C 
ATOM     14  C   UNL     1      -1.604  -3.878  25.999  0.00  0.00    +0.019 C 
ATOM     15  C   UNL     1      -3.001  -1.284  25.840  0.00  0.00    +0.094 C 
ATOM     16  C   UNL     1      -3.063  -3.617  26.412  0.00  0.00    +0.085 C 
ENDROOT
BRANCH  11  18
ATOM      7  N   UNL     1       0.287  -0.312  24.422  0.00  0.00    -0.232 NA
ATOM      8  N   UNL     1       0.403   2.084  24.190  0.00  0.00    -0.232 NA
ATOM     18  C   UNL     1      -0.803  -0.146  25.200  0.00  0.00    +0.050 A 
ATOM     19  C   UNL     1      -1.342   1.086  25.514  0.00  0.00    +0.047 A 
ATOM     20  C   UNL     1      -0.690   2.176  24.974  0.00  0.00    +0.048 A 
ATOM     21  C   UNL     1       0.831   0.829  23.958  0.00  0.00    +0.160 A 
BRANCH  21  26
ATOM      9  N   UNL     1       4.263   0.424  21.509  0.00  0.00    -0.263 NA
ATOM     26  C   UNL     1       1.998   0.691  23.125  0.00  0.00    +0.022 A 
ATOM     30  C   UNL     1       3.189   1.313  23.484  0.00  0.00    +0.031 A 
ATOM     31  C   UNL     1       1.938  -0.064  21.960  0.00  0.00    +0.031 A 
ATOM     36  C   UNL     1       4.282   1.150  22.649  0.00  0.00    +0.111 A 
ATOM     37  C   UNL     1       3.088  -0.165  21.193  0.00  0.00    +0.111 A 
ENDBRANCH  21  26
BRANCH  20  22
ATOM     22  C   UNL     1      -1.201   3.550  25.257  0.00  0.00    +0.037 C 
BRANCH  22  24
ATOM     24  C   UNL     1      -0.310   4.670  24.644  0.00  0.00    +0.006 C 
ATOM     28  C   UNL     1      -0.952   6.049  24.731  0.00  0.00    +0.004 C 
ENDBRANCH  22  24
BRANCH  22  25
ATOM     25  C   UNL     1      -1.378   3.833  26.778  0.00  0.00    +0.006 C 
ATOM     29  C   UNL     1      -2.841   3.930  27.195  0.00  0.00    +0.004 C 
ENDBRANCH  22  25
ENDBRANCH  20  22
ENDBRANCH  11  18
BRANCH  12  17
ATOM     17  C   UNL     1      -4.363  -2.152  23.187  0.00  0.00    +0.123 C 
BRANCH  17   6
ATOM      1  O   UNL     1      -3.056   0.340  22.618  0.00  0.00    -0.270 OA
ATOM      6  N   UNL     1      -4.682  -0.874  23.744  0.00  0.00    -0.310 N 
ATOM     23  C   UNL     1      -3.993   0.291  23.411  0.00  0.00    +0.244 C 
ATOM     42  H   UNL     1      -5.399  -0.859  24.461  0.00  0.00    +0.149 HD
BRANCH  23  27
ATOM     27  C   UNL     1      -4.428   1.534  24.098  0.00  0.00    +0.044 A 
ATOM     32  C   UNL     1      -3.943   2.772  23.676  0.00  0.00    +0.062 A 
ATOM     33  C   UNL     1      -5.325   1.463  25.164  0.00  0.00    +0.062 A 
ATOM     34  C   UNL     1      -5.735   2.629  25.810  0.00  0.00    +0.166 A 
ATOM     35  C   UNL     1      -4.354   3.938  24.321  0.00  0.00    +0.166 A 
ATOM     38  C   UNL     1      -5.250   3.867  25.388  0.00  0.00    +0.204 A 
BRANCH  34   2
ATOM      2  O   UNL     1      -6.609   2.546  26.852  0.00  0.00    -0.491 OA
ATOM     39  C   UNL     1      -6.845   1.249  27.397  0.00  0.00    +0.277 C 
ENDBRANCH  34   2
BRANCH  35   3
ATOM      3  O   UNL     1      -3.871   5.141  23.901  0.00  0.00    -0.491 OA
ATOM     40  C   UNL     1      -4.339   5.622  22.642  0.00  0.00    +0.277 C 
ENDBRANCH  35   3
BRANCH  38   4
ATOM      4  O   UNL     1      -5.651   5.008  26.019  0.00  0.00    -0.488 OA
ATOM     41  C   UNL     1      -6.680   5.768  25.388  0.00  0.00    +0.277 C 
ENDBRANCH  38   4
ENDBRANCH  23  27
ENDBRANCH  17   6
ENDBRANCH  12  17
TORSDOF 11
ENDMDL
MODEL 7
REMARK VINA RESULT:      11.4      2.434      6.650
REMARK  Name = 45360433
REMARK  16 active torsions:
REMARK  status: ('A' for Active; 'I' for Inactive)
REMARK    1  A    between atoms: O_2  and  C_34
REMARK    2  A    between atoms: O_2  and  C_39
REMARK    3  A    between atoms: O_3  and  C_35
REMARK    4  A    between atoms: O_3  and  C_40
REMARK    5  A    between atoms: O_4  and  C_38
REMARK    6  A    between atoms: O_4  and  C_41
REMARK    7  A    between atoms: N_6  and  C_17
REMARK    8  A    between atoms: C_11  and  C_18
REMARK    9  A    between atoms: C_12  and  C_17
REMARK   10  A    between atoms: C_20  and  C_22
REMARK   11  A    between atoms: C_21  and  C_26
REMARK   12  A    between atoms: C_22  and  C_24
REMARK   13  A    between atoms: C_22  and  C_25
REMARK   14  A    between atoms: C_23  and  C_27
REMARK   15  A    between atoms: C_24  and  C_28
REMARK   16  A    between atoms: C_25  and  C_29
REMARK                            x       y       z     vdW  Elec       q    Type
REMARK                         _______ _______ _______ _____ _____    ______ ____
ROOT
ATOM      5  N   UNL     1      -4.440   4.336  24.052  0.00  0.00    -0.297 NA
ATOM     10  C   UNL     1      -2.304   5.517  24.960  0.00  0.00    +0.002 C 
ATOM     11  C   UNL     1      -1.920   4.259  24.133  0.00  0.00    +0.055 C 
ATOM     12  C   UNL     1      -4.584   4.598  25.509  0.00  0.00    +0.074 C 
ATOM     13  C   UNL     1      -3.253   5.105  26.105  0.00  0.00    +0.024 C 
ATOM     14  C   UNL     1      -3.104   6.442  24.017  0.00  0.00    +0.019 C 
ATOM     15  C   UNL     1      -3.239   3.503  23.801  0.00  0.00    +0.094 C 
ATOM     16  C   UNL     1      -4.249   5.641  23.374  0.00  0.00    +0.085 C 
ENDROOT
BRANCH  11  18
ATOM      7  N   UNL     1      -0.145   2.611  23.792  0.00  0.00    -0.232 NA
ATOM      8  N   UNL     1       1.089   1.654  25.627  0.00  0.00    -0.232 NA
ATOM     18  C   UNL     1      -0.849   3.333  24.690  0.00  0.00    +0.050 A 
ATOM     19  C   UNL     1      -0.644   3.269  26.054  0.00  0.00    +0.047 A 
ATOM     20  C   UNL     1       0.348   2.404  26.469  0.00  0.00    +0.048 A 
ATOM     21  C   UNL     1       0.794   1.805  24.322  0.00  0.00    +0.160 A 
BRANCH  21  26
ATOM      9  N   UNL     1       3.059  -0.509  21.592  0.00  0.00    -0.263 NA
ATOM     26  C   UNL     1       1.564   1.018  23.394  0.00  0.00    +0.022 A 
ATOM     30  C   UNL     1       2.933   1.226  23.271  0.00  0.00    +0.031 A 
ATOM     31  C   UNL     1       0.941   0.048  22.617  0.00  0.00    +0.031 A 
ATOM     36  C   UNL     1       3.629   0.443  22.364  0.00  0.00    +0.111 A 
ATOM     37  C   UNL     1       1.726  -0.682  21.739  0.00  0.00    +0.111 A 
ENDBRANCH  21  26
BRANCH  20  22
ATOM     22  C   UNL     1       0.641   2.269  27.926  0.00  0.00    +0.037 C 
BRANCH  22  24
ATOM     24  C   UNL     1      -0.417   2.970  28.828  0.00  0.00    +0.006 C 
ATOM     28  C   UNL     1       0.034   3.097  30.278  0.00  0.00    +0.004 C 
ENDBRANCH  22  24
BRANCH  22  25
ATOM     25  C   UNL     1       2.053   2.798  28.315  0.00  0.00    +0.006 C 
ATOM     29  C   UNL     1       2.603   2.142  29.576  0.00  0.00    +0.004 C 
ENDBRANCH  22  25
ENDBRANCH  20  22
ENDBRANCH  11  18
BRANCH  12  17
ATOM     17  C   UNL     1      -5.121   3.383  26.269  0.00  0.00    +0.123 C 
BRANCH  17   6
ATOM      1  O   UNL     1      -6.026   1.163  24.689  0.00  0.00    -0.270 OA
ATOM      6  N   UNL     1      -4.376   2.206  25.944  0.00  0.00    -0.310 N 
ATOM     23  C   UNL     1      -4.894   1.171  25.167  0.00  0.00    +0.244 C 
ATOM     42  H   UNL     1      -3.459   2.119  26.369  0.00  0.00    +0.149 HD
BRANCH  23  27
ATOM     27  C   UNL     1      -4.003   0.004  24.943  0.00  0.00    +0.044 A 
ATOM     32  C   UNL     1      -4.518  -1.175  24.406  0.00  0.00    +0.062 A 
ATOM     33  C   UNL     1      -2.649   0.090  25.268  0.00  0.00    +0.062 A 
ATOM     34  C   UNL     1      -1.810  -1.004  25.057  0.00  0.00    +0.166 A 
ATOM     35  C   UNL     1      -3.679  -2.269  24.194  0.00  0.00    +0.166 A 
ATOM     38  C   UNL     1      -2.325  -2.184  24.520  0.00  0.00    +0.204 A 
BRANCH  34   2
ATOM      2  O   UNL     1      -0.491  -0.909  25.382  0.00  0.00    -0.491 OA
ATOM     39  C   UNL     1       0.175  -2.116  25.749  0.00  0.00    +0.277 C 
ENDBRANCH  34   2
BRANCH  35   3
ATOM      3  O   UNL     1      -4.194  -3.416  23.670  0.00  0.00    -0.491 OA
ATOM     40  C   UNL     1      -5.487  -3.332  23.074  0.00  0.00    +0.277 C 
ENDBRANCH  35   3
BRANCH  38   4
ATOM      4  O   UNL     1      -1.505  -3.254  24.313  0.00  0.00    -0.488 OA
ATOM     41  C   UNL     1      -1.108  -3.514  22.969  0.00  0.00    +0.277 C 
ENDBRANCH  38   4
ENDBRANCH  23  27
ENDBRANCH  17   6
ENDBRANCH  12  17
TORSDOF 11
ENDMDL
MODEL 8
REMARK VINA RESULT:      11.4      2.420      6.555
REMARK  Name = 45360433
REMARK  16 active torsions:
REMARK  status: ('A' for Active; 'I' for Inactive)
REMARK    1  A    between atoms: O_2  and  C_34
REMARK    2  A    between atoms: O_2  and  C_39
REMARK    3  A    between atoms: O_3  and  C_35
REMARK    4  A    between atoms: O_3  and  C_40
REMARK    5  A    between atoms: O_4  and  C_38
REMARK    6  A    between atoms: O_4  and  C_41
REMARK    7  A    between atoms: N_6  and  C_17
REMARK    8  A    between atoms: C_11  and  C_18
REMARK    9  A    between atoms: C_12  and  C_17
REMARK   10  A    between atoms: C_20  and  C_22
REMARK   11  A    between atoms: C_21  and  C_26
REMARK   12  A    between atoms: C_22  and  C_24
REMARK   13  A    between atoms: C_22  and  C_25
REMARK   14  A    between atoms: C_23  and  C_27
REMARK   15  A    between atoms: C_24  and  C_28
REMARK   16  A    between atoms: C_25  and  C_29
REMARK                            x       y       z     vdW  Elec       q    Type
REMARK                         _______ _______ _______ _____ _____    ______ ____
ROOT
ATOM      5  N   UNL     1      -4.431   4.347  24.070  0.00  0.00    -0.297 NA
ATOM     10  C   UNL     1      -2.285   5.536  24.943  0.00  0.00    +0.002 C 
ATOM     11  C   UNL     1      -1.910   4.280  24.111  0.00  0.00    +0.055 C 
ATOM     12  C   UNL     1      -4.552   4.609  25.528  0.00  0.00    +0.074 C 
ATOM     13  C   UNL     1      -3.215   5.122  26.103  0.00  0.00    +0.024 C 
ATOM     14  C   UNL     1      -3.104   6.457  24.012  0.00  0.00    +0.019 C 
ATOM     15  C   UNL     1      -3.231   3.518  23.800  0.00  0.00    +0.094 C 
ATOM     16  C   UNL     1      -4.256   5.652  23.388  0.00  0.00    +0.085 C 
ENDROOT
BRANCH  11  18
ATOM      7  N   UNL     1      -0.155   2.615  23.746  0.00  0.00    -0.232 NA
ATOM      8  N   UNL     1       1.132   1.686  25.559  0.00  0.00    -0.232 NA
ATOM     18  C   UNL     1      -0.826   3.358  24.651  0.00  0.00    +0.050 A 
ATOM     19  C   UNL     1      -0.578   3.320  26.008  0.00  0.00    +0.047 A 
ATOM     20  C   UNL     1       0.422   2.457  26.409  0.00  0.00    +0.048 A 
ATOM     21  C   UNL     1       0.796   1.813  24.261  0.00  0.00    +0.160 A 
BRANCH  21  26
ATOM      9  N   UNL     1       2.959  -0.569  21.507  0.00  0.00    -0.263 NA
ATOM     26  C   UNL     1       1.531   1.004  23.325  0.00  0.00    +0.022 A 
ATOM     30  C   UNL     1       0.873   0.045  22.563  0.00  0.00    +0.031 A 
ATOM     31  C   UNL     1       2.903   1.178  23.179  0.00  0.00    +0.031 A 
ATOM     36  C   UNL     1       1.625  -0.709  21.677  0.00  0.00    +0.111 A 
ATOM     37  C   UNL     1       3.564   0.373  22.265  0.00  0.00    +0.111 A 
ENDBRANCH  21  26
BRANCH  20  22
ATOM     22  C   UNL     1       0.762   2.350  27.858  0.00  0.00    +0.037 C 
BRANCH  22  24
ATOM     24  C   UNL     1      -0.386   2.835  28.791  0.00  0.00    +0.006 C 
ATOM     28  C   UNL     1       0.079   3.085  30.220  0.00  0.00    +0.004 C 
ENDBRANCH  22  24
BRANCH  22  25
ATOM     25  C   UNL     1       2.066   3.112  28.237  0.00  0.00    +0.006 C 
ATOM     29  C   UNL     1       2.982   2.300  29.145  0.00  0.00    +0.004 C 
ENDBRANCH  22  25
ENDBRANCH  20  22
ENDBRANCH  11  18
BRANCH  12  17
ATOM     17  C   UNL     1      -5.073   3.392  26.297  0.00  0.00    +0.123 C 
BRANCH  17   6
ATOM      1  O   UNL     1      -5.991   1.159  24.743  0.00  0.00    -0.270 OA
ATOM      6  N   UNL     1      -4.326   2.219  25.964  0.00  0.00    -0.310 N 
ATOM     23  C   UNL     1      -4.851   1.177  25.201  0.00  0.00    +0.244 C 
ATOM     42  H   UNL     1      -3.401   2.140  26.373  0.00  0.00    +0.149 HD
BRANCH  23  27
ATOM     27  C   UNL     1      -3.955   0.015  24.966  0.00  0.00    +0.044 A 
ATOM     32  C   UNL     1      -2.602   0.098  25.294  0.00  0.00    +0.062 A 
ATOM     33  C   UNL     1      -4.470  -1.160  24.419  0.00  0.00    +0.062 A 
ATOM     34  C   UNL     1      -3.631  -2.252  24.198  0.00  0.00    +0.166 A 
ATOM     35  C   UNL     1      -1.764  -0.994  25.074  0.00  0.00    +0.166 A 
ATOM     38  C   UNL     1      -2.278  -2.169  24.525  0.00  0.00    +0.204 A 
BRANCH  34   2
ATOM      2  O   UNL     1      -4.145  -3.393  23.660  0.00  0.00    -0.491 OA
ATOM     39  C   UNL     1      -5.438  -3.304  23.065  0.00  0.00    +0.277 C 
ENDBRANCH  34   2
BRANCH  35   3
ATOM      3  O   UNL     1      -0.444  -0.901  25.397  0.00  0.00    -0.491 OA
ATOM     40  C   UNL     1       0.217  -2.106  25.779  0.00  0.00    +0.277 C 
ENDBRANCH  35   3
BRANCH  38   4
ATOM      4  O   UNL     1      -1.458  -3.238  24.310  0.00  0.00    -0.488 OA
ATOM     41  C   UNL     1      -1.101  -3.518  22.959  0.00  0.00    +0.277 C 
ENDBRANCH  38   4
ENDBRANCH  23  27
ENDBRANCH  17   6
ENDBRANCH  12  17
TORSDOF 11
ENDMDL
MODEL 9
REMARK VINA RESULT:      12.2      1.801      4.393
REMARK  Name = 45360433
REMARK  16 active torsions:
REMARK  status: ('A' for Active; 'I' for Inactive)
REMARK    1  A    between atoms: O_2  and  C_34
REMARK    2  A    between atoms: O_2  and  C_39
REMARK    3  A    between atoms: O_3  and  C_35
REMARK    4  A    between atoms: O_3  and  C_40
REMARK    5  A    between atoms: O_4  and  C_38
REMARK    6  A    between atoms: O_4  and  C_41
REMARK    7  A    between atoms: N_6  and  C_17
REMARK    8  A    between atoms: C_11  and  C_18
REMARK    9  A    between atoms: C_12  and  C_17
REMARK   10  A    between atoms: C_20  and  C_22
REMARK   11  A    between atoms: C_21  and  C_26
REMARK   12  A    between atoms: C_22  and  C_24
REMARK   13  A    between atoms: C_22  and  C_25
REMARK   14  A    between atoms: C_23  and  C_27
REMARK   15  A    between atoms: C_24  and  C_28
REMARK   16  A    between atoms: C_25  and  C_29
REMARK                            x       y       z     vdW  Elec       q    Type
REMARK                         _______ _______ _______ _____ _____    ______ ____
ROOT
ATOM      5  N   UNL     1      -3.579  -2.239  25.764  0.00  0.00    -0.297 NA
ATOM     10  C   UNL     1      -1.605  -3.106  24.304  0.00  0.00    +0.002 C 
ATOM     11  C   UNL     1      -1.193  -1.815  25.063  0.00  0.00    +0.055 C 
ATOM     12  C   UNL     1      -4.049  -2.505  24.379  0.00  0.00    +0.074 C 
ATOM     13  C   UNL     1      -2.857  -2.819  23.450  0.00  0.00    +0.024 C 
ATOM     14  C   UNL     1      -2.013  -4.140  25.375  0.00  0.00    +0.019 C 
ATOM     15  C   UNL     1      -2.473  -1.250  25.745  0.00  0.00    +0.094 C 
ATOM     16  C   UNL     1      -3.054  -3.510  26.316  0.00  0.00    +0.085 C 
ENDROOT
BRANCH  11  18
ATOM      7  N   UNL     1       0.910  -0.903  24.207  0.00  0.00    -0.232 NA
ATOM      8  N   UNL     1       1.000   1.142  22.936  0.00  0.00    -0.232 NA
ATOM     18  C   UNL     1      -0.428  -0.744  24.298  0.00  0.00    +0.050 A 
ATOM     19  C   UNL     1      -1.113   0.317  23.742  0.00  0.00    +0.047 A 
ATOM     20  C   UNL     1      -0.339   1.239  23.066  0.00  0.00    +0.048 A 
ATOM     21  C   UNL     1       1.551   0.062  23.523  0.00  0.00    +0.160 A 
BRANCH  21  26
ATOM      9  N   UNL     1       5.754  -0.336  23.181  0.00  0.00    -0.263 NA
ATOM     26  C   UNL     1       2.980  -0.073  23.407  0.00  0.00    +0.022 A 
ATOM     30  C   UNL     1       3.740   0.968  22.886  0.00  0.00    +0.031 A 
ATOM     31  C   UNL     1       3.605  -1.246  23.815  0.00  0.00    +0.031 A 
ATOM     36  C   UNL     1       5.111   0.788  22.794  0.00  0.00    +0.111 A 
ATOM     37  C   UNL     1       4.982  -1.327  23.682  0.00  0.00    +0.111 A 
ENDBRANCH  21  26
BRANCH  20  22
ATOM     22  C   UNL     1      -0.993   2.420  22.431  0.00  0.00    +0.037 C 
BRANCH  22  24
ATOM     24  C   UNL     1      -1.041   3.665  23.364  0.00  0.00    +0.006 C 
ATOM     28  C   UNL     1       0.191   4.552  23.231  0.00  0.00    +0.004 C 
ENDBRANCH  22  24
BRANCH  22  25
ATOM     25  C   UNL     1      -2.435   2.121  21.926  0.00  0.00    +0.006 C 
ATOM     29  C   UNL     1      -3.426   3.225  22.277  0.00  0.00    +0.004 C 
ENDBRANCH  22  25
ENDBRANCH  20  22
ENDBRANCH  11  18
BRANCH  12  17
ATOM     17  C   UNL     1      -4.916  -1.369  23.829  0.00  0.00    +0.123 C 
BRANCH  17   6
ATOM      1  O   UNL     1      -6.055   0.464  25.723  0.00  0.00    -0.270 OA
ATOM      6  N   UNL     1      -4.388  -0.094  24.209  0.00  0.00    -0.310 N 
ATOM     23  C   UNL     1      -5.008   0.736  25.140  0.00  0.00    +0.244 C 
ATOM     42  H   UNL     1      -3.563   0.221  23.709  0.00  0.00    +0.149 HD
BRANCH  23  27
ATOM     27  C   UNL     1      -4.348   2.040  25.405  0.00  0.00    +0.044 A 
ATOM     32  C   UNL     1      -2.983   2.088  25.686  0.00  0.00    +0.062 A 
ATOM     33  C   UNL     1      -5.095   3.218  25.370  0.00  0.00    +0.062 A 
ATOM     34  C   UNL     1      -4.476   4.443  25.617  0.00  0.00    +0.166 A 
ATOM     35  C   UNL     1      -2.364   3.313  25.932  0.00  0.00    +0.166 A 
ATOM     38  C   UNL     1      -3.111   4.491  25.898  0.00  0.00    +0.204 A 
BRANCH  34   2
ATOM      2  O   UNL     1      -5.217   5.586  25.583  0.00  0.00    -0.491 OA
ATOM     39  C   UNL     1      -6.611   5.447  25.313  0.00  0.00    +0.277 C 
ENDBRANCH  34   2
BRANCH  35   3
ATOM      3  O   UNL     1      -1.030   3.347  26.207  0.00  0.00    -0.491 OA
ATOM     40  C   UNL     1      -0.414   2.115  26.580  0.00  0.00    +0.277 C 
ENDBRANCH  35   3
BRANCH  38   4
ATOM      4  O   UNL     1      -2.506   5.690  26.139  0.00  0.00    -0.488 OA
ATOM     41  C   UNL     1      -1.820   6.299  25.048  0.00  0.00    +0.277 C 
ENDBRANCH  38   4
ENDBRANCH  23  27
ENDBRANCH  17   6
ENDBRANCH  12  17
TORSDOF 11
ENDMDL
MODEL 10
REMARK VINA RESULT:      12.2      1.799      4.311
REMARK  Name = 45360433
REMARK  16 active torsions:
REMARK  status: ('A' for Active; 'I' for Inactive)
REMARK    1  A    between atoms: O_2  and  C_34
REMARK    2  A    between atoms: O_2  and  C_39
REMARK    3  A    between atoms: O_3  and  C_35
REMARK    4  A    between atoms: O_3  and  C_40
REMARK    5  A    between atoms: O_4  and  C_38
REMARK    6  A    between atoms: O_4  and  C_41
REMARK    7  A    between atoms: N_6  and  C_17
REMARK    8  A    between atoms: C_11  and  C_18
REMARK    9  A    between atoms: C_12  and  C_17
REMARK   10  A    between atoms: C_20  and  C_22
REMARK   11  A    between atoms: C_21  and  C_26
REMARK   12  A    between atoms: C_22  and  C_24
REMARK   13  A    between atoms: C_22  and  C_25
REMARK   14  A    between atoms: C_23  and  C_27
REMARK   15  A    between atoms: C_24  and  C_28
REMARK   16  A    between atoms: C_25  and  C_29
REMARK                            x       y       z     vdW  Elec       q    Type
REMARK                         _______ _______ _______ _____ _____    ______ ____
ROOT
ATOM      5  N   UNL     1      -3.597  -2.271  25.792  0.00  0.00    -0.297 NA
ATOM     10  C   UNL     1      -1.647  -3.131  24.296  0.00  0.00    +0.002 C 
ATOM     11  C   UNL     1      -1.224  -1.841  25.051  0.00  0.00    +0.055 C 
ATOM     12  C   UNL     1      -4.090  -2.534  24.415  0.00  0.00    +0.074 C 
ATOM     13  C   UNL     1      -2.914  -2.844  23.465  0.00  0.00    +0.024 C 
ATOM     14  C   UNL     1      -2.035  -4.169  25.372  0.00  0.00    +0.019 C 
ATOM     15  C   UNL     1      -2.493  -1.280  25.756  0.00  0.00    +0.094 C 
ATOM     16  C   UNL     1      -3.060  -3.543  26.333  0.00  0.00    +0.085 C 
ENDROOT
BRANCH  11  18
ATOM      7  N   UNL     1       0.867  -0.905  24.193  0.00  0.00    -0.232 NA
ATOM      8  N   UNL     1       0.929   1.124  22.896  0.00  0.00    -0.232 NA
ATOM     18  C   UNL     1      -0.473  -0.768  24.276  0.00  0.00    +0.050 A 
ATOM     19  C   UNL     1      -1.174   0.274  23.702  0.00  0.00    +0.047 A 
ATOM     20  C   UNL     1      -0.413   1.200  23.018  0.00  0.00    +0.048 A 
ATOM     21  C   UNL     1       1.495   0.062  23.499  0.00  0.00    +0.160 A 
BRANCH  21  26
ATOM      9  N   UNL     1       5.706  -0.267  23.185  0.00  0.00    -0.263 NA
ATOM     26  C   UNL     1       2.927  -0.050  23.392  0.00  0.00    +0.022 A 
ATOM     30  C   UNL     1       3.570  -1.207  23.816  0.00  0.00    +0.031 A 
ATOM     31  C   UNL     1       3.671   1.000  22.865  0.00  0.00    +0.031 A 
ATOM     36  C   UNL     1       4.949  -1.265  23.692  0.00  0.00    +0.111 A 
ATOM     37  C   UNL     1       5.045   0.842  22.784  0.00  0.00    +0.111 A 
ENDBRANCH  21  26
BRANCH  20  22
ATOM     22  C   UNL     1      -1.084   2.361  22.364  0.00  0.00    +0.037 C 
BRANCH  22  24
ATOM     24  C   UNL     1      -1.019   3.662  23.216  0.00  0.00    +0.006 C 
ATOM     28  C   UNL     1       0.399   4.014  23.649  0.00  0.00    +0.004 C 
ENDBRANCH  22  24
BRANCH  22  25
ATOM     25  C   UNL     1      -2.571   2.080  21.999  0.00  0.00    +0.006 C 
ATOM     29  C   UNL     1      -3.473   3.288  22.221  0.00  0.00    +0.004 C 
ENDBRANCH  22  25
ENDBRANCH  20  22
ENDBRANCH  11  18
BRANCH  12  17
ATOM     17  C   UNL     1      -4.968  -1.398  23.883  0.00  0.00    +0.123 C 
BRANCH  17   6
ATOM      1  O   UNL     1      -6.144   0.516  25.672  0.00  0.00    -0.270 OA
ATOM      6  N   UNL     1      -4.429  -0.123  24.246  0.00  0.00    -0.310 N 
ATOM     23  C   UNL     1      -5.068   0.748  25.125  0.00  0.00    +0.244 C 
ATOM     42  H   UNL     1      -3.577   0.159  23.772  0.00  0.00    +0.149 HD
BRANCH  23  27
ATOM     27  C   UNL     1      -4.391   2.046  25.378  0.00  0.00    +0.044 A 
ATOM     32  C   UNL     1      -5.111   3.238  25.292  0.00  0.00    +0.062 A 
ATOM     33  C   UNL     1      -3.035   2.072  25.702  0.00  0.00    +0.062 A 
ATOM     34  C   UNL     1      -2.397   3.289  25.940  0.00  0.00    +0.166 A 
ATOM     35  C   UNL     1      -4.474   4.455  25.531  0.00  0.00    +0.166 A 
ATOM     38  C   UNL     1      -3.117   4.481  25.855  0.00  0.00    +0.204 A 
BRANCH  34   2
ATOM      2  O   UNL     1      -1.072   3.301  26.253  0.00  0.00    -0.491 OA
ATOM     39  C   UNL     1      -0.467   2.046  26.560  0.00  0.00    +0.277 C 
ENDBRANCH  34   2
BRANCH  35   3
ATOM      3  O   UNL     1      -5.187   5.612  25.444  0.00  0.00    -0.491 OA
ATOM     40  C   UNL     1      -6.606   5.494  25.364  0.00  0.00    +0.277 C 
ENDBRANCH  35   3
BRANCH  38   4
ATOM      4  O   UNL     1      -2.494   5.672  26.088  0.00  0.00    -0.488 OA
ATOM     41  C   UNL     1      -1.773   6.249  25.002  0.00  0.00    +0.277 C 
ENDBRANCH  38   4
ENDBRANCH  23  27
ENDBRANCH  17   6
ENDBRANCH  12  17
TORSDOF 11
ENDMDL
