MODEL 1
REMARK VINA RESULT:      -5.1      0.000      0.000
REMARK  Name = 75411571
REMARK  5 active torsions:
REMARK  status: ('A' for Active; 'I' for Inactive)
REMARK    1  A    between atoms: O_6  and  C_10
REMARK    2  A    between atoms: O_6  and  C_16
REMARK    3  A    between atoms: N_7  and  C_13
REMARK    4  A    between atoms: C_13  and  C_15
REMARK    5  A    between atoms: C_24  and  C_26
REMARK                            x       y       z     vdW  Elec       q    Type
REMARK                         _______ _______ _______ _____ _____    ______ ____
ROOT
ATOM      5  O   UNL     1      -1.437  -3.246  25.284  0.00  0.00    -0.375 OA
ATOM      7  N   UNL     1      -3.486  -1.028  24.507  0.00  0.00    -0.292 NA
ATOM      9  C   UNL     1      -2.248  -0.337  24.129  0.00  0.00    +0.131 C 
ATOM     10  C   UNL     1      -0.924  -1.101  24.288  0.00  0.00    +0.215 C 
ATOM     11  C   UNL     1      -3.504  -2.456  24.185  0.00  0.00    +0.113 C 
ATOM     12  C   UNL     1      -0.848  -1.974  25.533  0.00  0.00    +0.205 C 
ATOM     14  C   UNL     1      -2.858  -3.254  25.318  0.00  0.00    +0.175 C 
ENDROOT
BRANCH  10   6
ATOM      6  O   UNL     1       0.135  -0.145  24.355  0.00  0.00    -0.469 OA
BRANCH   6  16
ATOM      8  N   UNL     1      -0.190   1.976  23.477  0.00  0.00    -0.221 NA
ATOM     16  C   UNL     1      -0.230   1.158  24.552  0.00  0.00    +0.215 A 
ATOM     21  C   UNL     1      -0.616   1.563  25.821  0.00  0.00    +0.068 A 
ATOM     23  C   UNL     1      -0.982   2.893  25.996  0.00  0.00    +0.019 A 
ATOM     24  C   UNL     1      -0.952   3.765  24.913  0.00  0.00    +0.073 A 
ATOM     25  C   UNL     1      -0.553   3.261  23.685  0.00  0.00    +0.127 A 
BRANCH  24  26
ATOM      2  F   UNL     1      -2.048   5.690  24.010  0.00  0.00    -0.166 F 
ATOM      3  F   UNL     1      -2.121   5.437  26.163  0.00  0.00    -0.166 F 
ATOM      4  F   UNL     1      -0.260   6.022  25.201  0.00  0.00    -0.166 F 
ATOM     26  C   UNL     1      -1.338   5.192  25.067  0.00  0.00    +0.419 C 
ENDBRANCH  24  26
ENDBRANCH   6  16
ENDBRANCH  10   6
BRANCH   7  13
ATOM     13  C   UNL     1      -4.643  -0.335  23.937  0.00  0.00    +0.119 C 
BRANCH  13  15
ATOM      1  F   UNL     1      -5.050   4.962  25.815  0.00  0.00    -0.205 F 
ATOM     15  C   UNL     1      -4.751   1.080  24.438  0.00  0.00    -0.033 A 
ATOM     17  C   UNL     1      -5.486   1.357  25.592  0.00  0.00    +0.008 A 
ATOM     18  C   UNL     1      -4.118   2.115  23.750  0.00  0.00    +0.008 A 
ATOM     19  C   UNL     1      -5.587   2.668  26.057  0.00  0.00    +0.038 A 
ATOM     20  C   UNL     1      -4.219   3.426  24.215  0.00  0.00    +0.038 A 
ATOM     22  C   UNL     1      -4.953   3.702  25.368  0.00  0.00    +0.123 A 
ENDBRANCH  13  15
ENDBRANCH   7  13
TORSDOF 5
ENDMDL
MODEL 2
REMARK VINA RESULT:      -4.5      2.566      4.331
REMARK  Name = 75411571
REMARK  5 active torsions:
REMARK  status: ('A' for Active; 'I' for Inactive)
REMARK    1  A    between atoms: O_6  and  C_10
REMARK    2  A    between atoms: O_6  and  C_16
REMARK    3  A    between atoms: N_7  and  C_13
REMARK    4  A    between atoms: C_13  and  C_15
REMARK    5  A    between atoms: C_24  and  C_26
REMARK                            x       y       z     vdW  Elec       q    Type
REMARK                         _______ _______ _______ _____ _____    ______ ____
ROOT
ATOM      5  O   UNL     1       2.215   0.845  22.669  0.00  0.00    -0.375 OA
ATOM      7  N   UNL     1       0.309  -0.688  24.604  0.00  0.00    -0.292 NA
ATOM      9  C   UNL     1      -0.370   0.613  24.598  0.00  0.00    +0.131 C 
ATOM     10  C   UNL     1       0.205   1.718  23.697  0.00  0.00    +0.215 C 
ATOM     11  C   UNL     1       0.832  -1.102  23.301  0.00  0.00    +0.113 C 
ATOM     12  C   UNL     1       1.725   1.759  23.645  0.00  0.00    +0.205 C 
ATOM     14  C   UNL     1       2.227  -0.512  23.087  0.00  0.00    +0.175 C 
ENDROOT
BRANCH  10   6
ATOM      6  O   UNL     1      -0.255   2.976  24.191  0.00  0.00    -0.469 OA
BRANCH   6  16
ATOM      8  N   UNL     1      -2.481   2.637  23.642  0.00  0.00    -0.221 NA
ATOM     16  C   UNL     1      -1.572   3.047  24.553  0.00  0.00    +0.215 A 
ATOM     21  C   UNL     1      -1.896   3.526  25.813  0.00  0.00    +0.068 A 
ATOM     23  C   UNL     1      -3.242   3.589  26.158  0.00  0.00    +0.019 A 
ATOM     24  C   UNL     1      -4.208   3.176  25.246  0.00  0.00    +0.073 A 
ATOM     25  C   UNL     1      -3.779   2.712  24.012  0.00  0.00    +0.127 A 
BRANCH  24  26
ATOM      2  F   UNL     1      -6.179   4.493  25.567  0.00  0.00    -0.166 F 
ATOM      3  F   UNL     1      -6.448   2.507  24.737  0.00  0.00    -0.166 F 
ATOM      4  F   UNL     1      -5.924   2.745  26.834  0.00  0.00    -0.166 F 
ATOM     26  C   UNL     1      -5.654   3.230  25.585  0.00  0.00    +0.419 C 
ENDBRANCH  24  26
ENDBRANCH   6  16
ENDBRANCH  10   6
BRANCH   7  13
ATOM     13  C   UNL     1      -0.566  -1.710  25.180  0.00  0.00    +0.119 C 
BRANCH  13  15
ATOM      1  F   UNL     1      -6.009  -0.544  24.301  0.00  0.00    -0.205 F 
ATOM     15  C   UNL     1      -2.020  -1.398  24.945  0.00  0.00    -0.033 A 
ATOM     17  C   UNL     1      -2.717  -2.048  23.926  0.00  0.00    +0.008 A 
ATOM     18  C   UNL     1      -2.671  -0.460  25.746  0.00  0.00    +0.008 A 
ATOM     19  C   UNL     1      -4.064  -1.759  23.708  0.00  0.00    +0.038 A 
ATOM     20  C   UNL     1      -4.018  -0.171  25.529  0.00  0.00    +0.038 A 
ATOM     22  C   UNL     1      -4.714  -0.821  24.510  0.00  0.00    +0.123 A 
ENDBRANCH  13  15
ENDBRANCH   7  13
TORSDOF 5
ENDMDL
MODEL 3
REMARK VINA RESULT:      -4.5      3.998      6.727
REMARK  Name = 75411571
REMARK  5 active torsions:
REMARK  status: ('A' for Active; 'I' for Inactive)
REMARK    1  A    between atoms: O_6  and  C_10
REMARK    2  A    between atoms: O_6  and  C_16
REMARK    3  A    between atoms: N_7  and  C_13
REMARK    4  A    between atoms: C_13  and  C_15
REMARK    5  A    between atoms: C_24  and  C_26
REMARK                            x       y       z     vdW  Elec       q    Type
REMARK                         _______ _______ _______ _____ _____    ______ ____
ROOT
ATOM      5  O   UNL     1      -2.276   5.947  25.036  0.00  0.00    -0.375 OA
ATOM      7  N   UNL     1      -0.621   3.344  24.582  0.00  0.00    -0.292 NA
ATOM      9  C   UNL     1      -1.960   2.814  24.304  0.00  0.00    +0.131 C 
ATOM     10  C   UNL     1      -3.144   3.794  24.351  0.00  0.00    +0.215 C 
ATOM     11  C   UNL     1      -0.385   4.691  24.062  0.00  0.00    +0.113 C 
ATOM     12  C   UNL     1      -3.054   4.833  25.460  0.00  0.00    +0.205 C 
ATOM     14  C   UNL     1      -0.873   5.733  25.070  0.00  0.00    +0.175 C 
ENDROOT
BRANCH  10   6
ATOM      6  O   UNL     1      -4.338   3.037  24.551  0.00  0.00    -0.469 OA
BRANCH   6  16
ATOM      8  N   UNL     1      -4.688   0.953  25.502  0.00  0.00    -0.221 NA
ATOM     16  C   UNL     1      -4.223   1.677  24.461  0.00  0.00    +0.215 A 
ATOM     21  C   UNL     1      -3.647   1.126  23.327  0.00  0.00    +0.068 A 
ATOM     23  C   UNL     1      -3.541  -0.259  23.259  0.00  0.00    +0.019 A 
ATOM     24  C   UNL     1      -4.007  -1.039  24.312  0.00  0.00    +0.073 A 
ATOM     25  C   UNL     1      -4.567  -0.390  25.401  0.00  0.00    +0.127 A 
BRANCH  24  26
ATOM      2  F   UNL     1      -2.878  -2.984  23.498  0.00  0.00    -0.166 F 
ATOM      3  F   UNL     1      -3.716  -3.098  25.496  0.00  0.00    -0.166 F 
ATOM      4  F   UNL     1      -5.032  -3.113  23.764  0.00  0.00    -0.166 F 
ATOM     26  C   UNL     1      -3.908  -2.522  24.270  0.00  0.00    +0.419 C 
ENDBRANCH  24  26
ENDBRANCH   6  16
ENDBRANCH  10   6
BRANCH   7  13
ATOM     13  C   UNL     1       0.399   2.403  24.117  0.00  0.00    +0.119 C 
BRANCH  13  15
ATOM      1  F   UNL     1      -0.905  -2.921  25.425  0.00  0.00    -0.205 F 
ATOM     15  C   UNL     1       0.050   0.981  24.467  0.00  0.00    -0.033 A 
ATOM     17  C   UNL     1       0.396  -0.055  23.599  0.00  0.00    +0.008 A 
ATOM     18  C   UNL     1      -0.618   0.699  25.658  0.00  0.00    +0.008 A 
ATOM     19  C   UNL     1       0.073  -1.373  23.922  0.00  0.00    +0.038 A 
ATOM     20  C   UNL     1      -0.941  -0.619  25.982  0.00  0.00    +0.038 A 
ATOM     22  C   UNL     1      -0.595  -1.654  25.114  0.00  0.00    +0.123 A 
ENDBRANCH  13  15
ENDBRANCH   7  13
TORSDOF 5
ENDMDL
MODEL 4
REMARK VINA RESULT:      -4.5      3.612      5.299
REMARK  Name = 75411571
REMARK  5 active torsions:
REMARK  status: ('A' for Active; 'I' for Inactive)
REMARK    1  A    between atoms: O_6  and  C_10
REMARK    2  A    between atoms: O_6  and  C_16
REMARK    3  A    between atoms: N_7  and  C_13
REMARK    4  A    between atoms: C_13  and  C_15
REMARK    5  A    between atoms: C_24  and  C_26
REMARK                            x       y       z     vdW  Elec       q    Type
REMARK                         _______ _______ _______ _____ _____    ______ ____
ROOT
ATOM      5  O   UNL     1      -5.835   3.727  25.756  0.00  0.00    -0.375 OA
ATOM      7  N   UNL     1      -4.928   0.926  24.730  0.00  0.00    -0.292 NA
ATOM      9  C   UNL     1      -3.610   1.556  24.868  0.00  0.00    +0.131 C 
ATOM     10  C   UNL     1      -3.555   2.988  25.423  0.00  0.00    +0.215 C 
ATOM     11  C   UNL     1      -5.871   1.257  25.800  0.00  0.00    +0.113 C 
ATOM     12  C   UNL     1      -4.680   3.893  24.941  0.00  0.00    +0.205 C 
ATOM     14  C   UNL     1      -6.596   2.562  25.470  0.00  0.00    +0.175 C 
ENDROOT
BRANCH  10   6
ATOM      6  O   UNL     1      -2.315   3.572  25.021  0.00  0.00    -0.469 OA
BRANCH   6  16
ATOM      8  N   UNL     1      -1.694   2.087  23.354  0.00  0.00    -0.221 NA
ATOM     16  C   UNL     1      -1.378   2.721  24.504  0.00  0.00    +0.215 A 
ATOM     21  C   UNL     1      -0.176   2.560  25.176  0.00  0.00    +0.068 A 
ATOM     23  C   UNL     1       0.762   1.689  24.630  0.00  0.00    +0.019 A 
ATOM     24  C   UNL     1       0.472   1.016  23.448  0.00  0.00    +0.073 A 
ATOM     25  C   UNL     1      -0.758   1.248  22.854  0.00  0.00    +0.127 A 
BRANCH  24  26
ATOM      2  F   UNL     1       1.723  -1.016  23.613  0.00  0.00    -0.166 F 
ATOM      3  F   UNL     1       1.056  -0.430  21.633  0.00  0.00    -0.166 F 
ATOM      4  F   UNL     1       2.667   0.663  22.603  0.00  0.00    -0.166 F 
ATOM     26  C   UNL     1       1.453   0.080  22.840  0.00  0.00    +0.419 C 
ENDBRANCH  24  26
ENDBRANCH   6  16
ENDBRANCH  10   6
BRANCH   7  13
ATOM     13  C   UNL     1      -4.779  -0.522  24.576  0.00  0.00    +0.119 C 
BRANCH  13  15
ATOM      1  F   UNL     1       0.476  -2.221  25.695  0.00  0.00    -0.205 F 
ATOM     15  C   UNL     1      -3.375  -0.976  24.876  0.00  0.00    -0.033 A 
ATOM     17  C   UNL     1      -2.714  -1.827  23.990  0.00  0.00    +0.008 A 
ATOM     18  C   UNL     1      -2.735  -0.546  26.038  0.00  0.00    +0.008 A 
ATOM     19  C   UNL     1      -1.413  -2.248  24.267  0.00  0.00    +0.038 A 
ATOM     20  C   UNL     1      -1.435  -0.966  26.315  0.00  0.00    +0.038 A 
ATOM     22  C   UNL     1      -0.774  -1.818  25.429  0.00  0.00    +0.123 A 
ENDBRANCH  13  15
ENDBRANCH   7  13
TORSDOF 5
ENDMDL
MODEL 5
REMARK VINA RESULT:      -3.8      3.786      5.773
REMARK  Name = 75411571
REMARK  5 active torsions:
REMARK  status: ('A' for Active; 'I' for Inactive)
REMARK    1  A    between atoms: O_6  and  C_10
REMARK    2  A    between atoms: O_6  and  C_16
REMARK    3  A    between atoms: N_7  and  C_13
REMARK    4  A    between atoms: C_13  and  C_15
REMARK    5  A    between atoms: C_24  and  C_26
REMARK                            x       y       z     vdW  Elec       q    Type
REMARK                         _______ _______ _______ _____ _____    ______ ____
ROOT
ATOM      5  O   UNL     1      -0.617   5.948  24.997  0.00  0.00    -0.375 OA
ATOM      7  N   UNL     1      -3.019   3.967  24.825  0.00  0.00    -0.292 NA
ATOM      9  C   UNL     1      -1.926   2.992  24.913  0.00  0.00    +0.131 C 
ATOM     10  C   UNL     1      -0.496   3.532  25.078  0.00  0.00    +0.215 C 
ATOM     11  C   UNL     1      -2.850   5.143  25.680  0.00  0.00    +0.113 C 
ATOM     12  C   UNL     1      -0.203   4.792  24.275  0.00  0.00    +0.205 C 
ATOM     14  C   UNL     1      -2.014   6.199  24.956  0.00  0.00    +0.175 C 
ENDROOT
BRANCH  10   6
ATOM      6  O   UNL     1       0.413   2.516  24.652  0.00  0.00    -0.469 OA
BRANCH   6  16
ATOM      8  N   UNL     1       0.268   0.420  23.674  0.00  0.00    -0.221 NA
ATOM     16  C   UNL     1      -0.038   1.227  24.713  0.00  0.00    +0.215 A 
ATOM     21  C   UNL     1      -0.771   0.825  25.819  0.00  0.00    +0.068 A 
ATOM     23  C   UNL     1      -1.220  -0.492  25.858  0.00  0.00    +0.019 A 
ATOM     24  C   UNL     1      -0.925  -1.352  24.806  0.00  0.00    +0.073 A 
ATOM     25  C   UNL     1      -0.184  -0.852  23.747  0.00  0.00    +0.127 A 
BRANCH  24  26
ATOM      2  F   UNL     1      -1.570  -3.297  23.572  0.00  0.00    -0.166 F 
ATOM      3  F   UNL     1      -0.528  -3.623  25.447  0.00  0.00    -0.166 F 
ATOM      4  F   UNL     1      -2.588  -2.923  25.456  0.00  0.00    -0.166 F 
ATOM     26  C   UNL     1      -1.389  -2.764  24.819  0.00  0.00    +0.419 C 
ENDBRANCH  24  26
ENDBRANCH   6  16
ENDBRANCH  10   6
BRANCH   7  13
ATOM     13  C   UNL     1      -4.302   3.307  25.069  0.00  0.00    +0.119 C 
BRANCH  13  15
ATOM      1  F   UNL     1      -4.236  -2.078  23.407  0.00  0.00    -0.205 F 
ATOM     15  C   UNL     1      -4.285   1.868  24.625  0.00  0.00    -0.033 A 
ATOM     17  C   UNL     1      -3.610   1.506  23.459  0.00  0.00    +0.008 A 
ATOM     18  C   UNL     1      -4.943   0.897  25.379  0.00  0.00    +0.008 A 
ATOM     19  C   UNL     1      -3.593   0.174  23.047  0.00  0.00    +0.038 A 
ATOM     20  C   UNL     1      -4.927  -0.436  24.968  0.00  0.00    +0.038 A 
ATOM     22  C   UNL     1      -4.252  -0.797  23.802  0.00  0.00    +0.123 A 
ENDBRANCH  13  15
ENDBRANCH   7  13
TORSDOF 5
ENDMDL
MODEL 6
REMARK VINA RESULT:      -3.2      3.718      5.465
REMARK  Name = 75411571
REMARK  5 active torsions:
REMARK  status: ('A' for Active; 'I' for Inactive)
REMARK    1  A    between atoms: O_6  and  C_10
REMARK    2  A    between atoms: O_6  and  C_16
REMARK    3  A    between atoms: N_7  and  C_13
REMARK    4  A    between atoms: C_13  and  C_15
REMARK    5  A    between atoms: C_24  and  C_26
REMARK                            x       y       z     vdW  Elec       q    Type
REMARK                         _______ _______ _______ _____ _____    ______ ____
ROOT
ATOM      5  O   UNL     1      -5.346   4.737  25.009  0.00  0.00    -0.375 OA
ATOM      7  N   UNL     1      -4.784   1.720  25.563  0.00  0.00    -0.292 NA
ATOM      9  C   UNL     1      -3.429   2.246  25.769  0.00  0.00    +0.131 C 
ATOM     10  C   UNL     1      -3.225   3.765  25.652  0.00  0.00    +0.215 C 
ATOM     11  C   UNL     1      -5.850   2.573  26.091  0.00  0.00    +0.113 C 
ATOM     12  C   UNL     1      -4.036   4.425  24.546  0.00  0.00    +0.205 C 
ATOM     14  C   UNL     1      -6.234   3.629  25.053  0.00  0.00    +0.175 C 
ENDROOT
BRANCH  10   6
ATOM      6  O   UNL     1      -1.842   4.007  25.390  0.00  0.00    -0.469 OA
BRANCH   6  16
ATOM      8  N   UNL     1       0.068   2.699  25.287  0.00  0.00    -0.221 NA
ATOM     16  C   UNL     1      -1.149   2.997  24.782  0.00  0.00    +0.215 A 
ATOM     21  C   UNL     1      -1.723   2.346  23.702  0.00  0.00    +0.068 A 
ATOM     23  C   UNL     1      -0.998   1.322  23.100  0.00  0.00    +0.019 A 
ATOM     24  C   UNL     1       0.260   0.987  23.591  0.00  0.00    +0.073 A 
ATOM     25  C   UNL     1       0.744   1.699  24.677  0.00  0.00    +0.127 A 
BRANCH  24  26
ATOM      2  F   UNL     1       2.383   0.202  22.818  0.00  0.00    -0.166 F 
ATOM      3  F   UNL     1       1.045  -1.272  23.682  0.00  0.00    -0.166 F 
ATOM      4  F   UNL     1       0.619  -0.436  21.720  0.00  0.00    -0.166 F 
ATOM     26  C   UNL     1       1.059  -0.103  22.970  0.00  0.00    +0.419 C 
ENDBRANCH  24  26
ENDBRANCH   6  16
ENDBRANCH  10   6
BRANCH   7  13
ATOM     13  C   UNL     1      -4.879   0.357  26.088  0.00  0.00    +0.119 C 
BRANCH  13  15
ATOM      1  F   UNL     1      -1.243  -3.124  23.554  0.00  0.00    -0.205 F 
ATOM     15  C   UNL     1      -3.907  -0.573  25.411  0.00  0.00    -0.033 A 
ATOM     17  C   UNL     1      -4.296  -1.280  24.274  0.00  0.00    +0.008 A 
ATOM     18  C   UNL     1      -2.618  -0.727  25.921  0.00  0.00    +0.008 A 
ATOM     19  C   UNL     1      -3.397  -2.142  23.647  0.00  0.00    +0.038 A 
ATOM     20  C   UNL     1      -1.719  -1.589  25.295  0.00  0.00    +0.038 A 
ATOM     22  C   UNL     1      -2.108  -2.296  24.157  0.00  0.00    +0.123 A 
ENDBRANCH  13  15
ENDBRANCH   7  13
TORSDOF 5
ENDMDL
MODEL 7
REMARK VINA RESULT:      -3.1      1.864      4.530
REMARK  Name = 75411571
REMARK  5 active torsions:
REMARK  status: ('A' for Active; 'I' for Inactive)
REMARK    1  A    between atoms: O_6  and  C_10
REMARK    2  A    between atoms: O_6  and  C_16
REMARK    3  A    between atoms: N_7  and  C_13
REMARK    4  A    between atoms: C_13  and  C_15
REMARK    5  A    between atoms: C_24  and  C_26
REMARK                            x       y       z     vdW  Elec       q    Type
REMARK                         _______ _______ _______ _____ _____    ______ ____
ROOT
ATOM      5  O   UNL     1       1.525  -0.646  22.228  0.00  0.00    -0.375 OA
ATOM      7  N   UNL     1       0.751   1.599  24.249  0.00  0.00    -0.292 NA
ATOM      9  C   UNL     1      -0.214   0.576  24.665  0.00  0.00    +0.131 C 
ATOM     10  C   UNL     1      -0.166  -0.787  23.954  0.00  0.00    +0.215 C 
ATOM     11  C   UNL     1       2.076   1.077  23.910  0.00  0.00    +0.113 C 
ATOM     12  C   UNL     1       0.121  -0.707  22.461  0.00  0.00    +0.205 C 
ATOM     14  C   UNL     1       2.104   0.632  22.447  0.00  0.00    +0.175 C 
ENDROOT
BRANCH  10   6
ATOM      6  O   UNL     1      -1.433  -1.422  24.127  0.00  0.00    -0.469 OA
BRANCH   6  16
ATOM      8  N   UNL     1      -2.660   0.471  23.594  0.00  0.00    -0.221 NA
ATOM     16  C   UNL     1      -2.496  -0.604  24.396  0.00  0.00    +0.215 A 
ATOM     21  C   UNL     1      -3.332  -0.917  25.456  0.00  0.00    +0.068 A 
ATOM     23  C   UNL     1      -4.405  -0.070  25.710  0.00  0.00    +0.019 A 
ATOM     24  C   UNL     1      -4.606   1.048  24.907  0.00  0.00    +0.073 A 
ATOM     25  C   UNL     1      -3.713   1.272  23.871  0.00  0.00    +0.127 A 
BRANCH  24  26
ATOM      2  F   UNL     1      -5.551   3.231  24.654  0.00  0.00    -0.166 F 
ATOM      3  F   UNL     1      -6.925   1.553  24.602  0.00  0.00    -0.166 F 
ATOM      4  F   UNL     1      -6.008   2.147  26.482  0.00  0.00    -0.166 F 
ATOM     26  C   UNL     1      -5.745   1.972  25.153  0.00  0.00    +0.419 C 
ENDBRANCH  24  26
ENDBRANCH   6  16
ENDBRANCH  10   6
BRANCH   7  13
ATOM     13  C   UNL     1       0.834   2.653  25.260  0.00  0.00    +0.119 C 
BRANCH  13  15
ATOM      1  F   UNL     1      -4.146   5.161  26.084  0.00  0.00    -0.205 F 
ATOM     15  C   UNL     1      -0.497   3.323  25.481  0.00  0.00    -0.033 A 
ATOM     17  C   UNL     1      -0.804   4.503  24.803  0.00  0.00    +0.008 A 
ATOM     18  C   UNL     1      -1.422   2.764  26.362  0.00  0.00    +0.008 A 
ATOM     19  C   UNL     1      -2.036   5.124  25.007  0.00  0.00    +0.038 A 
ATOM     20  C   UNL     1      -2.654   3.385  26.566  0.00  0.00    +0.038 A 
ATOM     22  C   UNL     1      -2.961   4.565  25.889  0.00  0.00    +0.123 A 
ENDBRANCH  13  15
ENDBRANCH   7  13
TORSDOF 5
ENDMDL
MODEL 8
REMARK VINA RESULT:      -3.0      4.344      5.915
REMARK  Name = 75411571
REMARK  5 active torsions:
REMARK  status: ('A' for Active; 'I' for Inactive)
REMARK    1  A    between atoms: O_6  and  C_10
REMARK    2  A    between atoms: O_6  and  C_16
REMARK    3  A    between atoms: N_7  and  C_13
REMARK    4  A    between atoms: C_13  and  C_15
REMARK    5  A    between atoms: C_24  and  C_26
REMARK                            x       y       z     vdW  Elec       q    Type
REMARK                         _______ _______ _______ _____ _____    ______ ____
ROOT
ATOM      5  O   UNL     1      -0.432   4.084  24.828  0.00  0.00    -0.375 OA
ATOM      7  N   UNL     1      -2.958   2.255  24.834  0.00  0.00    -0.292 NA
ATOM      9  C   UNL     1      -2.018   1.345  24.168  0.00  0.00    +0.131 C 
ATOM     10  C   UNL     1      -0.567   1.818  23.989  0.00  0.00    +0.215 C 
ATOM     11  C   UNL     1      -2.374   3.028  25.932  0.00  0.00    +0.113 C 
ATOM     12  C   UNL     1      -0.425   3.294  23.644  0.00  0.00    +0.205 C 
ATOM     14  C   UNL     1      -1.721   4.298  25.385  0.00  0.00    +0.175 C 
ENDROOT
BRANCH  10   6
ATOM      6  O   UNL     1       0.020   1.058  22.932  0.00  0.00    -0.469 OA
BRANCH   6  16
ATOM      8  N   UNL     1       2.230   1.733  23.103  0.00  0.00    -0.221 NA
ATOM     16  C   UNL     1       1.337   0.720  23.079  0.00  0.00    +0.215 A 
ATOM     21  C   UNL     1       1.676  -0.619  23.195  0.00  0.00    +0.068 A 
ATOM     23  C   UNL     1       3.022  -0.937  23.343  0.00  0.00    +0.019 A 
ATOM     24  C   UNL     1       3.972   0.078  23.371  0.00  0.00    +0.073 A 
ATOM     25  C   UNL     1       3.529   1.385  23.249  0.00  0.00    +0.127 A 
BRANCH  24  26
ATOM      2  F   UNL     1       6.097   0.683  24.289  0.00  0.00    -0.166 F 
ATOM      3  F   UNL     1       5.663  -1.437  24.127  0.00  0.00    -0.166 F 
ATOM      4  F   UNL     1       6.084  -0.275  22.337  0.00  0.00    -0.166 F 
ATOM     26  C   UNL     1       5.418  -0.230  23.530  0.00  0.00    +0.419 C 
ENDBRANCH  24  26
ENDBRANCH   6  16
ENDBRANCH  10   6
BRANCH   7  13
ATOM     13  C   UNL     1      -4.146   1.521  25.269  0.00  0.00    +0.119 C 
BRANCH  13  15
ATOM      1  F   UNL     1      -3.599  -4.028  24.448  0.00  0.00    -0.205 F 
ATOM     15  C   UNL     1      -4.000   0.038  25.049  0.00  0.00    -0.033 A 
ATOM     17  C   UNL     1      -3.371  -0.751  26.012  0.00  0.00    +0.008 A 
ATOM     18  C   UNL     1      -4.494  -0.547  23.883  0.00  0.00    +0.008 A 
ATOM     19  C   UNL     1      -3.234  -2.124  25.809  0.00  0.00    +0.038 A 
ATOM     20  C   UNL     1      -4.358  -1.920  23.680  0.00  0.00    +0.038 A 
ATOM     22  C   UNL     1      -3.729  -2.708  24.643  0.00  0.00    +0.123 A 
ENDBRANCH  13  15
ENDBRANCH   7  13
TORSDOF 5
ENDMDL
MODEL 9
REMARK VINA RESULT:      -1.8      4.302      5.580
REMARK  Name = 75411571
REMARK  5 active torsions:
REMARK  status: ('A' for Active; 'I' for Inactive)
REMARK    1  A    between atoms: O_6  and  C_10
REMARK    2  A    between atoms: O_6  and  C_16
REMARK    3  A    between atoms: N_7  and  C_13
REMARK    4  A    between atoms: C_13  and  C_15
REMARK    5  A    between atoms: C_24  and  C_26
REMARK                            x       y       z     vdW  Elec       q    Type
REMARK                         _______ _______ _______ _____ _____    ______ ____
ROOT
ATOM      5  O   UNL     1       0.506   2.321  25.662  0.00  0.00    -0.375 OA
ATOM      7  N   UNL     1      -1.949   2.592  23.758  0.00  0.00    -0.292 NA
ATOM      9  C   UNL     1      -1.302   1.433  23.133  0.00  0.00    +0.131 C 
ATOM     10  C   UNL     1      -0.029   0.880  23.793  0.00  0.00    +0.215 C 
ATOM     11  C   UNL     1      -1.910   2.589  25.221  0.00  0.00    +0.113 C 
ATOM     12  C   UNL     1       0.905   1.946  24.348  0.00  0.00    +0.205 C 
ATOM     14  C   UNL     1      -0.601   3.210  25.710  0.00  0.00    +0.175 C 
ENDROOT
BRANCH  10   6
ATOM      6  O   UNL     1       0.690   0.131  22.812  0.00  0.00    -0.469 OA
BRANCH   6  16
ATOM      8  N   UNL     1       2.541  -1.083  23.498  0.00  0.00    -0.221 NA
ATOM     16  C   UNL     1       2.046   0.058  22.970  0.00  0.00    +0.215 A 
ATOM     21  C   UNL     1       2.825   1.139  22.587  0.00  0.00    +0.068 A 
ATOM     23  C   UNL     1       4.202   1.041  22.758  0.00  0.00    +0.019 A 
ATOM     24  C   UNL     1       4.749  -0.117  23.300  0.00  0.00    +0.073 A 
ATOM     25  C   UNL     1       3.884  -1.142  23.650  0.00  0.00    +0.127 A 
BRANCH  24  26
ATOM      2  F   UNL     1       6.888  -0.656  22.373  0.00  0.00    -0.166 F 
ATOM      3  F   UNL     1       6.833   0.909  23.875  0.00  0.00    -0.166 F 
ATOM      4  F   UNL     1       6.541  -1.166  24.458  0.00  0.00    -0.166 F 
ATOM     26  C   UNL     1       6.217  -0.253  23.495  0.00  0.00    +0.419 C 
ENDBRANCH  24  26
ENDBRANCH   6  16
ENDBRANCH  10   6
BRANCH   7  13
ATOM     13  C   UNL     1      -3.316   2.735  23.258  0.00  0.00    +0.119 C 
BRANCH  13  15
ATOM      1  F   UNL     1      -7.134   1.594  27.244  0.00  0.00    -0.205 F 
ATOM     15  C   UNL     1      -4.337   2.430  24.323  0.00  0.00    -0.033 A 
ATOM     17  C   UNL     1      -4.924   3.469  25.044  0.00  0.00    +0.008 A 
ATOM     18  C   UNL     1      -4.694   1.108  24.589  0.00  0.00    +0.008 A 
ATOM     19  C   UNL     1      -5.868   3.188  26.031  0.00  0.00    +0.038 A 
ATOM     20  C   UNL     1      -5.638   0.826  25.575  0.00  0.00    +0.038 A 
ATOM     22  C   UNL     1      -6.225   1.865  26.296  0.00  0.00    +0.123 A 
ENDBRANCH  13  15
ENDBRANCH   7  13
TORSDOF 5
ENDMDL
MODEL 10
REMARK VINA RESULT:      -1.7      1.913      4.676
REMARK  Name = 75411571
REMARK  5 active torsions:
REMARK  status: ('A' for Active; 'I' for Inactive)
REMARK    1  A    between atoms: O_6  and  C_10
REMARK    2  A    between atoms: O_6  and  C_16
REMARK    3  A    between atoms: N_7  and  C_13
REMARK    4  A    between atoms: C_13  and  C_15
REMARK    5  A    between atoms: C_24  and  C_26
REMARK                            x       y       z     vdW  Elec       q    Type
REMARK                         _______ _______ _______ _____ _____    ______ ____
ROOT
ATOM      5  O   UNL     1       1.768  -0.206  22.256  0.00  0.00    -0.375 OA
ATOM      7  N   UNL     1       0.686   1.904  24.281  0.00  0.00    -0.292 NA
ATOM      9  C   UNL     1      -0.342   0.871  24.457  0.00  0.00    +0.131 C 
ATOM     10  C   UNL     1      -0.185  -0.438  23.667  0.00  0.00    +0.215 C 
ATOM     11  C   UNL     1       2.045   1.383  24.127  0.00  0.00    +0.113 C 
ATOM     12  C   UNL     1       0.345  -0.258  22.251  0.00  0.00    +0.205 C 
ATOM     14  C   UNL     1       2.311   1.043  22.660  0.00  0.00    +0.175 C 
ENDROOT
BRANCH  10   6
ATOM      6  O   UNL     1      -1.467  -1.061  23.582  0.00  0.00    -0.469 OA
BRANCH   6  16
ATOM      8  N   UNL     1      -3.157  -0.675  25.121  0.00  0.00    -0.221 NA
ATOM     16  C   UNL     1      -2.540  -0.309  23.976  0.00  0.00    +0.215 A 
ATOM     21  C   UNL     1      -2.927   0.768  23.195  0.00  0.00    +0.068 A 
ATOM     23  C   UNL     1      -4.021   1.517  23.616  0.00  0.00    +0.019 A 
ATOM     24  C   UNL     1      -4.683   1.171  24.789  0.00  0.00    +0.073 A 
ATOM     25  C   UNL     1      -4.216   0.076  25.499  0.00  0.00    +0.127 A 
BRANCH  24  26
ATOM      2  F   UNL     1      -6.007   1.942  26.625  0.00  0.00    -0.166 F 
ATOM      3  F   UNL     1      -5.811   3.276  24.926  0.00  0.00    -0.166 F 
ATOM      4  F   UNL     1      -7.039   1.489  24.767  0.00  0.00    -0.166 F 
ATOM     26  C   UNL     1      -5.855   1.952  25.267  0.00  0.00    +0.419 C 
ENDBRANCH  24  26
ENDBRANCH   6  16
ENDBRANCH  10   6
BRANCH   7  13
ATOM     13  C   UNL     1       0.606   2.882  25.367  0.00  0.00    +0.119 C 
BRANCH  13  15
ATOM      1  F   UNL     1      -4.603   4.951  25.947  0.00  0.00    -0.205 F 
ATOM     15  C   UNL     1      -0.786   3.434  25.522  0.00  0.00    -0.033 A 
ATOM     17  C   UNL     1      -1.284   4.341  24.586  0.00  0.00    +0.008 A 
ATOM     18  C   UNL     1      -1.577   3.040  26.601  0.00  0.00    +0.008 A 
ATOM     19  C   UNL     1      -2.573   4.854  24.730  0.00  0.00    +0.038 A 
ATOM     20  C   UNL     1      -2.866   3.552  26.745  0.00  0.00    +0.038 A 
ATOM     22  C   UNL     1      -3.364   4.459  25.809  0.00  0.00    +0.123 A 
ENDBRANCH  13  15
ENDBRANCH   7  13
TORSDOF 5
ENDMDL
