MODEL 1
REMARK VINA RESULT:      -2.6      0.000      0.000
REMARK  Name = 7674727
REMARK  5 active torsions:
REMARK  status: ('A' for Active; 'I' for Inactive)
REMARK    1  A    between atoms: O_6  and  C_30
REMARK    2  A    between atoms: O_6  and  C_35
REMARK    3  A    between atoms: N_9  and  C_23
REMARK    4  A    between atoms: C_20  and  C_22
REMARK    5  A    between atoms: C_33  and  C_34
REMARK                            x       y       z     vdW  Elec       q    Type
REMARK                         _______ _______ _______ _____ _____    ______ ____
ROOT
ATOM      4  O   UNL     1      14.113  -6.539  27.576  0.00  0.00    -0.267 OA
ATOM      5  O   UNL     1      17.405  -7.614  32.220  0.00  0.00    -0.252 OA
ATOM      7  N   UNL     1      15.431  -8.771  31.874  0.00  0.00    -0.284 N 
ATOM      8  N   UNL     1      14.800  -8.424  28.763  0.00  0.00    -0.311 N 
ATOM      9  N   UNL     1      15.397  -6.579  32.746  0.00  0.00    -0.269 N 
ATOM     10  C   UNL     1      13.384  -9.479  30.614  0.00  0.00    +0.027 C 
ATOM     11  C   UNL     1      15.565 -10.453  30.044  0.00  0.00    +0.054 C 
ATOM     12  C   UNL     1      14.084 -10.774  30.229  0.00  0.00    +0.018 C 
ATOM     13  C   UNL     1      13.965  -8.900  31.920  0.00  0.00    +0.114 C 
ATOM     14  C   UNL     1      13.503  -8.490  29.448  0.00  0.00    +0.130 C 
ATOM     15  C   UNL     1      16.144  -9.956  31.381  0.00  0.00    +0.119 C 
ATOM     16  C   UNL     1      15.775  -9.403  28.970  0.00  0.00    +0.027 A 
ATOM     17  C   UNL     1      16.904  -9.393  28.244  0.00  0.00    +0.022 A 
ATOM     18  C   UNL     1      14.964  -7.396  27.814  0.00  0.00    +0.259 A 
ATOM     19  C   UNL     1      16.173  -7.637  32.274  0.00  0.00    +0.306 C 
ATOM     20  C   UNL     1      16.259  -7.387  27.045  0.00  0.00    +0.047 A 
ATOM     21  C   UNL     1      17.148  -8.365  27.273  0.00  0.00    +0.015 A 
ATOM     36  H   UNL     1      14.501  -6.793  33.171  0.00  0.00    +0.156 HD
ENDROOT
BRANCH   9  23
ATOM     23  C   UNL     1      15.736  -5.203  32.751  0.00  0.00    +0.035 A 
ATOM     26  C   UNL     1      17.071  -4.820  32.829  0.00  0.00    +0.023 A 
ATOM     27  C   UNL     1      14.730  -4.243  32.678  0.00  0.00    +0.023 A 
ATOM     31  C   UNL     1      17.404  -3.465  32.834  0.00  0.00    +0.005 A 
ATOM     32  C   UNL     1      15.063  -2.889  32.683  0.00  0.00    +0.005 A 
ATOM     33  C   UNL     1      16.401  -2.500  32.761  0.00  0.00    -0.050 A 
ATOM     34  C   UNL     1      16.756  -1.051  32.767  0.00  0.00    +0.044 C 
ENDBRANCH   9  23
BRANCH  20  22
ATOM     22  C   UNL     1      16.558  -6.326  26.068  0.00  0.00    -0.012 A 
ATOM     24  C   UNL     1      16.723  -6.645  24.720  0.00  0.00    +0.012 A 
ATOM     25  C   UNL     1      16.678  -5.001  26.490  0.00  0.00    +0.012 A 
ATOM     28  C   UNL     1      17.007  -5.641  23.795  0.00  0.00    +0.046 A 
ATOM     29  C   UNL     1      16.962  -3.997  25.565  0.00  0.00    +0.046 A 
ATOM     30  C   UNL     1      17.126  -4.316  24.218  0.00  0.00    +0.130 A 
BRANCH  30   6
ATOM      6  O   UNL     1      17.405  -3.337  23.315  0.00  0.00    -0.406 OA
BRANCH   6  35
ATOM      1  F   UNL     1      16.788  -1.583  22.034  0.00  0.00    -0.133 F 
ATOM      2  F   UNL     1      15.213  -2.810  22.924  0.00  0.00    -0.133 F 
ATOM      3  F   UNL     1      16.427  -1.461  24.186  0.00  0.00    -0.133 F 
ATOM     35  C   UNL     1      16.447  -2.301  23.129  0.00  0.00    +0.575 C 
ENDBRANCH   6  35
ENDBRANCH  30   6
ENDBRANCH  20  22
TORSDOF 4
ENDMDL
