MODEL 1
REMARK VINA RESULT:      16.2      0.000      0.000
REMARK  Name = 71694354
REMARK  7 active torsions:
REMARK  status: ('A' for Active; 'I' for Inactive)
REMARK    1  A    between atoms: O_4  and  C_34
REMARK    2  A    between atoms: O_4  and  C_35
REMARK    3  A    between atoms: N_6  and  C_26
REMARK    4  A    between atoms: N_8  and  C_27
REMARK    5  A    between atoms: C_10  and  C_15
REMARK    6  A    between atoms: C_15  and  C_18
REMARK    7  A    between atoms: C_26  and  C_34
REMARK                            x       y       z     vdW  Elec       q    Type
REMARK                         _______ _______ _______ _____ _____    ______ ____
ROOT
ATOM      1  O   UNL     1      -0.337   5.792  25.555  0.00  0.00    -0.274 OA
ATOM      3  O   UNL     1      -0.878   0.977  23.391  0.00  0.00    -0.488 OA
ATOM      5  N   UNL     1      -2.304   4.856  24.769  0.00  0.00    -0.300 N 
ATOM      7  N   UNL     1       0.095   3.695  23.036  0.00  0.00    -0.304 NA
ATOM     10  C   UNL     1      -3.955   2.671  25.765  0.00  0.00    +0.008 C 
ATOM     11  C   UNL     1      -3.198   2.621  24.404  0.00  0.00    +0.032 C 
ATOM     12  C   UNL     1      -3.240   3.667  26.708  0.00  0.00    +0.023 C 
ATOM     13  C   UNL     1      -3.049   4.035  23.810  0.00  0.00    +0.115 C 
ATOM     14  C   UNL     1      -2.991   5.028  26.051  0.00  0.00    +0.108 C 
ATOM     16  C   UNL     1      -3.790   1.666  23.404  0.00  0.00    -0.023 C 
ATOM     17  C   UNL     1      -0.976   5.262  24.637  0.00  0.00    +0.229 C 
ATOM     19  C   UNL     1      -3.218   0.602  22.814  0.00  0.00    +0.010 C 
ATOM     20  C   UNL     1      -0.288   5.080  23.297  0.00  0.00    +0.178 C 
ATOM     21  C   UNL     1      -1.824   0.036  22.896  0.00  0.00    +0.256 C 
ATOM     22  C   UNL     1       0.898   3.067  24.082  0.00  0.00    +0.120 C 
ATOM     23  C   UNL     1       1.363   1.677  23.680  0.00  0.00    +0.010 A 
ATOM     27  C   UNL     1       3.211   0.138  23.319  0.00  0.00    +0.030 A 
ATOM     28  C   UNL     1       0.453   0.645  23.352  0.00  0.00    +0.125 A 
ATOM     31  C   UNL     1       2.740   1.405  23.659  0.00  0.00    +0.031 A 
ATOM     32  C   UNL     1       2.311  -0.874  23.000  0.00  0.00    +0.027 A 
ATOM     33  C   UNL     1       0.938  -0.624  23.017  0.00  0.00    +0.048 A 
ATOM     37  H   UNL     1       0.604   3.662  22.152  0.00  0.00    +0.123 HD
ENDROOT
BRANCH  27   8
ATOM      8  N   UNL     1       4.587  -0.117  23.301  0.00  0.00    -0.327 N 
ATOM      9  N   UNL     1       7.426  -0.394  23.214  0.00  0.00    -0.313 NA
ATOM     24  C   UNL     1       5.382   0.099  24.514  0.00  0.00    +0.120 C 
ATOM     25  C   UNL     1       5.303   0.050  22.030  0.00  0.00    +0.120 C 
ATOM     29  C   UNL     1       6.692  -0.688  24.443  0.00  0.00    +0.100 C 
ATOM     30  C   UNL     1       6.614  -0.736  22.048  0.00  0.00    +0.100 C 
ATOM     38  H   UNL     1       8.286  -0.941  23.197  0.00  0.00    +0.122 HD
ENDBRANCH  27   8
BRANCH  10  15
ATOM     15  C   UNL     1      -5.447   3.012  25.653  0.00  0.00    +0.100 C 
BRANCH  15  18
ATOM      2  O   UNL     1      -7.381   2.010  24.600  0.00  0.00    -0.276 OA
ATOM      6  N   UNL     1      -5.526   0.694  25.077  0.00  0.00    -0.313 N 
ATOM     18  C   UNL     1      -6.245   1.879  25.049  0.00  0.00    +0.213 C 
ATOM     36  H   UNL     1      -4.593   0.688  25.481  0.00  0.00    +0.149 HD
BRANCH   6  26
ATOM     26  C   UNL     1      -6.043  -0.555  24.566  0.00  0.00    +0.132 C 
BRANCH  26  34
ATOM     34  C   UNL     1      -4.926  -1.510  24.190  0.00  0.00    +0.178 C 
BRANCH  34   4
ATOM      4  O   UNL     1      -3.997  -1.598  25.264  0.00  0.00    -0.381 OA
ATOM     35  C   UNL     1      -2.960  -2.528  24.982  0.00  0.00    +0.194 C 
ENDBRANCH  34   4
ENDBRANCH  26  34
ENDBRANCH   6  26
ENDBRANCH  15  18
ENDBRANCH  10  15
TORSDOF 6
ENDMDL
MODEL 2
REMARK VINA RESULT:      18.7      1.914      4.591
REMARK  Name = 71694354
REMARK  7 active torsions:
REMARK  status: ('A' for Active; 'I' for Inactive)
REMARK    1  A    between atoms: O_4  and  C_34
REMARK    2  A    between atoms: O_4  and  C_35
REMARK    3  A    between atoms: N_6  and  C_26
REMARK    4  A    between atoms: N_8  and  C_27
REMARK    5  A    between atoms: C_10  and  C_15
REMARK    6  A    between atoms: C_15  and  C_18
REMARK    7  A    between atoms: C_26  and  C_34
REMARK                            x       y       z     vdW  Elec       q    Type
REMARK                         _______ _______ _______ _____ _____    ______ ____
ROOT
ATOM      1  O   UNL     1      -2.565  -3.706  23.932  0.00  0.00    -0.274 OA
ATOM      3  O   UNL     1      -0.678   1.175  24.804  0.00  0.00    -0.488 OA
ATOM      5  N   UNL     1      -3.696  -1.963  24.952  0.00  0.00    -0.300 N 
ATOM      7  N   UNL     1      -0.599  -1.626  25.585  0.00  0.00    -0.304 NA
ATOM     10  C   UNL     1      -4.772   0.536  23.909  0.00  0.00    +0.008 C 
ATOM     11  C   UNL     1      -3.610   0.470  24.943  0.00  0.00    +0.032 C 
ATOM     12  C   UNL     1      -4.811  -0.784  23.104  0.00  0.00    +0.023 C 
ATOM     13  C   UNL     1      -3.735  -0.786  25.826  0.00  0.00    +0.115 C 
ATOM     14  C   UNL     1      -4.810  -2.024  24.002  0.00  0.00    +0.108 C 
ATOM     16  C   UNL     1      -3.456   1.713  25.778  0.00  0.00    -0.023 C 
ATOM     17  C   UNL     1      -2.622  -2.842  24.815  0.00  0.00    +0.229 C 
ATOM     19  C   UNL     1      -2.395   2.531  25.884  0.00  0.00    +0.010 C 
ATOM     20  C   UNL     1      -1.485  -2.764  25.816  0.00  0.00    +0.178 C 
ATOM     21  C   UNL     1      -1.018   2.475  25.273  0.00  0.00    +0.256 C 
ATOM     22  C   UNL     1      -0.062  -1.524  24.230  0.00  0.00    +0.120 C 
ATOM     23  C   UNL     1       0.947  -0.395  24.105  0.00  0.00    +0.010 A 
ATOM     27  C   UNL     1       3.200   0.312  23.521  0.00  0.00    +0.030 A 
ATOM     28  C   UNL     1       0.610   0.949  24.386  0.00  0.00    +0.125 A 
ATOM     31  C   UNL     1       2.248  -0.695  23.673  0.00  0.00    +0.031 A 
ATOM     32  C   UNL     1       2.861   1.633  23.796  0.00  0.00    +0.027 A 
ATOM     33  C   UNL     1       1.572   1.953  24.225  0.00  0.00    +0.048 A 
ATOM     37  H   UNL     1       0.171  -1.675  26.252  0.00  0.00    +0.123 HD
ENDROOT
BRANCH  27   8
ATOM      8  N   UNL     1       4.493  -0.004  23.091  0.00  0.00    -0.327 N 
ATOM      9  N   UNL     1       7.154  -0.409  22.141  0.00  0.00    -0.313 NA
ATOM     24  C   UNL     1       5.634   0.227  23.983  0.00  0.00    +0.120 C 
ATOM     25  C   UNL     1       4.782   0.079  21.652  0.00  0.00    +0.120 C 
ATOM     29  C   UNL     1       6.832  -0.619  23.551  0.00  0.00    +0.100 C 
ATOM     30  C   UNL     1       6.009  -0.763  21.305  0.00  0.00    +0.100 C 
ATOM     38  H   UNL     1       7.950  -0.994  21.887  0.00  0.00    +0.122 HD
ENDBRANCH  27   8
BRANCH  10  15
ATOM     15  C   UNL     1      -6.149   0.839  24.513  0.00  0.00    +0.100 C 
BRANCH  15  18
ATOM      2  O   UNL     1      -6.388   1.987  26.630  0.00  0.00    -0.276 OA
ATOM      6  N   UNL     1      -5.740   3.183  24.745  0.00  0.00    -0.313 N 
ATOM     18  C   UNL     1      -6.115   2.039  25.433  0.00  0.00    +0.213 C 
ATOM     36  H   UNL     1      -5.544   3.122  23.750  0.00  0.00    +0.149 HD
BRANCH   6  26
ATOM     26  C   UNL     1      -5.625   4.479  25.373  0.00  0.00    +0.132 C 
BRANCH  26  34
ATOM     34  C   UNL     1      -4.200   4.764  25.808  0.00  0.00    +0.178 C 
BRANCH  34   4
ATOM      4  O   UNL     1      -3.393   4.997  24.660  0.00  0.00    -0.381 OA
ATOM     35  C   UNL     1      -2.173   5.641  25.002  0.00  0.00    +0.194 C 
ENDBRANCH  34   4
ENDBRANCH  26  34
ENDBRANCH   6  26
ENDBRANCH  15  18
ENDBRANCH  10  15
TORSDOF 6
ENDMDL
MODEL 3
REMARK VINA RESULT:      19.8      1.952      2.223
REMARK  Name = 71694354
REMARK  7 active torsions:
REMARK  status: ('A' for Active; 'I' for Inactive)
REMARK    1  A    between atoms: O_4  and  C_34
REMARK    2  A    between atoms: O_4  and  C_35
REMARK    3  A    between atoms: N_6  and  C_26
REMARK    4  A    between atoms: N_8  and  C_27
REMARK    5  A    between atoms: C_10  and  C_15
REMARK    6  A    between atoms: C_15  and  C_18
REMARK    7  A    between atoms: C_26  and  C_34
REMARK                            x       y       z     vdW  Elec       q    Type
REMARK                         _______ _______ _______ _____ _____    ______ ____
ROOT
ATOM      1  O   UNL     1      -0.508   5.957  25.325  0.00  0.00    -0.274 OA
ATOM      3  O   UNL     1      -1.328   0.963  23.729  0.00  0.00    -0.488 OA
ATOM      5  N   UNL     1      -2.543   5.023  24.738  0.00  0.00    -0.300 N 
ATOM      7  N   UNL     1      -0.277   3.586  23.034  0.00  0.00    -0.304 NA
ATOM     10  C   UNL     1      -4.220   3.028  26.041  0.00  0.00    +0.008 C 
ATOM     11  C   UNL     1      -3.534   2.801  24.661  0.00  0.00    +0.032 C 
ATOM     12  C   UNL     1      -3.424   4.089  26.836  0.00  0.00    +0.023 C 
ATOM     13  C   UNL     1      -3.365   4.135  23.909  0.00  0.00    +0.115 C 
ATOM     14  C   UNL     1      -3.159   5.360  26.023  0.00  0.00    +0.108 C 
ATOM     16  C   UNL     1      -4.210   1.768  23.800  0.00  0.00    -0.023 C 
ATOM     17  C   UNL     1      -1.210   5.358  24.501  0.00  0.00    +0.229 C 
ATOM     19  C   UNL     1      -3.706   0.624  23.304  0.00  0.00    +0.010 C 
ATOM     20  C   UNL     1      -0.597   5.005  23.159  0.00  0.00    +0.178 C 
ATOM     21  C   UNL     1      -2.330   0.014  23.384  0.00  0.00    +0.256 C 
ATOM     22  C   UNL     1       0.554   3.041  24.105  0.00  0.00    +0.120 C 
ATOM     23  C   UNL     1       0.948   1.598  23.836  0.00  0.00    +0.010 A 
ATOM     27  C   UNL     1       2.719  -0.046  23.562  0.00  0.00    +0.030 A 
ATOM     28  C   UNL     1      -0.013   0.575  23.665  0.00  0.00    +0.125 A 
ATOM     31  C   UNL     1       2.312   1.269  23.782  0.00  0.00    +0.031 A 
ATOM     32  C   UNL     1       1.769  -1.048  23.397  0.00  0.00    +0.027 A 
ATOM     33  C   UNL     1       0.409  -0.742  23.450  0.00  0.00    +0.048 A 
ATOM     37  H   UNL     1       0.185   3.437  22.137  0.00  0.00    +0.123 HD
ENDROOT
BRANCH  27   8
ATOM      8  N   UNL     1       4.083  -0.357  23.509  0.00  0.00    -0.327 N 
ATOM      9  N   UNL     1       6.813  -1.128  23.195  0.00  0.00    -0.313 NA
ATOM     24  C   UNL     1       4.981   0.448  22.676  0.00  0.00    +0.120 C 
ATOM     25  C   UNL     1       4.479  -1.759  23.704  0.00  0.00    +0.120 C 
ATOM     29  C   UNL     1       6.430   0.282  23.134  0.00  0.00    +0.100 C 
ATOM     30  C   UNL     1       5.945  -1.845  24.127  0.00  0.00    +0.100 C 
ATOM     38  H   UNL     1       7.779  -1.201  23.512  0.00  0.00    +0.122 HD
ENDBRANCH  27   8
BRANCH  10  15
ATOM     15  C   UNL     1      -5.702   3.416  25.962  0.00  0.00    +0.100 C 
BRANCH  15  18
ATOM      2  O   UNL     1      -7.159   1.645  25.189  0.00  0.00    -0.276 OA
ATOM      6  N   UNL     1      -6.740   1.873  27.464  0.00  0.00    -0.313 N 
ATOM     18  C   UNL     1      -6.612   2.219  26.127  0.00  0.00    +0.213 C 
ATOM     36  H   UNL     1      -6.252   2.420  28.167  0.00  0.00    +0.149 HD
BRANCH   6  26
ATOM     26  C   UNL     1      -7.552   0.767  27.917  0.00  0.00    +0.132 C 
BRANCH  26  34
ATOM     34  C   UNL     1      -6.758  -0.188  28.789  0.00  0.00    +0.178 C 
BRANCH  34   4
ATOM      4  O   UNL     1      -7.600  -0.708  29.810  0.00  0.00    -0.381 OA
ATOM     35  C   UNL     1      -7.202  -0.255  31.097  0.00  0.00    +0.194 C 
ENDBRANCH  34   4
ENDBRANCH  26  34
ENDBRANCH   6  26
ENDBRANCH  15  18
ENDBRANCH  10  15
TORSDOF 6
ENDMDL
