MODEL 1
REMARK VINA RESULT:      -1.9      0.000      0.000
REMARK  Name = 26763399
REMARK  8 active torsions:
REMARK  status: ('A' for Active; 'I' for Inactive)
REMARK    1  A    between atoms: O_6  and  C_15
REMARK    2  A    between atoms: O_6  and  C_19
REMARK    3  A    between atoms: O_8  and  C_20
REMARK    4  A    between atoms: O_8  and  C_27
REMARK    5  A    between atoms: N_10  and  C_14
REMARK    6  A    between atoms: N_11  and  C_21
REMARK    7  A    between atoms: C_19  and  C_20
REMARK    8  A    between atoms: C_24  and  C_28
REMARK                            x       y       z     vdW  Elec       q    Type
REMARK                         _______ _______ _______ _____ _____    ______ ____
ROOT
ATOM      7  O   UNL     1      -0.229   0.467  24.927  0.00  0.00    -0.252 OA
ATOM     10  N   UNL     1      -1.306  -1.316  23.925  0.00  0.00    -0.292 N 
ATOM     11  N   UNL     1       0.838  -0.810  23.272  0.00  0.00    -0.269 N 
ATOM     18  C   UNL     1      -0.217  -0.456  24.117  0.00  0.00    +0.304 C 
ATOM     29  H   UNL     1      -1.194  -2.098  23.286  0.00  0.00    +0.151 HD
ATOM     30  H   UNL     1       0.684  -1.605  22.658  0.00  0.00    +0.156 HD
ENDROOT
BRANCH  10  14
ATOM      4  O   UNL     1      -2.604   0.979  25.608  0.00  0.00    -0.369 OA
ATOM      5  O   UNL     1      -4.884  -0.654  24.369  0.00  0.00    -0.369 OA
ATOM     12  C   UNL     1      -3.551  -0.366  23.900  0.00  0.00    +0.172 C 
ATOM     13  C   UNL     1      -3.236   1.056  24.319  0.00  0.00    +0.180 C 
ATOM     14  C   UNL     1      -2.543  -1.199  24.657  0.00  0.00    +0.131 C 
ATOM     15  C   UNL     1      -4.606   1.683  24.405  0.00  0.00    +0.176 C 
ATOM     16  C   UNL     1      -2.357  -0.399  25.933  0.00  0.00    +0.185 C 
ATOM     17  C   UNL     1      -5.448   0.542  24.930  0.00  0.00    +0.194 C 
BRANCH  15   6
ATOM      6  O   UNL     1      -4.658   2.811  25.249  0.00  0.00    -0.360 OA
BRANCH   6  19
ATOM     19  C   UNL     1      -3.905   3.902  24.726  0.00  0.00    +0.280 C 
BRANCH  19  20
ATOM      9  O   UNL     1      -2.999   4.182  26.957  0.00  0.00    -0.248 OA
ATOM     20  C   UNL     1      -2.879   4.320  25.747  0.00  0.00    +0.333 C 
BRANCH  20   8
ATOM      8  O   UNL     1      -1.810   4.873  25.103  0.00  0.00    -0.466 OA
ATOM     27  C   UNL     1      -0.692   4.001  24.905  0.00  0.00    +0.280 C 
ENDBRANCH  20   8
ENDBRANCH  19  20
ENDBRANCH   6  19
ENDBRANCH  15   6
ENDBRANCH  10  14
BRANCH  11  21
ATOM     21  C   UNL     1       2.106  -0.193  23.163  0.00  0.00    +0.035 A 
ATOM     22  C   UNL     1       3.252  -0.876  23.570  0.00  0.00    +0.035 A 
ATOM     23  C   UNL     1       2.211   1.098  22.645  0.00  0.00    +0.023 A 
ATOM     24  C   UNL     1       4.503  -0.268  23.460  0.00  0.00    +0.057 A 
ATOM     25  C   UNL     1       3.462   1.706  22.536  0.00  0.00    +0.002 A 
ATOM     26  C   UNL     1       4.608   1.023  22.944  0.00  0.00    +0.012 A 
BRANCH  24  28
ATOM      1  F   UNL     1       6.832  -0.648  23.176  0.00  0.00    -0.166 F 
ATOM      2  F   UNL     1       6.060  -0.778  25.203  0.00  0.00    -0.166 F 
ATOM      3  F   UNL     1       5.628  -2.355  23.779  0.00  0.00    -0.166 F 
ATOM     28  C   UNL     1       5.728  -0.998  23.897  0.00  0.00    +0.417 C 
ENDBRANCH  24  28
ENDBRANCH  11  21
TORSDOF 7
ENDMDL
MODEL 2
REMARK VINA RESULT:       0.0      1.803      3.700
REMARK  Name = 26763399
REMARK  8 active torsions:
REMARK  status: ('A' for Active; 'I' for Inactive)
REMARK    1  A    between atoms: O_6  and  C_15
REMARK    2  A    between atoms: O_6  and  C_19
REMARK    3  A    between atoms: O_8  and  C_20
REMARK    4  A    between atoms: O_8  and  C_27
REMARK    5  A    between atoms: N_10  and  C_14
REMARK    6  A    between atoms: N_11  and  C_21
REMARK    7  A    between atoms: C_19  and  C_20
REMARK    8  A    between atoms: C_24  and  C_28
REMARK                            x       y       z     vdW  Elec       q    Type
REMARK                         _______ _______ _______ _____ _____    ______ ____
ROOT
ATOM      7  O   UNL     1      -1.288   2.131  23.413  0.00  0.00    -0.252 OA
ATOM     10  N   UNL     1      -0.793   3.785  24.950  0.00  0.00    -0.292 N 
ATOM     11  N   UNL     1       0.886   2.373  24.266  0.00  0.00    -0.269 N 
ATOM     18  C   UNL     1      -0.468   2.695  24.132  0.00  0.00    +0.304 C 
ATOM     29  H   UNL     1      -0.045   4.241  25.464  0.00  0.00    +0.151 HD
ATOM     30  H   UNL     1       1.429   2.944  24.909  0.00  0.00    +0.156 HD
ENDROOT
BRANCH  10  14
ATOM      4  O   UNL     1      -3.554   2.958  23.735  0.00  0.00    -0.369 OA
ATOM      5  O   UNL     1      -4.109   4.360  26.405  0.00  0.00    -0.369 OA
ATOM     12  C   UNL     1      -2.999   3.552  25.963  0.00  0.00    +0.172 C 
ATOM     13  C   UNL     1      -3.574   2.460  25.083  0.00  0.00    +0.180 C 
ATOM     14  C   UNL     1      -2.120   4.347  25.026  0.00  0.00    +0.131 C 
ATOM     15  C   UNL     1      -4.982   2.325  25.609  0.00  0.00    +0.176 C 
ATOM     16  C   UNL     1      -2.853   4.212  23.703  0.00  0.00    +0.185 C 
ATOM     17  C   UNL     1      -5.331   3.753  25.960  0.00  0.00    +0.194 C 
BRANCH  15   6
ATOM      6  O   UNL     1      -5.882   1.773  24.674  0.00  0.00    -0.360 OA
BRANCH   6  19
ATOM     19  C   UNL     1      -5.962   0.354  24.785  0.00  0.00    +0.280 C 
BRANCH  19  20
ATOM      9  O   UNL     1      -4.040  -0.233  23.429  0.00  0.00    -0.248 OA
ATOM     20  C   UNL     1      -4.601  -0.233  24.516  0.00  0.00    +0.333 C 
BRANCH  20   8
ATOM      8  O   UNL     1      -4.107  -0.757  25.676  0.00  0.00    -0.466 OA
ATOM     27  C   UNL     1      -2.702  -1.029  25.679  0.00  0.00    +0.280 C 
ENDBRANCH  20   8
ENDBRANCH  19  20
ENDBRANCH   6  19
ENDBRANCH  15   6
ENDBRANCH  10  14
BRANCH  11  21
ATOM     21  C   UNL     1       1.601   1.342  23.614  0.00  0.00    +0.035 A 
ATOM     22  C   UNL     1       2.978   1.223  23.800  0.00  0.00    +0.035 A 
ATOM     23  C   UNL     1       0.929   0.444  22.785  0.00  0.00    +0.023 A 
ATOM     24  C   UNL     1       3.683   0.205  23.158  0.00  0.00    +0.057 A 
ATOM     25  C   UNL     1       1.634  -0.573  22.142  0.00  0.00    +0.002 A 
ATOM     26  C   UNL     1       3.012  -0.693  22.329  0.00  0.00    +0.012 A 
BRANCH  24  28
ATOM      1  F   UNL     1       5.487  -0.962  24.176  0.00  0.00    -0.166 F 
ATOM      2  F   UNL     1       5.848  -0.136  22.199  0.00  0.00    -0.166 F 
ATOM      3  F   UNL     1       5.731   1.183  23.917  0.00  0.00    -0.166 F 
ATOM     28  C   UNL     1       5.156   0.077  23.357  0.00  0.00    +0.417 C 
ENDBRANCH  24  28
ENDBRANCH  11  21
TORSDOF 7
ENDMDL
