MODEL 1
REMARK VINA RESULT:      11.7      0.000      0.000
REMARK  Name = 51136856
REMARK  5 active torsions:
REMARK  status: ('A' for Active; 'I' for Inactive)
REMARK    1  A    between atoms: N_2  and  C_9
REMARK    2  A    between atoms: N_3  and  C_19
REMARK    3  A    between atoms: N_7  and  C_28
REMARK    4  A    between atoms: C_10  and  C_18
REMARK    5  A    between atoms: C_20  and  C_25
REMARK                            x       y       z     vdW  Elec       q    Type
REMARK                         _______ _______ _______ _____ _____    ______ ____
ROOT
ATOM      1  O   UNL     1      -2.710   3.435  24.039  0.00  0.00    -0.336 OA
ATOM      4  N   UNL     1      -2.172   1.261  24.088  0.00  0.00    -0.190 NA
ATOM      5  N   UNL     1      -1.329   3.370  23.822  0.00  0.00    -0.056 NA
ATOM     18  C   UNL     1      -3.128   2.150  24.187  0.00  0.00    +0.245 A 
ATOM     20  C   UNL     1      -1.087   2.057  23.864  0.00  0.00    +0.204 A 
ENDROOT
BRANCH  20  25
ATOM      6  N   UNL     1       4.044   0.009  23.213  0.00  0.00    -0.313 N 
ATOM      7  N   UNL     1       6.742  -0.920  23.083  0.00  0.00    -0.302 NA
ATOM      8  N   UNL     1       2.623   1.799  23.831  0.00  0.00    -0.240 NA
ATOM     21  C   UNL     1       5.127   0.939  22.870  0.00  0.00    +0.122 C 
ATOM     22  C   UNL     1       4.446  -1.184  23.963  0.00  0.00    +0.122 C 
ATOM     23  C   UNL     1       6.297   0.188  22.229  0.00  0.00    +0.103 C 
ATOM     24  C   UNL     1       5.639  -1.867  23.289  0.00  0.00    +0.103 C 
ATOM     25  C   UNL     1       0.227   1.508  23.689  0.00  0.00    +0.041 A 
ATOM     26  C   UNL     1       2.756   0.532  23.379  0.00  0.00    +0.121 A 
ATOM     27  C   UNL     1       0.405   0.209  23.225  0.00  0.00    +0.016 A 
ATOM     28  C   UNL     1       7.894  -1.596  22.487  0.00  0.00    +0.105 C 
ATOM     29  C   UNL     1       1.691  -0.296  23.064  0.00  0.00    +0.044 A 
ATOM     30  C   UNL     1       1.358   2.255  23.975  0.00  0.00    +0.124 A 
ENDBRANCH  20  25
BRANCH  18  10
ATOM      2  N   UNL     1      -4.875   1.152  25.652  0.00  0.00    -0.288 NA
ATOM     10  C   UNL     1      -4.608   1.945  24.435  0.00  0.00    +0.146 C 
ATOM     11  C   UNL     1      -6.171   1.601  26.161  0.00  0.00    +0.085 C 
ATOM     14  C   UNL     1      -5.360   3.270  24.659  0.00  0.00    +0.030 C 
ATOM     15  C   UNL     1      -6.070   3.104  25.995  0.00  0.00    +0.017 C 
BRANCH   2   9
ATOM      3  N   UNL     1      -3.498  -2.634  24.297  0.00  0.00    -0.305 NA
ATOM      9  C   UNL     1      -4.847  -0.289  25.416  0.00  0.00    +0.060 C 
ATOM     12  C   UNL     1      -3.607  -0.908  26.068  0.00  0.00    +0.034 C 
ATOM     13  C   UNL     1      -4.857  -0.601  23.916  0.00  0.00    +0.034 C 
ATOM     16  C   UNL     1      -3.507  -2.402  25.748  0.00  0.00    +0.085 C 
ATOM     17  C   UNL     1      -4.716  -2.104  23.666  0.00  0.00    +0.085 C 
ATOM     19  C   UNL     1      -3.352  -4.060  24.007  0.00  0.00    +0.104 C 
ENDBRANCH   2   9
ENDBRANCH  18  10
TORSDOF 3
ENDMDL
MODEL 2
REMARK VINA RESULT:      13.5      2.019      4.134
REMARK  Name = 51136856
REMARK  5 active torsions:
REMARK  status: ('A' for Active; 'I' for Inactive)
REMARK    1  A    between atoms: N_2  and  C_9
REMARK    2  A    between atoms: N_3  and  C_19
REMARK    3  A    between atoms: N_7  and  C_28
REMARK    4  A    between atoms: C_10  and  C_18
REMARK    5  A    between atoms: C_20  and  C_25
REMARK                            x       y       z     vdW  Elec       q    Type
REMARK                         _______ _______ _______ _____ _____    ______ ____
ROOT
ATOM      1  O   UNL     1      -3.925  -0.588  24.632  0.00  0.00    -0.336 OA
ATOM      4  N   UNL     1      -2.468   1.095  24.882  0.00  0.00    -0.190 NA
ATOM      5  N   UNL     1      -2.673  -1.098  24.266  0.00  0.00    -0.056 NA
ATOM     18  C   UNL     1      -3.715   0.709  24.980  0.00  0.00    +0.245 A 
ATOM     20  C   UNL     1      -1.867  -0.047  24.440  0.00  0.00    +0.204 A 
ENDROOT
BRANCH  20  25
ATOM      6  N   UNL     1       3.595  -0.362  23.433  0.00  0.00    -0.313 N 
ATOM      7  N   UNL     1       6.351  -0.720  22.774  0.00  0.00    -0.302 NA
ATOM      8  N   UNL     1       1.524  -1.442  23.825  0.00  0.00    -0.240 NA
ATOM     21  C   UNL     1       4.337  -1.510  23.969  0.00  0.00    +0.122 C 
ATOM     22  C   UNL     1       4.139   0.228  22.207  0.00  0.00    +0.122 C 
ATOM     23  C   UNL     1       5.830  -1.186  24.065  0.00  0.00    +0.103 C 
ATOM     24  C   UNL     1       5.638   0.494  22.357  0.00  0.00    +0.103 C 
ATOM     25  C   UNL     1      -0.457  -0.104  24.179  0.00  0.00    +0.041 A 
ATOM     26  C   UNL     1       2.220  -0.291  23.687  0.00  0.00    +0.121 A 
ATOM     27  C   UNL     1       0.292   1.059  24.033  0.00  0.00    +0.016 A 
ATOM     28  C   UNL     1       7.788  -0.466  22.863  0.00  0.00    +0.105 C 
ATOM     29  C   UNL     1       1.657   0.971  23.782  0.00  0.00    +0.044 A 
ATOM     30  C   UNL     1       0.200  -1.318  24.068  0.00  0.00    +0.124 A 
ENDBRANCH  20  25
BRANCH  18  10
ATOM      2  N   UNL     1      -5.290   2.569  24.477  0.00  0.00    -0.288 NA
ATOM     10  C   UNL     1      -4.931   1.495  25.424  0.00  0.00    +0.146 C 
ATOM     11  C   UNL     1      -6.737   2.751  24.587  0.00  0.00    +0.085 C 
ATOM     14  C   UNL     1      -6.197   0.622  25.523  0.00  0.00    +0.030 C 
ATOM     15  C   UNL     1      -7.230   1.319  24.648  0.00  0.00    +0.017 C 
BRANCH   2   9
ATOM      3  N   UNL     1      -2.012   5.231  24.964  0.00  0.00    -0.305 NA
ATOM      9  C   UNL     1      -4.560   3.812  24.716  0.00  0.00    +0.060 C 
ATOM     12  C   UNL     1      -3.697   4.161  23.500  0.00  0.00    +0.034 C 
ATOM     13  C   UNL     1      -3.681   3.702  25.965  0.00  0.00    +0.034 C 
ATOM     16  C   UNL     1      -2.849   5.407  23.769  0.00  0.00    +0.085 C 
ATOM     17  C   UNL     1      -2.833   4.962  26.153  0.00  0.00    +0.085 C 
ATOM     19  C   UNL     1      -1.172   6.409  25.179  0.00  0.00    +0.104 C 
ENDBRANCH   2   9
ENDBRANCH  18  10
TORSDOF 3
ENDMDL
