MODEL 1
REMARK VINA RESULT:      -7.9      0.000      0.000
REMARK  Name = 75536499
REMARK  6 active torsions:
REMARK  status: ('A' for Active; 'I' for Inactive)
REMARK    1  A    between atoms: O_4  and  C_10
REMARK    2  A    between atoms: N_6  and  C_8
REMARK    3  A    between atoms: N_6  and  C_9
REMARK    4  A    between atoms: N_7  and  C_18
REMARK    5  A    between atoms: C_13  and  C_18
REMARK    6  A    between atoms: C_19  and  C_20
REMARK                            x       y       z     vdW  Elec       q    Type
REMARK                         _______ _______ _______ _____ _____    ______ ____
ROOT
ATOM      3  O   UNL     1      -1.236   3.783  25.901  0.00  0.00    -0.371 OA
ATOM      9  C   UNL     1      -0.473   1.675  25.117  0.00  0.00    +0.111 C 
ATOM     10  C   UNL     1      -1.717   2.069  24.344  0.00  0.00    +0.164 C 
ATOM     13  C   UNL     1      -1.739   3.575  24.571  0.00  0.00    +0.165 C 
ATOM     14  C   UNL     1      -0.574   2.581  26.334  0.00  0.00    +0.181 C 
ENDROOT
BRANCH  10   4
ATOM      4  O   UNL     1      -1.632   1.745  22.970  0.00  0.00    -0.388 OA
ATOM     22  H   UNL     1      -0.859   2.199  22.595  0.00  0.00    +0.210 HD
ENDBRANCH  10   4
BRANCH   9   6
ATOM      6  N   UNL     1      -0.424   0.264  25.465  0.00  0.00    -0.306 NA
ATOM     21  H   UNL     1      -0.558   0.145  26.469  0.00  0.00    +0.123 HD
BRANCH   6   8
ATOM      1  F   UNL     1      -3.482  -3.134  25.860  0.00  0.00    -0.206 F 
ATOM      2  F   UNL     1      -4.428  -3.272  23.907  0.00  0.00    -0.206 F 
ATOM      8  C   UNL     1      -1.441  -0.487  24.732  0.00  0.00    +0.054 C 
ATOM     11  C   UNL     1      -1.051  -1.968  24.669  0.00  0.00    +0.024 C 
ATOM     12  C   UNL     1      -2.808  -0.301  25.403  0.00  0.00    +0.024 C 
ATOM     15  C   UNL     1      -2.127  -2.797  23.972  0.00  0.00    +0.077 C 
ATOM     16  C   UNL     1      -3.886  -1.129  24.706  0.00  0.00    +0.077 C 
ATOM     17  C   UNL     1      -3.490  -2.593  24.613  0.00  0.00    +0.249 C 
ENDBRANCH   6   8
ENDBRANCH   9   6
BRANCH  13  18
ATOM     18  C   UNL     1      -3.126   4.182  24.446  0.00  0.00    +0.138 C 
BRANCH  18   7
ATOM      5  O   UNL     1      -5.154   3.443  26.386  0.00  0.00    -0.276 OA
ATOM      7  N   UNL     1      -4.129   3.166  24.313  0.00  0.00    -0.313 N 
ATOM     19  C   UNL     1      -5.066   2.878  25.300  0.00  0.00    +0.210 C 
ATOM     20  C   UNL     1      -6.017   1.785  24.892  0.00  0.00    +0.109 C 
ATOM     23  H   UNL     1      -4.147   2.631  23.449  0.00  0.00    +0.149 HD
ENDBRANCH  18   7
ENDBRANCH  13  18
TORSDOF 5
ENDMDL
MODEL 2
REMARK VINA RESULT:      -7.4      3.177      5.135
REMARK  Name = 75536499
REMARK  6 active torsions:
REMARK  status: ('A' for Active; 'I' for Inactive)
REMARK    1  A    between atoms: O_4  and  C_10
REMARK    2  A    between atoms: N_6  and  C_8
REMARK    3  A    between atoms: N_6  and  C_9
REMARK    4  A    between atoms: N_7  and  C_18
REMARK    5  A    between atoms: C_13  and  C_18
REMARK    6  A    between atoms: C_19  and  C_20
REMARK                            x       y       z     vdW  Elec       q    Type
REMARK                         _______ _______ _______ _____ _____    ______ ____
ROOT
ATOM      3  O   UNL     1       0.313  -0.888  23.434  0.00  0.00    -0.371 OA
ATOM      9  C   UNL     1       0.012   1.323  24.248  0.00  0.00    +0.111 C 
ATOM     10  C   UNL     1      -0.743   0.359  25.144  0.00  0.00    +0.164 C 
ATOM     13  C   UNL     1      -0.035  -0.951  24.827  0.00  0.00    +0.165 C 
ATOM     14  C   UNL     1       0.212   0.479  22.999  0.00  0.00    +0.181 C 
ENDROOT
BRANCH  10   4
ATOM      4  O   UNL     1      -0.643   0.694  26.514  0.00  0.00    -0.388 OA
ATOM     22  H   UNL     1      -1.394   1.266  26.745  0.00  0.00    +0.210 HD
ENDBRANCH  10   4
BRANCH   9   6
ATOM      6  N   UNL     1      -0.706   2.560  23.986  0.00  0.00    -0.306 NA
ATOM     21  H   UNL     1      -0.843   2.681  22.983  0.00  0.00    +0.123 HD
BRANCH   6   8
ATOM      1  F   UNL     1      -4.711   4.781  24.260  0.00  0.00    -0.206 F 
ATOM      2  F   UNL     1      -5.850   3.708  25.771  0.00  0.00    -0.206 F 
ATOM      8  C   UNL     1      -1.997   2.566  24.671  0.00  0.00    +0.054 C 
ATOM     11  C   UNL     1      -2.168   3.879  25.446  0.00  0.00    +0.024 C 
ATOM     12  C   UNL     1      -3.127   2.372  23.653  0.00  0.00    +0.024 C 
ATOM     15  C   UNL     1      -3.538   3.951  26.117  0.00  0.00    +0.077 C 
ATOM     16  C   UNL     1      -4.497   2.443  24.323  0.00  0.00    +0.077 C 
ATOM     17  C   UNL     1      -4.661   3.728  25.118  0.00  0.00    +0.249 C 
ENDBRANCH   6   8
ENDBRANCH   9   6
BRANCH  13  18
ATOM     18  C   UNL     1      -0.894  -2.177  25.086  0.00  0.00    +0.138 C 
BRANCH  18   7
ATOM      5  O   UNL     1      -3.545  -1.427  26.000  0.00  0.00    -0.276 OA
ATOM      7  N   UNL     1      -2.103  -2.138  24.315  0.00  0.00    -0.313 N 
ATOM     19  C   UNL     1      -3.336  -1.765  24.839  0.00  0.00    +0.210 C 
ATOM     20  C   UNL     1      -4.433  -1.788  23.808  0.00  0.00    +0.109 C 
ATOM     23  H   UNL     1      -2.046  -2.403  23.336  0.00  0.00    +0.149 HD
ENDBRANCH  18   7
ENDBRANCH  13  18
TORSDOF 5
ENDMDL
MODEL 3
REMARK VINA RESULT:      -7.1      1.121      1.719
REMARK  Name = 75536499
REMARK  6 active torsions:
REMARK  status: ('A' for Active; 'I' for Inactive)
REMARK    1  A    between atoms: O_4  and  C_10
REMARK    2  A    between atoms: N_6  and  C_8
REMARK    3  A    between atoms: N_6  and  C_9
REMARK    4  A    between atoms: N_7  and  C_18
REMARK    5  A    between atoms: C_13  and  C_18
REMARK    6  A    between atoms: C_19  and  C_20
REMARK                            x       y       z     vdW  Elec       q    Type
REMARK                         _______ _______ _______ _____ _____    ______ ____
ROOT
ATOM      3  O   UNL     1      -0.825   3.456  26.092  0.00  0.00    -0.371 OA
ATOM      9  C   UNL     1      -0.739   2.224  24.064  0.00  0.00    +0.111 C 
ATOM     10  C   UNL     1      -2.160   2.702  24.292  0.00  0.00    +0.164 C 
ATOM     13  C   UNL     1      -1.930   3.852  25.263  0.00  0.00    +0.165 C 
ATOM     14  C   UNL     1      -0.149   2.356  25.459  0.00  0.00    +0.181 C 
ENDROOT
BRANCH  10   4
ATOM      4  O   UNL     1      -2.788   3.136  23.101  0.00  0.00    -0.388 OA
ATOM     22  H   UNL     1      -3.750   3.128  23.242  0.00  0.00    +0.210 HD
ENDBRANCH  10   4
BRANCH   9   6
ATOM      6  N   UNL     1      -0.655   0.870  23.541  0.00  0.00    -0.306 NA
ATOM     21  H   UNL     1       0.321   0.602  23.412  0.00  0.00    +0.123 HD
BRANCH   6   8
ATOM      1  F   UNL     1      -3.432  -2.781  23.631  0.00  0.00    -0.206 F 
ATOM      2  F   UNL     1      -3.664  -3.262  25.739  0.00  0.00    -0.206 F 
ATOM      8  C   UNL     1      -1.318  -0.075  24.437  0.00  0.00    +0.054 C 
ATOM     11  C   UNL     1      -2.839   0.033  24.274  0.00  0.00    +0.024 C 
ATOM     12  C   UNL     1      -0.829  -1.499  24.145  0.00  0.00    +0.024 C 
ATOM     15  C   UNL     1      -3.564  -0.991  25.145  0.00  0.00    +0.077 C 
ATOM     16  C   UNL     1      -1.553  -2.525  25.016  0.00  0.00    +0.077 C 
ATOM     17  C   UNL     1      -3.062  -2.401  24.882  0.00  0.00    +0.249 C 
ENDBRANCH   6   8
ENDBRANCH   9   6
BRANCH  13  18
ATOM     18  C   UNL     1      -3.140   4.156  26.131  0.00  0.00    +0.138 C 
BRANCH  18   7
ATOM      5  O   UNL     1      -5.987   4.396  25.618  0.00  0.00    -0.276 OA
ATOM      7  N   UNL     1      -4.106   3.098  26.069  0.00  0.00    -0.313 N 
ATOM     19  C   UNL     1      -5.457   3.306  25.817  0.00  0.00    +0.210 C 
ATOM     20  C   UNL     1      -6.243   2.022  25.782  0.00  0.00    +0.109 C 
ATOM     23  H   UNL     1      -3.775   2.149  26.222  0.00  0.00    +0.149 HD
ENDBRANCH  18   7
ENDBRANCH  13  18
TORSDOF 5
ENDMDL
MODEL 4
REMARK VINA RESULT:      -6.7      1.627      3.548
REMARK  Name = 75536499
REMARK  6 active torsions:
REMARK  status: ('A' for Active; 'I' for Inactive)
REMARK    1  A    between atoms: O_4  and  C_10
REMARK    2  A    between atoms: N_6  and  C_8
REMARK    3  A    between atoms: N_6  and  C_9
REMARK    4  A    between atoms: N_7  and  C_18
REMARK    5  A    between atoms: C_13  and  C_18
REMARK    6  A    between atoms: C_19  and  C_20
REMARK                            x       y       z     vdW  Elec       q    Type
REMARK                         _______ _______ _______ _____ _____    ______ ____
ROOT
ATOM      3  O   UNL     1      -3.310   3.643  23.312  0.00  0.00    -0.371 OA
ATOM      9  C   UNL     1      -4.840   2.364  24.601  0.00  0.00    +0.111 C 
ATOM     10  C   UNL     1      -3.987   3.202  25.535  0.00  0.00    +0.164 C 
ATOM     13  C   UNL     1      -3.491   4.284  24.586  0.00  0.00    +0.165 C 
ATOM     14  C   UNL     1      -4.006   2.385  23.331  0.00  0.00    +0.181 C 
ENDROOT
BRANCH  10   4
ATOM      4  O   UNL     1      -4.726   3.743  26.612  0.00  0.00    -0.388 OA
ATOM     22  H   UNL     1      -5.653   3.468  26.517  0.00  0.00    +0.210 HD
ENDBRANCH  10   4
BRANCH   9   6
ATOM      6  N   UNL     1      -5.091   1.017  25.090  0.00  0.00    -0.306 NA
ATOM     21  H   UNL     1      -6.029   0.717  24.827  0.00  0.00    +0.123 HD
BRANCH   6   8
ATOM      1  F   UNL     1      -3.341  -3.185  25.658  0.00  0.00    -0.206 F 
ATOM      2  F   UNL     1      -1.820  -3.377  24.115  0.00  0.00    -0.206 F 
ATOM      8  C   UNL     1      -4.101   0.081  24.564  0.00  0.00    +0.054 C 
ATOM     11  C   UNL     1      -3.070  -0.251  25.650  0.00  0.00    +0.024 C 
ATOM     12  C   UNL     1      -4.801  -1.187  24.058  0.00  0.00    +0.024 C 
ATOM     15  C   UNL     1      -2.058  -1.284  25.157  0.00  0.00    +0.077 C 
ATOM     16  C   UNL     1      -3.790  -2.220  23.564  0.00  0.00    +0.077 C 
ATOM     17  C   UNL     1      -2.748  -2.530  24.626  0.00  0.00    +0.249 C 
ENDBRANCH   6   8
ENDBRANCH   9   6
BRANCH  13  18
ATOM     18  C   UNL     1      -2.185   4.920  25.030  0.00  0.00    +0.138 C 
BRANCH  18   7
ATOM      5  O   UNL     1      -0.215   2.963  24.183  0.00  0.00    -0.276 OA
ATOM      7  N   UNL     1      -1.427   4.030  25.861  0.00  0.00    -0.313 N 
ATOM     19  C   UNL     1      -0.500   3.120  25.367  0.00  0.00    +0.210 C 
ATOM     20  C   UNL     1       0.170   2.327  26.457  0.00  0.00    +0.109 C 
ATOM     23  H   UNL     1      -1.586   4.073  26.864  0.00  0.00    +0.149 HD
ENDBRANCH  18   7
ENDBRANCH  13  18
TORSDOF 5
ENDMDL
MODEL 5
REMARK VINA RESULT:      -6.6      2.589      4.611
REMARK  Name = 75536499
REMARK  6 active torsions:
REMARK  status: ('A' for Active; 'I' for Inactive)
REMARK    1  A    between atoms: O_4  and  C_10
REMARK    2  A    between atoms: N_6  and  C_8
REMARK    3  A    between atoms: N_6  and  C_9
REMARK    4  A    between atoms: N_7  and  C_18
REMARK    5  A    between atoms: C_13  and  C_18
REMARK    6  A    between atoms: C_19  and  C_20
REMARK                            x       y       z     vdW  Elec       q    Type
REMARK                         _______ _______ _______ _____ _____    ______ ____
ROOT
ATOM      3  O   UNL     1      -0.870   0.495  23.278  0.00  0.00    -0.371 OA
ATOM      9  C   UNL     1      -0.977   2.532  24.494  0.00  0.00    +0.111 C 
ATOM     10  C   UNL     1      -0.798   1.383  25.469  0.00  0.00    +0.164 C 
ATOM     13  C   UNL     1      -0.232   0.307  24.552  0.00  0.00    +0.165 C 
ATOM     14  C   UNL     1      -1.469   1.802  23.255  0.00  0.00    +0.181 C 
ENDROOT
BRANCH  10   4
ATOM      4  O   UNL     1       0.088   1.695  26.525  0.00  0.00    -0.388 OA
ATOM     22  H   UNL     1      -0.081   1.080  27.259  0.00  0.00    +0.210 HD
ENDBRANCH  10   4
BRANCH   9   6
ATOM      6  N   UNL     1      -1.905   3.551  24.957  0.00  0.00    -0.306 NA
ATOM     21  H   UNL     1      -1.672   4.453  24.542  0.00  0.00    +0.123 HD
BRANCH   6   8
ATOM      1  F   UNL     1      -5.834   2.003  26.749  0.00  0.00    -0.206 F 
ATOM      2  F   UNL     1      -7.215   1.892  25.072  0.00  0.00    -0.206 F 
ATOM      8  C   UNL     1      -3.281   3.189  24.624  0.00  0.00    +0.054 C 
ATOM     11  C   UNL     1      -3.522   1.709  24.945  0.00  0.00    +0.024 C 
ATOM     12  C   UNL     1      -4.256   4.090  25.392  0.00  0.00    +0.024 C 
ATOM     15  C   UNL     1      -4.972   1.312  24.677  0.00  0.00    +0.077 C 
ATOM     16  C   UNL     1      -5.707   3.694  25.124  0.00  0.00    +0.077 C 
ATOM     17  C   UNL     1      -5.944   2.221  25.412  0.00  0.00    +0.249 C 
ENDBRANCH   6   8
ENDBRANCH   9   6
BRANCH  13  18
ATOM     18  C   UNL     1      -0.491  -1.105  25.051  0.00  0.00    +0.138 C 
BRANCH  18   7
ATOM      5  O   UNL     1      -3.162  -1.420  26.144  0.00  0.00    -0.276 OA
ATOM      7  N   UNL     1      -1.633  -1.685  24.407  0.00  0.00    -0.313 N 
ATOM     19  C   UNL     1      -2.882  -1.796  25.009  0.00  0.00    +0.210 C 
ATOM     20  C   UNL     1      -3.907  -2.422  24.102  0.00  0.00    +0.109 C 
ATOM     23  H   UNL     1      -1.512  -2.034  23.460  0.00  0.00    +0.149 HD
ENDBRANCH  18   7
ENDBRANCH  13  18
TORSDOF 5
ENDMDL
MODEL 6
REMARK VINA RESULT:      -6.5      3.667      6.096
REMARK  Name = 75536499
REMARK  6 active torsions:
REMARK  status: ('A' for Active; 'I' for Inactive)
REMARK    1  A    between atoms: O_4  and  C_10
REMARK    2  A    between atoms: N_6  and  C_8
REMARK    3  A    between atoms: N_6  and  C_9
REMARK    4  A    between atoms: N_7  and  C_18
REMARK    5  A    between atoms: C_13  and  C_18
REMARK    6  A    between atoms: C_19  and  C_20
REMARK                            x       y       z     vdW  Elec       q    Type
REMARK                         _______ _______ _______ _____ _____    ______ ____
ROOT
ATOM      3  O   UNL     1       1.399   1.991  23.883  0.00  0.00    -0.371 OA
ATOM      9  C   UNL     1      -0.930   1.656  24.205  0.00  0.00    +0.111 C 
ATOM     10  C   UNL     1      -0.367   0.487  23.419  0.00  0.00    +0.164 C 
ATOM     13  C   UNL     1       1.113   0.587  23.765  0.00  0.00    +0.165 C 
ATOM     14  C   UNL     1       0.156   2.702  24.010  0.00  0.00    +0.181 C 
ENDROOT
BRANCH  10   4
ATOM      4  O   UNL     1      -0.918  -0.753  23.814  0.00  0.00    -0.388 OA
ATOM     22  H   UNL     1      -0.739  -0.881  24.761  0.00  0.00    +0.210 HD
ENDBRANCH  10   4
BRANCH   9   6
ATOM      6  N   UNL     1      -2.234   2.100  23.739  0.00  0.00    -0.306 NA
ATOM     21  H   UNL     1      -2.521   1.555  22.927  0.00  0.00    +0.123 HD
BRANCH   6   8
ATOM      1  F   UNL     1      -6.746   1.839  24.527  0.00  0.00    -0.206 F 
ATOM      2  F   UNL     1      -6.934   1.678  26.688  0.00  0.00    -0.206 F 
ATOM      8  C   UNL     1      -3.232   1.980  24.799  0.00  0.00    +0.054 C 
ATOM     11  C   UNL     1      -4.150   3.209  24.791  0.00  0.00    +0.024 C 
ATOM     12  C   UNL     1      -4.035   0.687  24.614  0.00  0.00    +0.024 C 
ATOM     15  C   UNL     1      -5.252   3.085  25.842  0.00  0.00    +0.077 C 
ATOM     16  C   UNL     1      -5.137   0.561  25.665  0.00  0.00    +0.077 C 
ATOM     17  C   UNL     1      -6.031   1.790  25.682  0.00  0.00    +0.249 C 
ENDBRANCH   6   8
ENDBRANCH   9   6
BRANCH  13  18
ATOM     18  C   UNL     1       2.018  -0.034  22.716  0.00  0.00    +0.138 C 
BRANCH  18   7
ATOM      5  O   UNL     1       4.164  -1.623  23.854  0.00  0.00    -0.276 OA
ATOM      7  N   UNL     1       3.384   0.357  22.907  0.00  0.00    -0.313 N 
ATOM     19  C   UNL     1       4.351  -0.473  23.464  0.00  0.00    +0.210 C 
ATOM     20  C   UNL     1       5.706   0.178  23.527  0.00  0.00    +0.109 C 
ATOM     23  H   UNL     1       3.650   1.295  22.620  0.00  0.00    +0.149 HD
ENDBRANCH  18   7
ENDBRANCH  13  18
TORSDOF 5
ENDMDL
MODEL 7
REMARK VINA RESULT:      -6.4      3.865      6.251
REMARK  Name = 75536499
REMARK  6 active torsions:
REMARK  status: ('A' for Active; 'I' for Inactive)
REMARK    1  A    between atoms: O_4  and  C_10
REMARK    2  A    between atoms: N_6  and  C_8
REMARK    3  A    between atoms: N_6  and  C_9
REMARK    4  A    between atoms: N_7  and  C_18
REMARK    5  A    between atoms: C_13  and  C_18
REMARK    6  A    between atoms: C_19  and  C_20
REMARK                            x       y       z     vdW  Elec       q    Type
REMARK                         _______ _______ _______ _____ _____    ______ ____
ROOT
ATOM      3  O   UNL     1       0.335   1.729  23.314  0.00  0.00    -0.371 OA
ATOM      9  C   UNL     1      -1.331   0.662  24.627  0.00  0.00    +0.111 C 
ATOM     10  C   UNL     1      -0.332  -0.378  24.156  0.00  0.00    +0.164 C 
ATOM     13  C   UNL     1       0.870   0.499  23.828  0.00  0.00    +0.165 C 
ATOM     14  C   UNL     1      -1.060   1.802  23.659  0.00  0.00    +0.181 C 
ENDROOT
BRANCH  10   4
ATOM      4  O   UNL     1      -0.029  -1.336  25.152  0.00  0.00    -0.388 OA
ATOM     22  H   UNL     1      -0.713  -1.287  25.841  0.00  0.00    +0.210 HD
ENDBRANCH  10   4
BRANCH   9   6
ATOM      6  N   UNL     1      -2.711   0.204  24.590  0.00  0.00    -0.306 NA
ATOM     21  H   UNL     1      -2.926  -0.334  25.428  0.00  0.00    +0.123 HD
BRANCH   6   8
ATOM      1  F   UNL     1      -5.552   2.895  26.985  0.00  0.00    -0.206 F 
ATOM      2  F   UNL     1      -6.366   4.293  25.531  0.00  0.00    -0.206 F 
ATOM      8  C   UNL     1      -3.629   1.335  24.473  0.00  0.00    +0.054 C 
ATOM     11  C   UNL     1      -5.044   0.900  24.875  0.00  0.00    +0.024 C 
ATOM     12  C   UNL     1      -3.137   2.497  25.344  0.00  0.00    +0.024 C 
ATOM     15  C   UNL     1      -6.018   2.076  24.834  0.00  0.00    +0.077 C 
ATOM     16  C   UNL     1      -4.110   3.674  25.303  0.00  0.00    +0.077 C 
ATOM     17  C   UNL     1      -5.520   3.242  25.671  0.00  0.00    +0.249 C 
ENDBRANCH   6   8
ENDBRANCH   9   6
BRANCH  13  18
ATOM     18  C   UNL     1       1.805  -0.122  22.804  0.00  0.00    +0.138 C 
BRANCH  18   7
ATOM      5  O   UNL     1       4.101  -1.588  23.806  0.00  0.00    -0.276 OA
ATOM      7  N   UNL     1       3.146   0.361  22.962  0.00  0.00    -0.313 N 
ATOM     19  C   UNL     1       4.189  -0.416  23.453  0.00  0.00    +0.210 C 
ATOM     20  C   UNL     1       5.496   0.330  23.492  0.00  0.00    +0.109 C 
ATOM     23  H   UNL     1       3.333   1.325  22.701  0.00  0.00    +0.149 HD
ENDBRANCH  18   7
ENDBRANCH  13  18
TORSDOF 5
ENDMDL
MODEL 8
REMARK VINA RESULT:      -5.6      4.004      6.504
REMARK  Name = 75536499
REMARK  6 active torsions:
REMARK  status: ('A' for Active; 'I' for Inactive)
REMARK    1  A    between atoms: O_4  and  C_10
REMARK    2  A    between atoms: N_6  and  C_8
REMARK    3  A    between atoms: N_6  and  C_9
REMARK    4  A    between atoms: N_7  and  C_18
REMARK    5  A    between atoms: C_13  and  C_18
REMARK    6  A    between atoms: C_19  and  C_20
REMARK                            x       y       z     vdW  Elec       q    Type
REMARK                         _______ _______ _______ _____ _____    ______ ____
ROOT
ATOM      3  O   UNL     1       0.069  -0.948  23.120  0.00  0.00    -0.371 OA
ATOM      9  C   UNL     1      -0.356   1.000  24.410  0.00  0.00    +0.111 C 
ATOM     10  C   UNL     1       1.073   1.047  23.902  0.00  0.00    +0.164 C 
ATOM     13  C   UNL     1       0.998   0.077  22.730  0.00  0.00    +0.165 C 
ATOM     14  C   UNL     1      -0.686  -0.475  24.249  0.00  0.00    +0.181 C 
ENDROOT
BRANCH  10   4
ATOM      4  O   UNL     1       1.465   2.341  23.491  0.00  0.00    -0.388 OA
ATOM     22  H   UNL     1       0.877   2.626  22.772  0.00  0.00    +0.210 HD
ENDBRANCH  10   4
BRANCH   9   6
ATOM      6  N   UNL     1      -0.504   1.467  25.780  0.00  0.00    -0.306 NA
ATOM     21  H   UNL     1       0.224   2.146  26.000  0.00  0.00    +0.123 HD
BRANCH   6   8
ATOM      1  F   UNL     1      -3.735   4.024  23.763  0.00  0.00    -0.206 F 
ATOM      2  F   UNL     1      -5.319   4.204  25.243  0.00  0.00    -0.206 F 
ATOM      8  C   UNL     1      -1.822   2.063  25.985  0.00  0.00    +0.054 C 
ATOM     11  C   UNL     1      -1.726   3.590  25.874  0.00  0.00    +0.024 C 
ATOM     12  C   UNL     1      -2.815   1.495  24.963  0.00  0.00    +0.024 C 
ATOM     15  C   UNL     1      -3.099   4.244  26.012  0.00  0.00    +0.077 C 
ATOM     16  C   UNL     1      -4.189   2.148  25.100  0.00  0.00    +0.077 C 
ATOM     17  C   UNL     1      -4.095   3.663  25.022  0.00  0.00    +0.249 C 
ENDBRANCH   6   8
ENDBRANCH   9   6
BRANCH  13  18
ATOM     18  C   UNL     1       2.337  -0.549  22.381  0.00  0.00    +0.138 C 
BRANCH  18   7
ATOM      5  O   UNL     1       4.645  -1.571  23.816  0.00  0.00    -0.276 OA
ATOM      7  N   UNL     1       3.425   0.205  22.932  0.00  0.00    -0.313 N 
ATOM     19  C   UNL     1       4.495  -0.370  23.608  0.00  0.00    +0.210 C 
ATOM     20  C   UNL     1       5.508   0.647  24.060  0.00  0.00    +0.109 C 
ATOM     23  H   UNL     1       3.402   1.215  22.820  0.00  0.00    +0.149 HD
ENDBRANCH  18   7
ENDBRANCH  13  18
TORSDOF 5
ENDMDL
MODEL 9
REMARK VINA RESULT:      -5.4      3.245      5.636
REMARK  Name = 75536499
REMARK  6 active torsions:
REMARK  status: ('A' for Active; 'I' for Inactive)
REMARK    1  A    between atoms: O_4  and  C_10
REMARK    2  A    between atoms: N_6  and  C_8
REMARK    3  A    between atoms: N_6  and  C_9
REMARK    4  A    between atoms: N_7  and  C_18
REMARK    5  A    between atoms: C_13  and  C_18
REMARK    6  A    between atoms: C_19  and  C_20
REMARK                            x       y       z     vdW  Elec       q    Type
REMARK                         _______ _______ _______ _____ _____    ______ ____
ROOT
ATOM      3  O   UNL     1      -0.221   3.131  23.315  0.00  0.00    -0.371 OA
ATOM      9  C   UNL     1      -1.015   3.602  25.503  0.00  0.00    +0.111 C 
ATOM     10  C   UNL     1      -0.232   2.303  25.531  0.00  0.00    +0.164 C 
ATOM     13  C   UNL     1       0.605   2.439  24.266  0.00  0.00    +0.165 C 
ATOM     14  C   UNL     1      -1.316   3.741  24.020  0.00  0.00    +0.181 C 
ENDROOT
BRANCH  10   4
ATOM      4  O   UNL     1       0.574   2.175  26.686  0.00  0.00    -0.388 OA
ATOM     22  H   UNL     1       0.129   2.629  27.422  0.00  0.00    +0.210 HD
ENDBRANCH  10   4
BRANCH   9   6
ATOM      6  N   UNL     1      -2.215   3.579  26.324  0.00  0.00    -0.306 NA
ATOM     21  H   UNL     1      -2.358   4.488  26.763  0.00  0.00    +0.123 HD
BRANCH   6   8
ATOM      1  F   UNL     1      -6.283   1.467  26.504  0.00  0.00    -0.206 F 
ATOM      2  F   UNL     1      -7.099   1.639  24.495  0.00  0.00    -0.206 F 
ATOM      8  C   UNL     1      -3.384   3.220  25.525  0.00  0.00    +0.054 C 
ATOM     11  C   UNL     1      -3.531   1.694  25.474  0.00  0.00    +0.024 C 
ATOM     12  C   UNL     1      -4.638   3.880  26.111  0.00  0.00    +0.024 C 
ATOM     15  C   UNL     1      -4.785   1.283  24.705  0.00  0.00    +0.077 C 
ATOM     16  C   UNL     1      -5.893   3.470  25.342  0.00  0.00    +0.077 C 
ATOM     17  C   UNL     1      -6.027   1.958  25.263  0.00  0.00    +0.249 C 
ENDBRANCH   6   8
ENDBRANCH   9   6
BRANCH  13  18
ATOM     18  C   UNL     1       1.043   1.103  23.690  0.00  0.00    +0.138 C 
BRANCH  18   7
ATOM      5  O   UNL     1       2.602  -0.101  21.558  0.00  0.00    -0.276 OA
ATOM      7  N   UNL     1       2.471   1.018  23.596  0.00  0.00    -0.313 N 
ATOM     19  C   UNL     1       3.137   0.419  22.533  0.00  0.00    +0.210 C 
ATOM     20  C   UNL     1       4.634   0.490  22.675  0.00  0.00    +0.109 C 
ATOM     23  H   UNL     1       3.017   1.417  24.355  0.00  0.00    +0.149 HD
ENDBRANCH  18   7
ENDBRANCH  13  18
TORSDOF 5
ENDMDL
MODEL 10
REMARK VINA RESULT:      -5.4      2.920      4.745
REMARK  Name = 75536499
REMARK  6 active torsions:
REMARK  status: ('A' for Active; 'I' for Inactive)
REMARK    1  A    between atoms: O_4  and  C_10
REMARK    2  A    between atoms: N_6  and  C_8
REMARK    3  A    between atoms: N_6  and  C_9
REMARK    4  A    between atoms: N_7  and  C_18
REMARK    5  A    between atoms: C_13  and  C_18
REMARK    6  A    between atoms: C_19  and  C_20
REMARK                            x       y       z     vdW  Elec       q    Type
REMARK                         _______ _______ _______ _____ _____    ______ ____
ROOT
ATOM      3  O   UNL     1       0.096  -0.766  24.588  0.00  0.00    -0.371 OA
ATOM      9  C   UNL     1      -2.236  -0.616  24.164  0.00  0.00    +0.111 C 
ATOM     10  C   UNL     1      -1.595   0.730  23.881  0.00  0.00    +0.164 C 
ATOM     13  C   UNL     1      -0.140   0.325  23.682  0.00  0.00    +0.165 C 
ATOM     14  C   UNL     1      -1.174  -1.281  25.024  0.00  0.00    +0.181 C 
ENDROOT
BRANCH  10   4
ATOM      4  O   UNL     1      -2.128   1.359  22.732  0.00  0.00    -0.388 OA
ATOM     22  H   UNL     1      -2.624   2.145  23.016  0.00  0.00    +0.210 HD
ENDBRANCH  10   4
BRANCH   9   6
ATOM      6  N   UNL     1      -3.525  -0.520  24.829  0.00  0.00    -0.306 NA
ATOM     21  H   UNL     1      -3.424  -0.726  25.823  0.00  0.00    +0.123 HD
BRANCH   6   8
ATOM      1  F   UNL     1      -5.892   2.776  26.970  0.00  0.00    -0.206 F 
ATOM      2  F   UNL     1      -6.121   4.356  25.494  0.00  0.00    -0.206 F 
ATOM      8  C   UNL     1      -4.103   0.810  24.651  0.00  0.00    +0.054 C 
ATOM     11  C   UNL     1      -5.623   0.748  24.849  0.00  0.00    +0.024 C 
ATOM     12  C   UNL     1      -3.456   1.794  25.633  0.00  0.00    +0.024 C 
ATOM     15  C   UNL     1      -6.254   2.134  24.740  0.00  0.00    +0.077 C 
ATOM     16  C   UNL     1      -4.086   3.182  25.525  0.00  0.00    +0.077 C 
ATOM     17  C   UNL     1      -5.595   3.122  25.690  0.00  0.00    +0.249 C 
ENDBRANCH   6   8
ENDBRANCH   9   6
BRANCH  13  18
ATOM     18  C   UNL     1       0.841   1.450  23.966  0.00  0.00    +0.138 C 
BRANCH  18   7
ATOM      5  O   UNL     1      -0.095   2.771  26.376  0.00  0.00    -0.276 OA
ATOM      7  N   UNL     1       0.171   2.714  24.063  0.00  0.00    -0.313 N 
ATOM     19  C   UNL     1      -0.244   3.274  25.266  0.00  0.00    +0.210 C 
ATOM     20  C   UNL     1      -0.898   4.617  25.083  0.00  0.00    +0.109 C 
ATOM     23  H   UNL     1      -0.008   3.219  23.199  0.00  0.00    +0.149 HD
ENDBRANCH  18   7
ENDBRANCH  13  18
TORSDOF 5
ENDMDL
