MODEL 1
REMARK VINA RESULT:      -4.8      0.000      0.000
REMARK  Name = 26744421
REMARK  5 active torsions:
REMARK  status: ('A' for Active; 'I' for Inactive)
REMARK    1  A    between atoms: O_2  and  C_14
REMARK    2  A    between atoms: N_4  and  C_10
REMARK    3  A    between atoms: C_7  and  C_10
REMARK    4  A    between atoms: C_11  and  C_15
REMARK    5  A    between atoms: C_16  and  C_17
REMARK                            x       y       z     vdW  Elec       q    Type
REMARK                         _______ _______ _______ _____ _____    ______ ____
ROOT
ATOM      3  O   UNL     1      -1.636   2.128  25.519  0.00  0.00    -0.336 OA
ATOM      5  N   UNL     1      -1.369   1.350  23.436  0.00  0.00    -0.190 NA
ATOM      6  N   UNL     1      -0.263   1.899  25.362  0.00  0.00    -0.056 NA
ATOM     15  C   UNL     1      -2.213   1.779  24.340  0.00  0.00    +0.245 A 
ATOM     16  C   UNL     1      -0.185   1.442  24.109  0.00  0.00    +0.202 A 
ENDROOT
BRANCH  16  17
ATOM      1  F   UNL     1       4.637  -0.016  21.748  0.00  0.00    -0.205 F 
ATOM     17  C   UNL     1       1.058   1.066  23.500  0.00  0.00    +0.023 A 
ATOM     18  C   UNL     1       2.173   1.895  23.622  0.00  0.00    +0.014 A 
ATOM     19  C   UNL     1       1.152  -0.128  22.787  0.00  0.00    +0.014 A 
ATOM     20  C   UNL     1       3.382   1.529  23.030  0.00  0.00    +0.039 A 
ATOM     21  C   UNL     1       2.361  -0.495  22.195  0.00  0.00    +0.039 A 
ATOM     22  C   UNL     1       3.476   0.335  22.317  0.00  0.00    +0.123 A 
ENDBRANCH  16  17
BRANCH  15  11
ATOM      4  N   UNL     1      -4.441   0.971  25.101  0.00  0.00    -0.289 NA
ATOM     11  C   UNL     1      -3.717   1.938  24.252  0.00  0.00    +0.148 C 
ATOM     12  C   UNL     1      -5.691   1.619  25.494  0.00  0.00    +0.116 C 
ATOM     13  C   UNL     1      -4.198   3.320  24.731  0.00  0.00    +0.061 C 
ATOM     14  C   UNL     1      -5.224   3.025  25.818  0.00  0.00    +0.130 C 
BRANCH  14   2
ATOM      2  O   UNL     1      -6.288   3.956  25.769  0.00  0.00    -0.390 OA
ATOM     23  H   UNL     1      -6.015   4.740  26.276  0.00  0.00    +0.210 HD
ENDBRANCH  14   2
BRANCH   4  10
ATOM     10  C   UNL     1      -4.670  -0.310  24.446  0.00  0.00    +0.088 C 
BRANCH  10   7
ATOM      7  C   UNL     1      -3.917  -1.410  25.122  0.00  0.00    +0.003 C 
ATOM      8  C   UNL     1      -3.659  -2.687  24.379  0.00  0.00    +0.005 C 
ATOM      9  C   UNL     1      -2.528  -1.741  24.660  0.00  0.00    +0.005 C 
ENDBRANCH  10   7
ENDBRANCH   4  10
ENDBRANCH  15  11
TORSDOF 5
ENDMDL
MODEL 2
REMARK VINA RESULT:      -4.4      1.788      2.242
REMARK  Name = 26744421
REMARK  5 active torsions:
REMARK  status: ('A' for Active; 'I' for Inactive)
REMARK    1  A    between atoms: O_2  and  C_14
REMARK    2  A    between atoms: N_4  and  C_10
REMARK    3  A    between atoms: C_7  and  C_10
REMARK    4  A    between atoms: C_11  and  C_15
REMARK    5  A    between atoms: C_16  and  C_17
REMARK                            x       y       z     vdW  Elec       q    Type
REMARK                         _______ _______ _______ _____ _____    ______ ____
ROOT
ATOM      3  O   UNL     1      -0.881  -0.116  23.531  0.00  0.00    -0.336 OA
ATOM      5  N   UNL     1       0.651   1.512  23.676  0.00  0.00    -0.190 NA
ATOM      6  N   UNL     1       0.365  -0.738  23.377  0.00  0.00    -0.056 NA
ATOM     15  C   UNL     1      -0.621   1.207  23.702  0.00  0.00    +0.245 A 
ATOM     16  C   UNL     1       1.217   0.287  23.474  0.00  0.00    +0.202 A 
ENDROOT
BRANCH  16  17
ATOM      1  F   UNL     1       6.729  -0.356  23.080  0.00  0.00    -0.205 F 
ATOM     17  C   UNL     1       2.638   0.121  23.372  0.00  0.00    +0.023 A 
ATOM     18  C   UNL     1       3.430   1.166  22.896  0.00  0.00    +0.014 A 
ATOM     19  C   UNL     1       3.229  -1.084  23.751  0.00  0.00    +0.014 A 
ATOM     20  C   UNL     1       4.812   1.005  22.797  0.00  0.00    +0.039 A 
ATOM     21  C   UNL     1       4.611  -1.246  23.653  0.00  0.00    +0.039 A 
ATOM     22  C   UNL     1       5.402  -0.201  23.175  0.00  0.00    +0.123 A 
ENDBRANCH  16  17
BRANCH  15  11
ATOM      4  N   UNL     1      -2.894   1.470  24.683  0.00  0.00    -0.289 NA
ATOM     11  C   UNL     1      -1.822   2.110  23.894  0.00  0.00    +0.148 C 
ATOM     12  C   UNL     1      -3.595   2.546  25.380  0.00  0.00    +0.116 C 
ATOM     13  C   UNL     1      -1.481   3.398  24.665  0.00  0.00    +0.061 C 
ATOM     14  C   UNL     1      -2.443   3.417  25.846  0.00  0.00    +0.130 C 
BRANCH  14   2
ATOM      2  O   UNL     1      -2.865   4.738  26.129  0.00  0.00    -0.390 OA
ATOM     23  H   UNL     1      -3.795   4.694  26.409  0.00  0.00    +0.210 HD
ENDBRANCH  14   2
BRANCH   4  10
ATOM     10  C   UNL     1      -3.797   0.661  23.876  0.00  0.00    +0.088 C 
BRANCH  10   7
ATOM      7  C   UNL     1      -4.330  -0.500  24.653  0.00  0.00    +0.003 C 
ATOM      8  C   UNL     1      -3.917  -1.891  24.271  0.00  0.00    +0.005 C 
ATOM      9  C   UNL     1      -3.404  -1.277  25.541  0.00  0.00    +0.005 C 
ENDBRANCH  10   7
ENDBRANCH   4  10
ENDBRANCH  15  11
TORSDOF 5
ENDMDL
MODEL 3
REMARK VINA RESULT:      -4.3     19.413     20.037
REMARK  Name = 26744421
REMARK  5 active torsions:
REMARK  status: ('A' for Active; 'I' for Inactive)
REMARK    1  A    between atoms: O_2  and  C_14
REMARK    2  A    between atoms: N_4  and  C_10
REMARK    3  A    between atoms: C_7  and  C_10
REMARK    4  A    between atoms: C_11  and  C_15
REMARK    5  A    between atoms: C_16  and  C_17
REMARK                            x       y       z     vdW  Elec       q    Type
REMARK                         _______ _______ _______ _____ _____    ______ ____
ROOT
ATOM      3  O   UNL     1      16.831  -6.997  26.888  0.00  0.00    -0.336 OA
ATOM      5  N   UNL     1      17.246  -4.836  27.299  0.00  0.00    -0.190 NA
ATOM      6  N   UNL     1      16.816  -6.354  25.643  0.00  0.00    -0.056 NA
ATOM     15  C   UNL     1      17.091  -6.031  27.807  0.00  0.00    +0.245 A 
ATOM     16  C   UNL     1      17.069  -5.083  25.969  0.00  0.00    +0.202 A 
ENDROOT
BRANCH  16  17
ATOM      1  F   UNL     1      17.380  -1.025  22.176  0.00  0.00    -0.205 F 
ATOM     17  C   UNL     1      17.149  -4.037  24.992  0.00  0.00    +0.023 A 
ATOM     18  C   UNL     1      17.187  -4.353  23.633  0.00  0.00    +0.014 A 
ATOM     19  C   UNL     1      17.189  -2.704  25.398  0.00  0.00    +0.014 A 
ATOM     20  C   UNL     1      17.265  -3.335  22.682  0.00  0.00    +0.039 A 
ATOM     21  C   UNL     1      17.266  -1.686  24.447  0.00  0.00    +0.039 A 
ATOM     22  C   UNL     1      17.305  -2.002  23.089  0.00  0.00    +0.123 A 
ENDBRANCH  16  17
BRANCH  15  11
ATOM      4  N   UNL     1      16.321  -5.652  30.144  0.00  0.00    -0.289 NA
ATOM     11  C   UNL     1      17.161  -6.478  29.253  0.00  0.00    +0.148 C 
ATOM     12  C   UNL     1      15.905  -6.521  31.243  0.00  0.00    +0.116 C 
ATOM     13  C   UNL     1      16.653  -7.918  29.456  0.00  0.00    +0.061 C 
ATOM     14  C   UNL     1      15.561  -7.805  30.512  0.00  0.00    +0.130 C 
BRANCH  14   2
ATOM      2  O   UNL     1      15.582  -8.923  31.378  0.00  0.00    -0.390 OA
ATOM     23  H   UNL     1      14.690  -9.021  31.752  0.00  0.00    +0.210 HD
ENDBRANCH  14   2
BRANCH   4  10
ATOM     10  C   UNL     1      16.997  -4.452  30.620  0.00  0.00    +0.088 C 
BRANCH  10   7
ATOM      7  C   UNL     1      16.035  -3.321  30.796  0.00  0.00    +0.003 C 
ATOM      8  C   UNL     1      16.435  -2.143  31.636  0.00  0.00    +0.005 C 
ATOM      9  C   UNL     1      16.328  -2.001  30.145  0.00  0.00    +0.005 C 
ENDBRANCH  10   7
ENDBRANCH   4  10
ENDBRANCH  15  11
TORSDOF 5
ENDMDL
MODEL 4
REMARK VINA RESULT:      -3.6      1.710      3.133
REMARK  Name = 26744421
REMARK  5 active torsions:
REMARK  status: ('A' for Active; 'I' for Inactive)
REMARK    1  A    between atoms: O_2  and  C_14
REMARK    2  A    between atoms: N_4  and  C_10
REMARK    3  A    between atoms: C_7  and  C_10
REMARK    4  A    between atoms: C_11  and  C_15
REMARK    5  A    between atoms: C_16  and  C_17
REMARK                            x       y       z     vdW  Elec       q    Type
REMARK                         _______ _______ _______ _____ _____    ______ ____
ROOT
ATOM      3  O   UNL     1      -2.476  -0.620  24.990  0.00  0.00    -0.336 OA
ATOM      5  N   UNL     1      -1.419   1.292  24.498  0.00  0.00    -0.190 NA
ATOM      6  N   UNL     1      -1.271  -0.987  24.377  0.00  0.00    -0.056 NA
ATOM     15  C   UNL     1      -2.483   0.738  25.021  0.00  0.00    +0.245 A 
ATOM     16  C   UNL     1      -0.704   0.194  24.116  0.00  0.00    +0.202 A 
ENDROOT
BRANCH  16  17
ATOM      1  F   UNL     1       4.250   0.654  21.628  0.00  0.00    -0.205 F 
ATOM     17  C   UNL     1       0.572   0.313  23.475  0.00  0.00    +0.023 A 
ATOM     18  C   UNL     1       1.491   1.264  23.919  0.00  0.00    +0.014 A 
ATOM     19  C   UNL     1       0.897  -0.523  22.407  0.00  0.00    +0.014 A 
ATOM     20  C   UNL     1       2.734   1.379  23.295  0.00  0.00    +0.039 A 
ATOM     21  C   UNL     1       2.139  -0.409  21.783  0.00  0.00    +0.039 A 
ATOM     22  C   UNL     1       3.057   0.544  22.227  0.00  0.00    +0.123 A 
ENDBRANCH  16  17
BRANCH  15  11
ATOM      4  N   UNL     1      -3.770   2.841  25.370  0.00  0.00    -0.289 NA
ATOM     11  C   UNL     1      -3.698   1.392  25.647  0.00  0.00    +0.148 C 
ATOM     12  C   UNL     1      -5.189   3.192  25.362  0.00  0.00    +0.116 C 
ATOM     13  C   UNL     1      -5.024   0.822  25.109  0.00  0.00    +0.061 C 
ATOM     14  C   UNL     1      -5.792   2.032  24.592  0.00  0.00    +0.130 C 
BRANCH  14   2
ATOM      2  O   UNL     1      -7.176   1.895  24.848  0.00  0.00    -0.390 OA
ATOM     23  H   UNL     1      -7.276   1.277  25.593  0.00  0.00    +0.210 HD
ENDBRANCH  14   2
BRANCH   4  10
ATOM     10  C   UNL     1      -3.012   3.646  26.318  0.00  0.00    +0.088 C 
BRANCH  10   7
ATOM      7  C   UNL     1      -2.275   4.749  25.629  0.00  0.00    +0.003 C 
ATOM      8  C   UNL     1      -0.891   4.494  25.109  0.00  0.00    +0.005 C 
ATOM      9  C   UNL     1      -2.034   4.660  24.151  0.00  0.00    +0.005 C 
ENDBRANCH  10   7
ENDBRANCH   4  10
ENDBRANCH  15  11
TORSDOF 5
ENDMDL
MODEL 5
REMARK VINA RESULT:      -3.2      2.038      3.625
REMARK  Name = 26744421
REMARK  5 active torsions:
REMARK  status: ('A' for Active; 'I' for Inactive)
REMARK    1  A    between atoms: O_2  and  C_14
REMARK    2  A    between atoms: N_4  and  C_10
REMARK    3  A    between atoms: C_7  and  C_10
REMARK    4  A    between atoms: C_11  and  C_15
REMARK    5  A    between atoms: C_16  and  C_17
REMARK                            x       y       z     vdW  Elec       q    Type
REMARK                         _______ _______ _______ _____ _____    ______ ____
ROOT
ATOM      3  O   UNL     1      -1.011   0.923  23.518  0.00  0.00    -0.336 OA
ATOM      5  N   UNL     1       0.281  -0.737  24.285  0.00  0.00    -0.190 NA
ATOM      6  N   UNL     1       0.294   1.221  23.103  0.00  0.00    -0.056 NA
ATOM     15  C   UNL     1      -0.929  -0.245  24.207  0.00  0.00    +0.245 A 
ATOM     16  C   UNL     1       0.997   0.196  23.593  0.00  0.00    +0.202 A 
ENDROOT
BRANCH  16  17
ATOM      1  F   UNL     1       6.495  -0.271  22.890  0.00  0.00    -0.205 F 
ATOM     17  C   UNL     1       2.414   0.075  23.412  0.00  0.00    +0.023 A 
ATOM     18  C   UNL     1       3.141   1.137  22.875  0.00  0.00    +0.014 A 
ATOM     19  C   UNL     1       3.066  -1.103  23.773  0.00  0.00    +0.014 A 
ATOM     20  C   UNL     1       4.520   1.020  22.698  0.00  0.00    +0.039 A 
ATOM     21  C   UNL     1       4.445  -1.220  23.598  0.00  0.00    +0.039 A 
ATOM     22  C   UNL     1       5.171  -0.159  23.059  0.00  0.00    +0.123 A 
ENDBRANCH  16  17
BRANCH  15  11
ATOM      4  N   UNL     1      -3.401   0.010  24.362  0.00  0.00    -0.289 NA
ATOM     11  C   UNL     1      -2.227  -0.789  24.768  0.00  0.00    +0.148 C 
ATOM     12  C   UNL     1      -4.534  -0.911  24.318  0.00  0.00    +0.116 C 
ATOM     13  C   UNL     1      -2.534  -2.217  24.279  0.00  0.00    +0.061 C 
ATOM     14  C   UNL     1      -3.920  -2.129  23.653  0.00  0.00    +0.130 C 
BRANCH  14   2
ATOM      2  O   UNL     1      -4.665  -3.303  23.917  0.00  0.00    -0.390 OA
ATOM     23  H   UNL     1      -4.347  -3.993  23.310  0.00  0.00    +0.210 HD
ENDBRANCH  14   2
BRANCH   4  10
ATOM     10  C   UNL     1      -3.652   1.147  25.237  0.00  0.00    +0.088 C 
BRANCH  10   7
ATOM      7  C   UNL     1      -4.520   2.165  24.571  0.00  0.00    +0.003 C 
ATOM      8  C   UNL     1      -4.783   3.471  25.262  0.00  0.00    +0.005 C 
ATOM      9  C   UNL     1      -3.902   3.428  24.048  0.00  0.00    +0.005 C 
ENDBRANCH  10   7
ENDBRANCH   4  10
ENDBRANCH  15  11
TORSDOF 5
ENDMDL
MODEL 6
REMARK VINA RESULT:      -3.1      1.426      2.004
REMARK  Name = 26744421
REMARK  5 active torsions:
REMARK  status: ('A' for Active; 'I' for Inactive)
REMARK    1  A    between atoms: O_2  and  C_14
REMARK    2  A    between atoms: N_4  and  C_10
REMARK    3  A    between atoms: C_7  and  C_10
REMARK    4  A    between atoms: C_11  and  C_15
REMARK    5  A    between atoms: C_16  and  C_17
REMARK                            x       y       z     vdW  Elec       q    Type
REMARK                         _______ _______ _______ _____ _____    ______ ____
ROOT
ATOM      3  O   UNL     1      -0.602   2.254  24.096  0.00  0.00    -0.336 OA
ATOM      5  N   UNL     1       0.065   0.180  23.577  0.00  0.00    -0.190 NA
ATOM      6  N   UNL     1       0.791   2.315  23.960  0.00  0.00    -0.056 NA
ATOM     15  C   UNL     1      -0.947   0.962  23.853  0.00  0.00    +0.245 A 
ATOM     16  C   UNL     1       1.110   1.054  23.654  0.00  0.00    +0.202 A 
ENDROOT
BRANCH  16  17
ATOM      1  F   UNL     1       6.352  -0.573  22.751  0.00  0.00    -0.205 F 
ATOM     17  C   UNL     1       2.461   0.634  23.421  0.00  0.00    +0.023 A 
ATOM     18  C   UNL     1       2.839  -0.682  23.686  0.00  0.00    +0.014 A 
ATOM     19  C   UNL     1       3.398   1.542  22.929  0.00  0.00    +0.014 A 
ATOM     20  C   UNL     1       4.153  -1.090  23.459  0.00  0.00    +0.039 A 
ATOM     21  C   UNL     1       4.713   1.135  22.702  0.00  0.00    +0.039 A 
ATOM     22  C   UNL     1       5.090  -0.182  22.968  0.00  0.00    +0.123 A 
ENDBRANCH  16  17
BRANCH  15  11
ATOM      4  N   UNL     1      -2.837   0.223  25.296  0.00  0.00    -0.289 NA
ATOM     11  C   UNL     1      -2.423   0.631  23.938  0.00  0.00    +0.148 C 
ATOM     12  C   UNL     1      -4.237   0.617  25.438  0.00  0.00    +0.116 C 
ATOM     13  C   UNL     1      -3.323   1.833  23.596  0.00  0.00    +0.061 C 
ATOM     14  C   UNL     1      -4.239   1.995  24.803  0.00  0.00    +0.130 C 
BRANCH  14   2
ATOM      2  O   UNL     1      -5.537   2.385  24.399  0.00  0.00    -0.390 OA
ATOM     23  H   UNL     1      -5.822   3.105  24.986  0.00  0.00    +0.210 HD
ENDBRANCH  14   2
BRANCH   4  10
ATOM     10  C   UNL     1      -2.639  -1.197  25.555  0.00  0.00    +0.088 C 
BRANCH  10   7
ATOM      7  C   UNL     1      -3.829  -1.998  25.135  0.00  0.00    +0.003 C 
ATOM      8  C   UNL     1      -4.196  -2.060  23.682  0.00  0.00    +0.005 C 
ATOM      9  C   UNL     1      -3.624  -3.268  24.364  0.00  0.00    +0.005 C 
ENDBRANCH  10   7
ENDBRANCH   4  10
ENDBRANCH  15  11
TORSDOF 5
ENDMDL
MODEL 7
REMARK VINA RESULT:      -2.7      2.189      3.748
REMARK  Name = 26744421
REMARK  5 active torsions:
REMARK  status: ('A' for Active; 'I' for Inactive)
REMARK    1  A    between atoms: O_2  and  C_14
REMARK    2  A    between atoms: N_4  and  C_10
REMARK    3  A    between atoms: C_7  and  C_10
REMARK    4  A    between atoms: C_11  and  C_15
REMARK    5  A    between atoms: C_16  and  C_17
REMARK                            x       y       z     vdW  Elec       q    Type
REMARK                         _______ _______ _______ _____ _____    ______ ____
ROOT
ATOM      3  O   UNL     1      -0.582  -0.043  22.640  0.00  0.00    -0.336 OA
ATOM      5  N   UNL     1       0.778   0.689  24.262  0.00  0.00    -0.190 NA
ATOM      6  N   UNL     1       0.720  -0.365  22.233  0.00  0.00    -0.056 NA
ATOM     15  C   UNL     1      -0.457   0.575  23.844  0.00  0.00    +0.245 A 
ATOM     16  C   UNL     1       1.464   0.098  23.242  0.00  0.00    +0.202 A 
ENDROOT
BRANCH  16  17
ATOM      1  F   UNL     1       7.010  -0.327  23.310  0.00  0.00    -0.205 F 
ATOM     17  C   UNL     1       2.893  -0.012  23.259  0.00  0.00    +0.023 A 
ATOM     18  C   UNL     1       3.680   1.054  22.824  0.00  0.00    +0.014 A 
ATOM     19  C   UNL     1       3.498  -1.184  23.713  0.00  0.00    +0.014 A 
ATOM     20  C   UNL     1       5.071   0.948  22.841  0.00  0.00    +0.039 A 
ATOM     21  C   UNL     1       4.888  -1.290  23.731  0.00  0.00    +0.039 A 
ATOM     22  C   UNL     1       5.675  -0.224  23.294  0.00  0.00    +0.123 A 
ENDBRANCH  16  17
BRANCH  15  11
ATOM      4  N   UNL     1      -2.597   1.824  23.602  0.00  0.00    -0.289 NA
ATOM     11  C   UNL     1      -1.742   1.027  24.506  0.00  0.00    +0.148 C 
ATOM     12  C   UNL     1      -3.976   1.592  24.024  0.00  0.00    +0.116 C 
ATOM     13  C   UNL     1      -2.629  -0.150  24.950  0.00  0.00    +0.061 C 
ATOM     14  C   UNL     1      -3.976   0.097  24.282  0.00  0.00    +0.130 C 
BRANCH  14   2
ATOM      2  O   UNL     1      -5.037  -0.290  25.133  0.00  0.00    -0.390 OA
ATOM     23  H   UNL     1      -5.863  -0.211  24.625  0.00  0.00    +0.210 HD
ENDBRANCH  14   2
BRANCH   4  10
ATOM     10  C   UNL     1      -2.258   3.241  23.591  0.00  0.00    +0.088 C 
BRANCH  10   7
ATOM      7  C   UNL     1      -1.680   3.672  24.901  0.00  0.00    +0.003 C 
ATOM      8  C   UNL     1      -1.330   5.116  25.108  0.00  0.00    +0.005 C 
ATOM      9  C   UNL     1      -2.506   4.518  25.824  0.00  0.00    +0.005 C 
ENDBRANCH  10   7
ENDBRANCH   4  10
ENDBRANCH  15  11
TORSDOF 5
ENDMDL
MODEL 8
REMARK VINA RESULT:      -2.3     18.125     20.095
REMARK  Name = 26744421
REMARK  5 active torsions:
REMARK  status: ('A' for Active; 'I' for Inactive)
REMARK    1  A    between atoms: O_2  and  C_14
REMARK    2  A    between atoms: N_4  and  C_10
REMARK    3  A    between atoms: C_7  and  C_10
REMARK    4  A    between atoms: C_11  and  C_15
REMARK    5  A    between atoms: C_16  and  C_17
REMARK                            x       y       z     vdW  Elec       q    Type
REMARK                         _______ _______ _______ _____ _____    ______ ____
ROOT
ATOM      3  O   UNL     1      15.018  -7.281  29.097  0.00  0.00    -0.336 OA
ATOM      5  N   UNL     1      16.986  -6.370  28.536  0.00  0.00    -0.190 NA
ATOM      6  N   UNL     1      14.892  -6.871  27.763  0.00  0.00    -0.056 NA
ATOM     15  C   UNL     1      16.280  -6.949  29.474  0.00  0.00    +0.245 A 
ATOM     16  C   UNL     1      16.093  -6.343  27.506  0.00  0.00    +0.202 A 
ENDROOT
BRANCH  16  17
ATOM      1  F   UNL     1      17.404  -4.161  22.559  0.00  0.00    -0.205 F 
ATOM     17  C   UNL     1      16.431  -5.781  26.231  0.00  0.00    +0.023 A 
ATOM     18  C   UNL     1      16.436  -4.397  26.057  0.00  0.00    +0.014 A 
ATOM     19  C   UNL     1      16.756  -6.617  25.163  0.00  0.00    +0.014 A 
ATOM     20  C   UNL     1      16.765  -3.850  24.817  0.00  0.00    +0.039 A 
ATOM     21  C   UNL     1      17.085  -6.071  23.923  0.00  0.00    +0.039 A 
ATOM     22  C   UNL     1      17.088  -4.686  23.750  0.00  0.00    +0.123 A 
ENDBRANCH  16  17
BRANCH  15  11
ATOM      4  N   UNL     1      15.516  -7.306  31.817  0.00  0.00    -0.289 NA
ATOM     11  C   UNL     1      16.671  -7.295  30.896  0.00  0.00    +0.148 C 
ATOM     12  C   UNL     1      15.830  -8.275  32.865  0.00  0.00    +0.116 C 
ATOM     13  C   UNL     1      17.287  -8.701  31.020  0.00  0.00    +0.061 C 
ATOM     14  C   UNL     1      16.437  -9.413  32.065  0.00  0.00    +0.130 C 
BRANCH  14   2
ATOM      2  O   UNL     1      17.236 -10.255  32.873  0.00  0.00    -0.390 OA
ATOM     23  H   UNL     1      17.313 -11.110  32.417  0.00  0.00    +0.210 HD
ENDBRANCH  14   2
BRANCH   4  10
ATOM     10  C   UNL     1      15.203  -5.992  32.362  0.00  0.00    +0.088 C 
BRANCH  10   7
ATOM      7  C   UNL     1      13.728  -5.807  32.523  0.00  0.00    +0.003 C 
ATOM      8  C   UNL     1      13.099  -4.516  32.087  0.00  0.00    +0.005 C 
ATOM      9  C   UNL     1      12.855  -5.772  31.303  0.00  0.00    +0.005 C 
ENDBRANCH  10   7
ENDBRANCH   4  10
ENDBRANCH  15  11
TORSDOF 5
ENDMDL
MODEL 9
REMARK VINA RESULT:      -1.6      3.436      6.641
REMARK  Name = 26744421
REMARK  5 active torsions:
REMARK  status: ('A' for Active; 'I' for Inactive)
REMARK    1  A    between atoms: O_2  and  C_14
REMARK    2  A    between atoms: N_4  and  C_10
REMARK    3  A    between atoms: C_7  and  C_10
REMARK    4  A    between atoms: C_11  and  C_15
REMARK    5  A    between atoms: C_16  and  C_17
REMARK                            x       y       z     vdW  Elec       q    Type
REMARK                         _______ _______ _______ _____ _____    ______ ____
ROOT
ATOM      3  O   UNL     1       0.363   2.364  25.783  0.00  0.00    -0.336 OA
ATOM      5  N   UNL     1      -1.418   1.607  24.656  0.00  0.00    -0.190 NA
ATOM      6  N   UNL     1      -0.708   3.193  26.144  0.00  0.00    -0.056 NA
ATOM     15  C   UNL     1      -0.142   1.459  24.905  0.00  0.00    +0.245 A 
ATOM     16  C   UNL     1      -1.722   2.682  25.438  0.00  0.00    +0.202 A 
ENDROOT
BRANCH  16  17
ATOM      1  F   UNL     1      -6.869   4.784  25.643  0.00  0.00    -0.205 F 
ATOM     17  C   UNL     1      -3.048   3.224  25.491  0.00  0.00    +0.023 A 
ATOM     18  C   UNL     1      -4.138   2.439  25.114  0.00  0.00    +0.014 A 
ATOM     19  C   UNL     1      -3.250   4.536  25.920  0.00  0.00    +0.014 A 
ATOM     20  C   UNL     1      -5.429   2.966  25.166  0.00  0.00    +0.039 A 
ATOM     21  C   UNL     1      -4.540   5.063  25.972  0.00  0.00    +0.039 A 
ATOM     22  C   UNL     1      -5.629   4.278  25.593  0.00  0.00    +0.123 A 
ENDBRANCH  16  17
BRANCH  15  11
ATOM      4  N   UNL     1       0.186  -0.540  23.457  0.00  0.00    -0.289 NA
ATOM     11  C   UNL     1       0.832   0.434  24.360  0.00  0.00    +0.148 C 
ATOM     12  C   UNL     1       1.208  -0.961  22.501  0.00  0.00    +0.116 C 
ATOM     13  C   UNL     1       1.953   1.069  23.516  0.00  0.00    +0.061 C 
ATOM     14  C   UNL     1       1.887   0.355  22.172  0.00  0.00    +0.130 C 
BRANCH  14   2
ATOM      2  O   UNL     1       3.185   0.159  21.644  0.00  0.00    -0.390 OA
ATOM     23  H   UNL     1       3.211   0.580  20.768  0.00  0.00    +0.210 HD
ENDBRANCH  14   2
BRANCH   4  10
ATOM     10  C   UNL     1      -0.406  -1.670  24.160  0.00  0.00    +0.088 C 
BRANCH  10   7
ATOM      7  C   UNL     1      -1.899  -1.636  24.086  0.00  0.00    +0.003 C 
ATOM      8  C   UNL     1      -2.685  -2.802  24.609  0.00  0.00    +0.005 C 
ATOM      9  C   UNL     1      -2.693  -1.497  25.351  0.00  0.00    +0.005 C 
ENDBRANCH  10   7
ENDBRANCH   4  10
ENDBRANCH  15  11
TORSDOF 5
ENDMDL
