MODEL 1
REMARK VINA RESULT:      -6.2      0.000      0.000
REMARK  Name = 75536112
REMARK  7 active torsions:
REMARK  status: ('A' for Active; 'I' for Inactive)
REMARK    1  A    between atoms: O_1  and  C_8
REMARK    2  A    between atoms: O_2  and  C_10
REMARK    3  A    between atoms: N_3  and  C_6
REMARK    4  A    between atoms: N_3  and  C_12
REMARK    5  A    between atoms: C_7  and  C_11
REMARK    6  A    between atoms: C_12  and  C_15
REMARK    7  A    between atoms: C_20  and  C_23
REMARK                            x       y       z     vdW  Elec       q    Type
REMARK                         _______ _______ _______ _____ _____    ______ ____
ROOT
ATOM      6  C   UNL     1      -3.566   2.437  25.037  0.00  0.00    +0.093 C 
ATOM      7  C   UNL     1      -4.479   1.431  24.300  0.00  0.00    +0.042 C 
ATOM      8  C   UNL     1      -4.467   3.658  25.217  0.00  0.00    +0.160 C 
ATOM      9  C   UNL     1      -5.929   1.827  24.687  0.00  0.00    +0.043 C 
ATOM     10  C   UNL     1      -5.800   3.034  25.619  0.00  0.00    +0.145 C 
ENDROOT
BRANCH   7  11
ATOM      4  N   UNL     1      -3.384  -1.678  26.178  0.00  0.00    -0.263 NA
ATOM     11  C   UNL     1      -4.133  -0.014  24.593  0.00  0.00    -0.025 A 
ATOM     13  C   UNL     1      -4.233  -0.989  23.606  0.00  0.00    +0.007 A 
ATOM     14  C   UNL     1      -3.708  -0.407  25.852  0.00  0.00    +0.114 A 
ATOM     16  C   UNL     1      -3.908  -2.307  23.905  0.00  0.00    +0.020 A 
ATOM     17  C   UNL     1      -3.492  -2.597  25.194  0.00  0.00    +0.111 A 
ENDBRANCH   7  11
BRANCH   8   1
ATOM      1  O   UNL     1      -3.969   4.533  26.211  0.00  0.00    -0.388 OA
ATOM     25  H   UNL     1      -3.301   4.044  26.720  0.00  0.00    +0.210 HD
ENDBRANCH   8   1
BRANCH  10   2
ATOM      2  O   UNL     1      -5.746   2.586  26.971  0.00  0.00    -0.389 OA
ATOM     26  H   UNL     1      -4.890   2.144  27.098  0.00  0.00    +0.210 HD
ENDBRANCH  10   2
BRANCH   6   3
ATOM      3  N   UNL     1      -2.368   2.756  24.269  0.00  0.00    -0.306 NA
ATOM     24  H   UNL     1      -2.352   2.184  23.424  0.00  0.00    +0.123 HD
BRANCH   3  12
ATOM     12  C   UNL     1      -1.166   2.482  25.043  0.00  0.00    +0.116 C 
BRANCH  12  15
ATOM     15  C   UNL     1      -0.352   1.370  24.438  0.00  0.00    -0.032 A 
ATOM     18  C   UNL     1       0.927   1.628  23.945  0.00  0.00    +0.023 A 
ATOM     19  C   UNL     1      -0.877   0.079  24.373  0.00  0.00    +0.005 A 
ATOM     20  C   UNL     1       1.682   0.596  23.386  0.00  0.00    +0.052 A 
ATOM     21  C   UNL     1      -0.123  -0.954  23.815  0.00  0.00    +0.002 A 
ATOM     22  C   UNL     1       1.156  -0.695  23.321  0.00  0.00    +0.019 A 
BRANCH  20  23
ATOM      5  N   UNL     1       4.056   1.074  22.472  0.00  0.00    -0.191 NA
ATOM     23  C   UNL     1       2.991   0.860  22.882  0.00  0.00    +0.099 C 
ENDBRANCH  20  23
ENDBRANCH  12  15
ENDBRANCH   3  12
ENDBRANCH   6   3
TORSDOF 7
ENDMDL
MODEL 2
REMARK VINA RESULT:      -5.2      1.360      2.064
REMARK  Name = 75536112
REMARK  7 active torsions:
REMARK  status: ('A' for Active; 'I' for Inactive)
REMARK    1  A    between atoms: O_1  and  C_8
REMARK    2  A    between atoms: O_2  and  C_10
REMARK    3  A    between atoms: N_3  and  C_6
REMARK    4  A    between atoms: N_3  and  C_12
REMARK    5  A    between atoms: C_7  and  C_11
REMARK    6  A    between atoms: C_12  and  C_15
REMARK    7  A    between atoms: C_20  and  C_23
REMARK                            x       y       z     vdW  Elec       q    Type
REMARK                         _______ _______ _______ _____ _____    ______ ____
ROOT
ATOM      6  C   UNL     1      -4.602   2.568  24.730  0.00  0.00    +0.093 C 
ATOM      7  C   UNL     1      -5.160   1.171  24.377  0.00  0.00    +0.042 C 
ATOM      8  C   UNL     1      -5.853   3.354  25.120  0.00  0.00    +0.160 C 
ATOM      9  C   UNL     1      -6.480   1.036  25.182  0.00  0.00    +0.043 C 
ATOM     10  C   UNL     1      -6.634   2.346  25.958  0.00  0.00    +0.145 C 
ENDROOT
BRANCH   7  11
ATOM      4  N   UNL     1      -2.195  -0.742  25.769  0.00  0.00    -0.263 NA
ATOM     11  C   UNL     1      -4.168   0.053  24.622  0.00  0.00    -0.025 A 
ATOM     13  C   UNL     1      -4.289  -1.168  23.967  0.00  0.00    +0.007 A 
ATOM     14  C   UNL     1      -3.113   0.214  25.505  0.00  0.00    +0.114 A 
ATOM     16  C   UNL     1      -3.363  -2.176  24.213  0.00  0.00    +0.020 A 
ATOM     17  C   UNL     1      -2.344  -1.915  25.114  0.00  0.00    +0.111 A 
ENDBRANCH   7  11
BRANCH   8   1
ATOM      1  O   UNL     1      -5.530   4.519  25.856  0.00  0.00    -0.388 OA
ATOM     25  H   UNL     1      -6.302   4.739  26.405  0.00  0.00    +0.210 HD
ENDBRANCH   8   1
BRANCH  10   2
ATOM      2  O   UNL     1      -6.037   2.209  27.245  0.00  0.00    -0.389 OA
ATOM     26  H   UNL     1      -6.607   2.672  27.882  0.00  0.00    +0.210 HD
ENDBRANCH  10   2
BRANCH   6   3
ATOM      3  N   UNL     1      -3.906   3.182  23.605  0.00  0.00    -0.306 NA
ATOM     24  H   UNL     1      -3.517   2.447  23.013  0.00  0.00    +0.123 HD
BRANCH   3  12
ATOM     12  C   UNL     1      -2.820   4.035  24.068  0.00  0.00    +0.116 C 
BRANCH  12  15
ATOM     15  C   UNL     1      -1.653   3.231  24.575  0.00  0.00    -0.032 A 
ATOM     18  C   UNL     1      -1.047   2.283  23.751  0.00  0.00    +0.023 A 
ATOM     19  C   UNL     1      -1.178   3.435  25.870  0.00  0.00    +0.005 A 
ATOM     20  C   UNL     1       0.036   1.539  24.222  0.00  0.00    +0.052 A 
ATOM     21  C   UNL     1      -0.095   2.692  26.342  0.00  0.00    +0.002 A 
ATOM     22  C   UNL     1       0.511   1.743  25.518  0.00  0.00    +0.019 A 
BRANCH  20  23
ATOM      5  N   UNL     1       1.163  -0.220  22.692  0.00  0.00    -0.191 NA
ATOM     23  C   UNL     1       0.657   0.568  23.378  0.00  0.00    +0.099 C 
ENDBRANCH  20  23
ENDBRANCH  12  15
ENDBRANCH   3  12
ENDBRANCH   6   3
TORSDOF 7
ENDMDL
MODEL 3
REMARK VINA RESULT:      -4.8      2.738      5.573
REMARK  Name = 75536112
REMARK  7 active torsions:
REMARK  status: ('A' for Active; 'I' for Inactive)
REMARK    1  A    between atoms: O_1  and  C_8
REMARK    2  A    between atoms: O_2  and  C_10
REMARK    3  A    between atoms: N_3  and  C_6
REMARK    4  A    between atoms: N_3  and  C_12
REMARK    5  A    between atoms: C_7  and  C_11
REMARK    6  A    between atoms: C_12  and  C_15
REMARK    7  A    between atoms: C_20  and  C_23
REMARK                            x       y       z     vdW  Elec       q    Type
REMARK                         _______ _______ _______ _____ _____    ______ ____
ROOT
ATOM      6  C   UNL     1      -0.256   0.639  24.743  0.00  0.00    +0.093 C 
ATOM      7  C   UNL     1      -0.465  -0.891  24.664  0.00  0.00    +0.042 C 
ATOM      8  C   UNL     1       1.160   0.826  24.201  0.00  0.00    +0.160 C 
ATOM      9  C   UNL     1       0.480  -1.379  23.533  0.00  0.00    +0.043 C 
ATOM     10  C   UNL     1       1.192  -0.129  23.012  0.00  0.00    +0.145 C 
ENDROOT
BRANCH   7  11
ATOM      4  N   UNL     1      -3.578  -3.035  24.348  0.00  0.00    -0.263 NA
ATOM     11  C   UNL     1      -1.914  -1.286  24.473  0.00  0.00    -0.025 A 
ATOM     13  C   UNL     1      -2.896  -0.325  24.256  0.00  0.00    +0.007 A 
ATOM     14  C   UNL     1      -2.303  -2.615  24.511  0.00  0.00    +0.114 A 
ATOM     16  C   UNL     1      -4.218  -0.719  24.084  0.00  0.00    +0.020 A 
ATOM     17  C   UNL     1      -4.504  -2.073  24.138  0.00  0.00    +0.111 A 
ENDBRANCH   7  11
BRANCH   8   1
ATOM      1  O   UNL     1       1.399   2.165  23.813  0.00  0.00    -0.388 OA
ATOM     25  H   UNL     1       0.805   2.362  23.069  0.00  0.00    +0.210 HD
ENDBRANCH   8   1
BRANCH  10   2
ATOM      2  O   UNL     1       0.454   0.417  21.922  0.00  0.00    -0.389 OA
ATOM     26  H   UNL     1       1.087   0.616  21.211  0.00  0.00    +0.210 HD
ENDBRANCH  10   2
BRANCH   6   3
ATOM      3  N   UNL     1      -0.384   1.141  26.107  0.00  0.00    -0.306 NA
ATOM     24  H   UNL     1      -1.314   0.912  26.459  0.00  0.00    +0.123 HD
BRANCH   3  12
ATOM     12  C   UNL     1      -0.210   2.585  26.148  0.00  0.00    +0.116 C 
BRANCH  12  15
ATOM     15  C   UNL     1      -1.427   3.312  25.643  0.00  0.00    -0.032 A 
ATOM     18  C   UNL     1      -2.669   2.678  25.644  0.00  0.00    +0.023 A 
ATOM     19  C   UNL     1      -1.313   4.621  25.176  0.00  0.00    +0.005 A 
ATOM     20  C   UNL     1      -3.798   3.352  25.176  0.00  0.00    +0.052 A 
ATOM     21  C   UNL     1      -2.442   5.297  24.710  0.00  0.00    +0.002 A 
ATOM     22  C   UNL     1      -3.683   4.662  24.709  0.00  0.00    +0.019 A 
BRANCH  20  23
ATOM      5  N   UNL     1      -6.105   2.175  25.177  0.00  0.00    -0.191 NA
ATOM     23  C   UNL     1      -5.070   2.703  25.177  0.00  0.00    +0.099 C 
ENDBRANCH  20  23
ENDBRANCH  12  15
ENDBRANCH   3  12
ENDBRANCH   6   3
TORSDOF 7
ENDMDL
MODEL 4
REMARK VINA RESULT:      -4.4      2.617      4.533
REMARK  Name = 75536112
REMARK  7 active torsions:
REMARK  status: ('A' for Active; 'I' for Inactive)
REMARK    1  A    between atoms: O_1  and  C_8
REMARK    2  A    between atoms: O_2  and  C_10
REMARK    3  A    between atoms: N_3  and  C_6
REMARK    4  A    between atoms: N_3  and  C_12
REMARK    5  A    between atoms: C_7  and  C_11
REMARK    6  A    between atoms: C_12  and  C_15
REMARK    7  A    between atoms: C_20  and  C_23
REMARK                            x       y       z     vdW  Elec       q    Type
REMARK                         _______ _______ _______ _____ _____    ______ ____
ROOT
ATOM      6  C   UNL     1      -1.637   2.240  24.107  0.00  0.00    +0.093 C 
ATOM      7  C   UNL     1      -2.428   3.511  24.492  0.00  0.00    +0.042 C 
ATOM      8  C   UNL     1      -0.182   2.662  24.308  0.00  0.00    +0.160 C 
ATOM      9  C   UNL     1      -1.511   4.289  25.472  0.00  0.00    +0.043 C 
ATOM     10  C   UNL     1      -0.239   3.450  25.612  0.00  0.00    +0.145 C 
ENDROOT
BRANCH   7  11
ATOM      4  N   UNL     1      -5.965   4.030  25.761  0.00  0.00    -0.263 NA
ATOM     11  C   UNL     1      -3.808   3.212  25.040  0.00  0.00    -0.025 A 
ATOM     13  C   UNL     1      -4.198   1.908  25.325  0.00  0.00    +0.007 A 
ATOM     14  C   UNL     1      -4.720   4.228  25.273  0.00  0.00    +0.114 A 
ATOM     16  C   UNL     1      -5.472   1.665  25.828  0.00  0.00    +0.020 A 
ATOM     17  C   UNL     1      -6.309   2.749  26.026  0.00  0.00    +0.111 A 
ENDBRANCH   7  11
BRANCH   8   1
ATOM      1  O   UNL     1       0.678   1.543  24.400  0.00  0.00    -0.388 OA
ATOM     25  H   UNL     1       1.433   1.708  23.809  0.00  0.00    +0.210 HD
ENDBRANCH   8   1
BRANCH  10   2
ATOM      2  O   UNL     1      -0.376   2.562  26.718  0.00  0.00    -0.389 OA
ATOM     26  H   UNL     1      -0.457   3.105  27.521  0.00  0.00    +0.210 HD
ENDBRANCH  10   2
BRANCH   6   3
ATOM      3  N   UNL     1      -1.897   1.827  22.732  0.00  0.00    -0.306 NA
ATOM     24  H   UNL     1      -1.979   2.657  22.145  0.00  0.00    +0.123 HD
BRANCH   3  12
ATOM     12  C   UNL     1      -3.135   1.066  22.643  0.00  0.00    +0.116 C 
BRANCH  12  15
ATOM     15  C   UNL     1      -3.051  -0.232  23.401  0.00  0.00    -0.032 A 
ATOM     18  C   UNL     1      -1.842  -0.632  23.969  0.00  0.00    +0.023 A 
ATOM     19  C   UNL     1      -4.184  -1.034  23.535  0.00  0.00    +0.005 A 
ATOM     20  C   UNL     1      -1.765  -1.836  24.672  0.00  0.00    +0.052 A 
ATOM     21  C   UNL     1      -4.109  -2.237  24.239  0.00  0.00    +0.002 A 
ATOM     22  C   UNL     1      -2.899  -2.637  24.806  0.00  0.00    +0.019 A 
BRANCH  20  23
ATOM      5  N   UNL     1       0.479  -2.579  25.729  0.00  0.00    -0.191 NA
ATOM     23  C   UNL     1      -0.528  -2.246  25.255  0.00  0.00    +0.099 C 
ENDBRANCH  20  23
ENDBRANCH  12  15
ENDBRANCH   3  12
ENDBRANCH   6   3
TORSDOF 7
ENDMDL
MODEL 5
REMARK VINA RESULT:      -4.3      1.665      2.250
REMARK  Name = 75536112
REMARK  7 active torsions:
REMARK  status: ('A' for Active; 'I' for Inactive)
REMARK    1  A    between atoms: O_1  and  C_8
REMARK    2  A    between atoms: O_2  and  C_10
REMARK    3  A    between atoms: N_3  and  C_6
REMARK    4  A    between atoms: N_3  and  C_12
REMARK    5  A    between atoms: C_7  and  C_11
REMARK    6  A    between atoms: C_12  and  C_15
REMARK    7  A    between atoms: C_20  and  C_23
REMARK                            x       y       z     vdW  Elec       q    Type
REMARK                         _______ _______ _______ _____ _____    ______ ____
ROOT
ATOM      6  C   UNL     1      -3.915   2.554  25.298  0.00  0.00    +0.093 C 
ATOM      7  C   UNL     1      -4.694   1.542  24.428  0.00  0.00    +0.042 C 
ATOM      8  C   UNL     1      -4.919   3.690  25.494  0.00  0.00    +0.160 C 
ATOM      9  C   UNL     1      -6.194   1.802  24.732  0.00  0.00    +0.043 C 
ATOM     10  C   UNL     1      -6.224   2.942  25.751  0.00  0.00    +0.145 C 
ENDROOT
BRANCH   7  11
ATOM      4  N   UNL     1      -3.848  -2.088  23.723  0.00  0.00    -0.263 NA
ATOM     11  C   UNL     1      -4.258   0.108  24.645  0.00  0.00    -0.025 A 
ATOM     13  C   UNL     1      -3.877  -0.342  25.905  0.00  0.00    +0.007 A 
ATOM     14  C   UNL     1      -4.226  -0.797  23.596  0.00  0.00    +0.114 A 
ATOM     16  C   UNL     1      -3.482  -1.664  26.074  0.00  0.00    +0.020 A 
ATOM     17  C   UNL     1      -3.485  -2.489  24.961  0.00  0.00    +0.111 A 
ENDBRANCH   7  11
BRANCH   8   1
ATOM      1  O   UNL     1      -4.561   4.523  26.580  0.00  0.00    -0.388 OA
ATOM     25  H   UNL     1      -3.826   4.090  27.047  0.00  0.00    +0.210 HD
ENDBRANCH   8   1
BRANCH  10   2
ATOM      2  O   UNL     1      -6.229   2.401  27.070  0.00  0.00    -0.389 OA
ATOM     26  H   UNL     1      -5.352   2.014  27.230  0.00  0.00    +0.210 HD
ENDBRANCH  10   2
BRANCH   6   3
ATOM      3  N   UNL     1      -2.696   3.016  24.645  0.00  0.00    -0.306 NA
ATOM     24  H   UNL     1      -2.622   2.574  23.728  0.00  0.00    +0.123 HD
BRANCH   3  12
ATOM     12  C   UNL     1      -1.521   2.664  25.429  0.00  0.00    +0.116 C 
BRANCH  12  15
ATOM     15  C   UNL     1      -0.714   1.575  24.774  0.00  0.00    -0.032 A 
ATOM     18  C   UNL     1      -0.772   0.271  25.265  0.00  0.00    +0.023 A 
ATOM     19  C   UNL     1       0.091   1.872  23.674  0.00  0.00    +0.005 A 
ATOM     20  C   UNL     1      -0.025  -0.738  24.656  0.00  0.00    +0.052 A 
ATOM     21  C   UNL     1       0.838   0.863  23.064  0.00  0.00    +0.002 A 
ATOM     22  C   UNL     1       0.780  -0.441  23.556  0.00  0.00    +0.019 A 
BRANCH  20  23
ATOM      5  N   UNL     1      -0.133  -3.160  25.565  0.00  0.00    -0.191 NA
ATOM     23  C   UNL     1      -0.084  -2.074  25.158  0.00  0.00    +0.099 C 
ENDBRANCH  20  23
ENDBRANCH  12  15
ENDBRANCH   3  12
ENDBRANCH   6   3
TORSDOF 7
ENDMDL
MODEL 6
REMARK VINA RESULT:      -4.3     13.466     15.699
REMARK  Name = 75536112
REMARK  7 active torsions:
REMARK  status: ('A' for Active; 'I' for Inactive)
REMARK    1  A    between atoms: O_1  and  C_8
REMARK    2  A    between atoms: O_2  and  C_10
REMARK    3  A    between atoms: N_3  and  C_6
REMARK    4  A    between atoms: N_3  and  C_12
REMARK    5  A    between atoms: C_7  and  C_11
REMARK    6  A    between atoms: C_12  and  C_15
REMARK    7  A    between atoms: C_20  and  C_23
REMARK                            x       y       z     vdW  Elec       q    Type
REMARK                         _______ _______ _______ _____ _____    ______ ____
ROOT
ATOM      6  C   UNL     1      -8.416  -9.091  15.950  0.00  0.00    +0.093 C 
ATOM      7  C   UNL     1      -8.616 -10.218  16.989  0.00  0.00    +0.042 C 
ATOM      8  C   UNL     1      -9.837  -8.580  15.713  0.00  0.00    +0.160 C 
ATOM      9  C   UNL     1      -9.922  -9.856  17.746  0.00  0.00    +0.043 C 
ATOM     10  C   UNL     1     -10.421  -8.552  17.122  0.00  0.00    +0.145 C 
ENDROOT
BRANCH   7  11
ATOM      4  N   UNL     1      -6.521 -10.628  20.124  0.00  0.00    -0.263 NA
ATOM     11  C   UNL     1      -7.414 -10.421  17.888  0.00  0.00    -0.025 A 
ATOM     13  C   UNL     1      -6.140 -10.582  17.355  0.00  0.00    +0.007 A 
ATOM     14  C   UNL     1      -7.551 -10.452  19.267  0.00  0.00    +0.114 A 
ATOM     16  C   UNL     1      -5.056 -10.766  18.206  0.00  0.00    +0.020 A 
ATOM     17  C   UNL     1      -5.297 -10.781  19.570  0.00  0.00    +0.111 A 
ENDBRANCH   7  11
BRANCH   8   1
ATOM      1  O   UNL     1      -9.838  -7.300  15.111  0.00  0.00    -0.388 OA
ATOM     25  H   UNL     1      -9.115  -7.284  14.461  0.00  0.00    +0.210 HD
ENDBRANCH   8   1
BRANCH  10   2
ATOM      2  O   UNL     1      -9.897  -7.445  17.850  0.00  0.00    -0.389 OA
ATOM     26  H   UNL     1      -9.224  -7.790  18.461  0.00  0.00    +0.210 HD
ENDBRANCH  10   2
BRANCH   6   3
ATOM      3  N   UNL     1      -7.805  -9.581  14.719  0.00  0.00    -0.306 NA
ATOM     24  H   UNL     1      -7.240  -8.836  14.310  0.00  0.00    +0.123 HD
BRANCH   3  12
ATOM     12  C   UNL     1      -8.821  -9.981  13.757  0.00  0.00    +0.116 C 
BRANCH  12  15
ATOM     15  C   UNL     1      -8.415  -9.656  12.345  0.00  0.00    -0.032 A 
ATOM     18  C   UNL     1      -7.082  -9.373  12.049  0.00  0.00    +0.023 A 
ATOM     19  C   UNL     1      -9.373  -9.640  11.331  0.00  0.00    +0.005 A 
ATOM     20  C   UNL     1      -6.706  -9.073  10.739  0.00  0.00    +0.052 A 
ATOM     21  C   UNL     1      -8.998  -9.340  10.021  0.00  0.00    +0.002 A 
ATOM     22  C   UNL     1      -7.665  -9.056   9.726  0.00  0.00    +0.019 A 
BRANCH  20  23
ATOM      5  N   UNL     1      -4.231  -8.547  10.188  0.00  0.00    -0.191 NA
ATOM     23  C   UNL     1      -5.341  -8.783  10.435  0.00  0.00    +0.099 C 
ENDBRANCH  20  23
ENDBRANCH  12  15
ENDBRANCH   3  12
ENDBRANCH   6   3
TORSDOF 7
ENDMDL
MODEL 7
REMARK VINA RESULT:      -3.9     14.141     15.949
REMARK  Name = 75536112
REMARK  7 active torsions:
REMARK  status: ('A' for Active; 'I' for Inactive)
REMARK    1  A    between atoms: O_1  and  C_8
REMARK    2  A    between atoms: O_2  and  C_10
REMARK    3  A    between atoms: N_3  and  C_6
REMARK    4  A    between atoms: N_3  and  C_12
REMARK    5  A    between atoms: C_7  and  C_11
REMARK    6  A    between atoms: C_12  and  C_15
REMARK    7  A    between atoms: C_20  and  C_23
REMARK                            x       y       z     vdW  Elec       q    Type
REMARK                         _______ _______ _______ _____ _____    ______ ____
ROOT
ATOM      6  C   UNL     1      -7.840  -9.647  14.895  0.00  0.00    +0.093 C 
ATOM      7  C   UNL     1      -7.360 -10.781  15.829  0.00  0.00    +0.042 C 
ATOM      8  C   UNL     1      -9.268  -9.383  15.373  0.00  0.00    +0.160 C 
ATOM      9  C   UNL     1      -8.203 -10.635  17.125  0.00  0.00    +0.043 C 
ATOM     10  C   UNL     1      -9.128  -9.439  16.891  0.00  0.00    +0.145 C 
ENDROOT
BRANCH   7  11
ATOM      4  N   UNL     1      -3.632 -10.773  15.132  0.00  0.00    -0.263 NA
ATOM     11  C   UNL     1      -5.863 -10.771  16.060  0.00  0.00    -0.025 A 
ATOM     13  C   UNL     1      -5.337 -10.751  17.347  0.00  0.00    +0.007 A 
ATOM     14  C   UNL     1      -4.976 -10.781  14.996  0.00  0.00    +0.114 A 
ATOM     16  C   UNL     1      -3.958 -10.743  17.527  0.00  0.00    +0.020 A 
ATOM     17  C   UNL     1      -3.157 -10.754  16.398  0.00  0.00    +0.111 A 
ENDBRANCH   7  11
BRANCH   8   1
ATOM      1  O   UNL     1      -9.744  -8.127  14.929  0.00  0.00    -0.388 OA
ATOM     25  H   UNL     1     -10.386  -8.295  14.218  0.00  0.00    +0.210 HD
ENDBRANCH   8   1
BRANCH  10   2
ATOM      2  O   UNL     1      -8.501  -8.253  17.371  0.00  0.00    -0.389 OA
ATOM     26  H   UNL     1      -8.083  -7.816  16.611  0.00  0.00    +0.210 HD
ENDBRANCH  10   2
BRANCH   6   3
ATOM      3  N   UNL     1      -7.803 -10.040  13.490  0.00  0.00    -0.306 NA
ATOM     24  H   UNL     1      -7.115 -10.784  13.372  0.00  0.00    +0.123 HD
BRANCH   3  12
ATOM     12  C   UNL     1      -7.427  -8.915  12.646  0.00  0.00    +0.116 C 
BRANCH  12  15
ATOM     15  C   UNL     1      -6.368  -9.295  11.646  0.00  0.00    -0.032 A 
ATOM     18  C   UNL     1      -5.092  -9.650  12.081  0.00  0.00    +0.023 A 
ATOM     19  C   UNL     1      -6.664  -9.291  10.283  0.00  0.00    +0.005 A 
ATOM     20  C   UNL     1      -4.110 -10.003  11.154  0.00  0.00    +0.052 A 
ATOM     21  C   UNL     1      -5.684  -9.644   9.355  0.00  0.00    +0.002 A 
ATOM     22  C   UNL     1      -4.407  -9.999   9.790  0.00  0.00    +0.019 A 
BRANCH  20  23
ATOM      5  N   UNL     1      -1.741 -10.664  11.962  0.00  0.00    -0.191 NA
ATOM     23  C   UNL     1      -2.804 -10.368  11.599  0.00  0.00    +0.099 C 
ENDBRANCH  20  23
ENDBRANCH  12  15
ENDBRANCH   3  12
ENDBRANCH   6   3
TORSDOF 7
ENDMDL
MODEL 8
REMARK VINA RESULT:      -3.9     15.415     17.564
REMARK  Name = 75536112
REMARK  7 active torsions:
REMARK  status: ('A' for Active; 'I' for Inactive)
REMARK    1  A    between atoms: O_1  and  C_8
REMARK    2  A    between atoms: O_2  and  C_10
REMARK    3  A    between atoms: N_3  and  C_6
REMARK    4  A    between atoms: N_3  and  C_12
REMARK    5  A    between atoms: C_7  and  C_11
REMARK    6  A    between atoms: C_12  and  C_15
REMARK    7  A    between atoms: C_20  and  C_23
REMARK                            x       y       z     vdW  Elec       q    Type
REMARK                         _______ _______ _______ _____ _____    ______ ____
ROOT
ATOM      6  C   UNL     1      -5.288 -10.026  10.981  0.00  0.00    +0.093 C 
ATOM      7  C   UNL     1      -6.383 -10.770  10.181  0.00  0.00    +0.042 C 
ATOM      8  C   UNL     1      -4.136  -9.924   9.982  0.00  0.00    +0.160 C 
ATOM      9  C   UNL     1      -6.089 -10.457   8.689  0.00  0.00    +0.043 C 
ATOM     10  C   UNL     1      -4.850  -9.560   8.684  0.00  0.00    +0.145 C 
ENDROOT
BRANCH   7  11
ATOM      4  N   UNL     1      -9.951  -9.489  10.076  0.00  0.00    -0.263 NA
ATOM     11  C   UNL     1      -7.788 -10.417  10.622  0.00  0.00    -0.025 A 
ATOM     13  C   UNL     1      -8.217 -10.675  11.919  0.00  0.00    +0.007 A 
ATOM     14  C   UNL     1      -8.685  -9.828   9.746  0.00  0.00    +0.114 A 
ATOM     16  C   UNL     1      -9.513 -10.340  12.295  0.00  0.00    +0.020 A 
ATOM     17  C   UNL     1     -10.333  -9.754  11.345  0.00  0.00    +0.111 A 
ENDBRANCH   7  11
BRANCH   8   1
ATOM      1  O   UNL     1      -3.197  -8.938  10.367  0.00  0.00    -0.388 OA
ATOM     25  H   UNL     1      -3.650  -8.327  10.973  0.00  0.00    +0.210 HD
ENDBRANCH   8   1
BRANCH  10   2
ATOM      2  O   UNL     1      -5.254  -8.193   8.711  0.00  0.00    -0.389 OA
ATOM     26  H   UNL     1      -5.132  -7.871   9.620  0.00  0.00    +0.210 HD
ENDBRANCH  10   2
BRANCH   6   3
ATOM      3  N   UNL     1      -4.899 -10.753  12.184  0.00  0.00    -0.306 NA
ATOM     24  H   UNL     1      -5.310 -10.293  12.998  0.00  0.00    +0.123 HD
BRANCH   3  12
ATOM     12  C   UNL     1      -3.451 -10.768  12.337  0.00  0.00    +0.116 C 
BRANCH  12  15
ATOM     15  C   UNL     1      -3.038 -10.679  13.781  0.00  0.00    -0.032 A 
ATOM     18  C   UNL     1      -4.006 -10.681  14.786  0.00  0.00    +0.023 A 
ATOM     19  C   UNL     1      -1.687 -10.596  14.115  0.00  0.00    +0.005 A 
ATOM     20  C   UNL     1      -3.623 -10.600  16.125  0.00  0.00    +0.052 A 
ATOM     21  C   UNL     1      -1.302 -10.516  15.454  0.00  0.00    +0.002 A 
ATOM     22  C   UNL     1      -2.270 -10.517  16.458  0.00  0.00    +0.019 A 
BRANCH  20  23
ATOM      5  N   UNL     1      -5.418 -10.603  17.990  0.00  0.00    -0.191 NA
ATOM     23  C   UNL     1      -4.613 -10.602  17.154  0.00  0.00    +0.099 C 
ENDBRANCH  20  23
ENDBRANCH  12  15
ENDBRANCH   3  12
ENDBRANCH   6   3
TORSDOF 7
ENDMDL
MODEL 9
REMARK VINA RESULT:      -3.7      2.066      2.668
REMARK  Name = 75536112
REMARK  7 active torsions:
REMARK  status: ('A' for Active; 'I' for Inactive)
REMARK    1  A    between atoms: O_1  and  C_8
REMARK    2  A    between atoms: O_2  and  C_10
REMARK    3  A    between atoms: N_3  and  C_6
REMARK    4  A    between atoms: N_3  and  C_12
REMARK    5  A    between atoms: C_7  and  C_11
REMARK    6  A    between atoms: C_12  and  C_15
REMARK    7  A    between atoms: C_20  and  C_23
REMARK                            x       y       z     vdW  Elec       q    Type
REMARK                         _______ _______ _______ _____ _____    ______ ____
ROOT
ATOM      6  C   UNL     1      -4.684   2.677  24.758  0.00  0.00    +0.093 C 
ATOM      7  C   UNL     1      -5.132   1.261  24.330  0.00  0.00    +0.042 C 
ATOM      8  C   UNL     1      -6.000   3.362  25.126  0.00  0.00    +0.160 C 
ATOM      9  C   UNL     1      -6.471   1.007  25.075  0.00  0.00    +0.043 C 
ATOM     10  C   UNL     1      -6.742   2.272  25.892  0.00  0.00    +0.145 C 
ENDROOT
BRANCH   7  11
ATOM      4  N   UNL     1      -2.966  -1.813  23.835  0.00  0.00    -0.263 NA
ATOM     11  C   UNL     1      -4.078   0.201  24.574  0.00  0.00    -0.025 A 
ATOM     13  C   UNL     1      -3.270   0.242  25.705  0.00  0.00    +0.007 A 
ATOM     14  C   UNL     1      -3.887  -0.837  23.677  0.00  0.00    +0.114 A 
ATOM     16  C   UNL     1      -2.311  -0.745  25.902  0.00  0.00    +0.020 A 
ATOM     17  C   UNL     1      -2.199  -1.741  24.946  0.00  0.00    +0.111 A 
ENDBRANCH   7  11
BRANCH   8   1
ATOM      1  O   UNL     1      -5.785   4.515  25.917  0.00  0.00    -0.388 OA
ATOM     25  H   UNL     1      -4.845   4.524  26.168  0.00  0.00    +0.210 HD
ENDBRANCH   8   1
BRANCH  10   2
ATOM      2  O   UNL     1      -6.188   2.122  27.197  0.00  0.00    -0.389 OA
ATOM     26  H   UNL     1      -6.547   1.302  27.574  0.00  0.00    +0.210 HD
ENDBRANCH  10   2
BRANCH   6   3
ATOM      3  N   UNL     1      -3.988   3.380  23.686  0.00  0.00    -0.306 NA
ATOM     24  H   UNL     1      -3.667   2.700  22.997  0.00  0.00    +0.123 HD
BRANCH   3  12
ATOM     12  C   UNL     1      -2.836   4.105  24.203  0.00  0.00    +0.116 C 
BRANCH  12  15
ATOM     15  C   UNL     1      -1.676   3.187  24.482  0.00  0.00    -0.032 A 
ATOM     18  C   UNL     1      -0.986   3.282  25.691  0.00  0.00    +0.023 A 
ATOM     19  C   UNL     1      -1.292   2.241  23.532  0.00  0.00    +0.005 A 
ATOM     20  C   UNL     1       0.089   2.430  25.950  0.00  0.00    +0.052 A 
ATOM     21  C   UNL     1      -0.217   1.389  23.791  0.00  0.00    +0.002 A 
ATOM     22  C   UNL     1       0.473   1.484  24.999  0.00  0.00    +0.019 A 
BRANCH  20  23
ATOM      5  N   UNL     1       1.369   2.605  28.194  0.00  0.00    -0.191 NA
ATOM     23  C   UNL     1       0.795   2.526  27.188  0.00  0.00    +0.099 C 
ENDBRANCH  20  23
ENDBRANCH  12  15
ENDBRANCH   3  12
ENDBRANCH   6   3
TORSDOF 7
ENDMDL
MODEL 10
REMARK VINA RESULT:      -3.6     13.802     17.938
REMARK  Name = 75536112
REMARK  7 active torsions:
REMARK  status: ('A' for Active; 'I' for Inactive)
REMARK    1  A    between atoms: O_1  and  C_8
REMARK    2  A    between atoms: O_2  and  C_10
REMARK    3  A    between atoms: N_3  and  C_6
REMARK    4  A    between atoms: N_3  and  C_12
REMARK    5  A    between atoms: C_7  and  C_11
REMARK    6  A    between atoms: C_12  and  C_15
REMARK    7  A    between atoms: C_20  and  C_23
REMARK                            x       y       z     vdW  Elec       q    Type
REMARK                         _______ _______ _______ _____ _____    ______ ____
ROOT
ATOM      6  C   UNL     1      13.060   8.426  19.572  0.00  0.00    +0.093 C 
ATOM      7  C   UNL     1      14.332   8.689  18.734  0.00  0.00    +0.042 C 
ATOM      8  C   UNL     1      11.941   8.981  18.691  0.00  0.00    +0.160 C 
ATOM      9  C   UNL     1      13.853   8.733  17.258  0.00  0.00    +0.043 C 
ATOM     10  C   UNL     1      12.342   8.499  17.300  0.00  0.00    +0.145 C 
ENDROOT
BRANCH   7  11
ATOM      4  N   UNL     1      16.576   5.655  18.358  0.00  0.00    -0.263 NA
ATOM     11  C   UNL     1      15.438   7.688  18.997  0.00  0.00    -0.025 A 
ATOM     13  C   UNL     1      16.310   7.851  20.067  0.00  0.00    +0.007 A 
ATOM     14  C   UNL     1      15.611   6.584  18.179  0.00  0.00    +0.114 A 
ATOM     16  C   UNL     1      17.316   6.915  20.283  0.00  0.00    +0.020 A 
ATOM     17  C   UNL     1      17.405   5.845  19.409  0.00  0.00    +0.111 A 
ENDBRANCH   7  11
BRANCH   8   1
ATOM      1  O   UNL     1      10.675   8.485  19.081  0.00  0.00    -0.388 OA
ATOM     25  H   UNL     1      10.827   7.783  19.736  0.00  0.00    +0.210 HD
ENDBRANCH   8   1
BRANCH  10   2
ATOM      2  O   UNL     1      12.072   7.106  17.165  0.00  0.00    -0.389 OA
ATOM     26  H   UNL     1      12.146   6.708  18.048  0.00  0.00    +0.210 HD
ENDBRANCH  10   2
BRANCH   6   3
ATOM      3  N   UNL     1      13.109   9.094  20.868  0.00  0.00    -0.306 NA
ATOM     24  H   UNL     1      13.961   9.653  20.922  0.00  0.00    +0.123 HD
BRANCH   3  12
ATOM     12  C   UNL     1      13.117   8.122  21.953  0.00  0.00    +0.116 C 
BRANCH  12  15
ATOM     15  C   UNL     1      11.863   7.290  21.970  0.00  0.00    -0.032 A 
ATOM     18  C   UNL     1      11.865   6.012  21.412  0.00  0.00    +0.023 A 
ATOM     19  C   UNL     1      10.698   7.799  22.544  0.00  0.00    +0.005 A 
ATOM     20  C   UNL     1      10.703   5.240  21.429  0.00  0.00    +0.052 A 
ATOM     21  C   UNL     1       9.535   7.028  22.562  0.00  0.00    +0.002 A 
ATOM     22  C   UNL     1       9.537   5.750  22.004  0.00  0.00    +0.019 A 
BRANCH  20  23
ATOM      5  N   UNL     1      10.707   2.867  20.396  0.00  0.00    -0.191 NA
ATOM     23  C   UNL     1      10.705   3.931  20.859  0.00  0.00    +0.099 C 
ENDBRANCH  20  23
ENDBRANCH  12  15
ENDBRANCH   3  12
ENDBRANCH   6   3
TORSDOF 7
ENDMDL
