MODEL 1
REMARK VINA RESULT:      18.3      0.000      0.000
REMARK  Name = 9424316
REMARK  4 active torsions:
REMARK  status: ('A' for Active; 'I' for Inactive)
REMARK    1  A    between atoms: N_6  and  C_10
REMARK    2  A    between atoms: N_8  and  C_24
REMARK    3  A    between atoms: C_21  and  C_23
REMARK    4  A    between atoms: C_24  and  C_27
REMARK                            x       y       z     vdW  Elec       q    Type
REMARK                         _______ _______ _______ _____ _____    ______ ____
ROOT
ATOM      2  O   UNL     1      -4.116   1.720  22.484  0.00  0.00    -0.273 OA
ATOM      3  O   UNL     1       0.260   3.725  24.492  0.00  0.00    -0.270 OA
ATOM      5  N   UNL     1      -1.846   2.755  24.589  0.00  0.00    -0.286 N 
ATOM      7  N   UNL     1      -1.931   1.172  22.090  0.00  0.00    -0.283 N 
ATOM      9  C   UNL     1      -2.662   1.561  24.404  0.00  0.00    +0.164 C 
ATOM     10  C   UNL     1      -4.621   2.811  25.495  0.00  0.00    +0.078 C 
ATOM     11  C   UNL     1      -3.894   1.480  25.313  0.00  0.00    +0.054 C 
ATOM     12  C   UNL     1      -3.623   3.877  25.931  0.00  0.00    +0.041 C 
ATOM     13  C   UNL     1      -2.515   4.020  24.902  0.00  0.00    +0.111 C 
ATOM     14  C   UNL     1      -2.981   1.520  22.920  0.00  0.00    +0.238 C 
ATOM     15  C   UNL     1      -0.491   2.778  24.258  0.00  0.00    +0.249 C 
ATOM     16  C   UNL     1       0.081   1.624  23.514  0.00  0.00    +0.059 A 
ATOM     17  C   UNL     1      -0.575   0.986  22.445  0.00  0.00    +0.046 A 
ATOM     19  C   UNL     1       1.426   1.318  23.784  0.00  0.00    +0.023 A 
ATOM     20  C   UNL     1       0.154   0.105  21.630  0.00  0.00    +0.024 A 
ATOM     21  C   UNL     1       2.119   0.402  22.995  0.00  0.00    -0.017 A 
ATOM     22  C   UNL     1       1.488  -0.194  21.910  0.00  0.00    +0.010 A 
ATOM     33  H   UNL     1      -2.184   0.924  21.137  0.00  0.00    +0.155 HD
ENDROOT
BRANCH  21  23
ATOM      1 CL   UNL     1       7.811  -0.871  24.206  0.00  0.00    -0.084 Cl
ATOM     23  C   UNL     1       3.502   0.093  23.288  0.00  0.00    -0.018 A 
ATOM     25  C   UNL     1       3.860  -1.198  23.675  0.00  0.00    +0.010 A 
ATOM     26  C   UNL     1       4.477   1.085  23.185  0.00  0.00    +0.010 A 
ATOM     28  C   UNL     1       5.193  -1.497  23.959  0.00  0.00    +0.020 A 
ATOM     29  C   UNL     1       5.809   0.787  23.468  0.00  0.00    +0.020 A 
ATOM     30  C   UNL     1       6.167  -0.504  23.855  0.00  0.00    +0.041 A 
ENDBRANCH  21  23
BRANCH  10   6
ATOM      4  O   UNL     1      -5.800   0.363  26.470  0.00  0.00    -0.253 OA
ATOM      6  N   UNL     1      -5.690   2.683  26.456  0.00  0.00    -0.296 N 
ATOM      8  N   UNL     1      -7.224   1.620  27.803  0.00  0.00    -0.296 N 
ATOM     18  C   UNL     1      -6.200   1.455  26.873  0.00  0.00    +0.300 C 
ATOM     32  H   UNL     1      -6.042   3.524  26.904  0.00  0.00    +0.151 HD
ATOM     34  H   UNL     1      -7.474   2.562  28.089  0.00  0.00    +0.151 HD
BRANCH   8  24
ATOM     24  C   UNL     1      -7.927   0.510  28.398  0.00  0.00    +0.132 C 
BRANCH  24  27
ATOM     27  C   UNL     1      -7.030  -0.168  29.380  0.00  0.00    -0.016 C 
ATOM     31  C   UNL     1      -7.290  -0.257  30.689  0.00  0.00    +0.005 C 
ENDBRANCH  24  27
ENDBRANCH   8  24
ENDBRANCH  10   6
TORSDOF 4
ENDMDL
MODEL 2
REMARK VINA RESULT:      19.7      4.767     10.505
REMARK  Name = 9424316
REMARK  4 active torsions:
REMARK  status: ('A' for Active; 'I' for Inactive)
REMARK    1  A    between atoms: N_6  and  C_10
REMARK    2  A    between atoms: N_8  and  C_24
REMARK    3  A    between atoms: C_21  and  C_23
REMARK    4  A    between atoms: C_24  and  C_27
REMARK                            x       y       z     vdW  Elec       q    Type
REMARK                         _______ _______ _______ _____ _____    ______ ____
ROOT
ATOM      2  O   UNL     1       3.054  -0.187  20.741  0.00  0.00    -0.273 OA
ATOM      3  O   UNL     1       0.358  -1.701  24.941  0.00  0.00    -0.270 OA
ATOM      5  N   UNL     1       2.115  -0.670  23.829  0.00  0.00    -0.286 N 
ATOM      7  N   UNL     1       0.859   0.154  21.281  0.00  0.00    -0.283 N 
ATOM      9  C   UNL     1       2.571   0.452  23.017  0.00  0.00    +0.164 C 
ATOM     10  C   UNL     1       4.979  -0.376  23.343  0.00  0.00    +0.078 C 
ATOM     11  C   UNL     1       4.045   0.826  23.211  0.00  0.00    +0.054 C 
ATOM     12  C   UNL     1       4.451  -1.311  24.424  0.00  0.00    +0.041 C 
ATOM     13  C   UNL     1       3.044  -1.774  24.085  0.00  0.00    +0.111 C 
ATOM     14  C   UNL     1       2.205   0.087  21.590  0.00  0.00    +0.238 C 
ATOM     15  C   UNL     1       0.773  -0.831  24.175  0.00  0.00    +0.249 C 
ATOM     16  C   UNL     1      -0.239   0.048  23.531  0.00  0.00    +0.059 A 
ATOM     17  C   UNL     1      -0.220   0.384  22.165  0.00  0.00    +0.046 A 
ATOM     19  C   UNL     1      -1.363   0.371  24.310  0.00  0.00    +0.023 A 
ATOM     20  C   UNL     1      -1.360   0.977  21.597  0.00  0.00    +0.024 A 
ATOM     21  C   UNL     1      -2.465   1.005  23.739  0.00  0.00    -0.017 A 
ATOM     22  C   UNL     1      -2.469   1.296  22.380  0.00  0.00    +0.010 A 
ATOM     33  H   UNL     1       0.630   0.134  20.290  0.00  0.00    +0.155 HD
ENDROOT
BRANCH  21  23
ATOM      1 CL   UNL     1      -7.192   2.369  27.099  0.00  0.00    -0.084 Cl
ATOM     23  C   UNL     1      -3.613   1.337  24.555  0.00  0.00    -0.018 A 
ATOM     25  C   UNL     1      -3.840   2.659  24.936  0.00  0.00    +0.010 A 
ATOM     26  C   UNL     1      -4.495   0.334  24.960  0.00  0.00    +0.010 A 
ATOM     28  C   UNL     1      -4.947   2.978  25.723  0.00  0.00    +0.020 A 
ATOM     29  C   UNL     1      -5.601   0.653  25.746  0.00  0.00    +0.020 A 
ATOM     30  C   UNL     1      -5.828   1.975  26.127  0.00  0.00    +0.041 A 
ENDBRANCH  21  23
BRANCH  10   6
ATOM      4  O   UNL     1       7.385  -1.038  21.891  0.00  0.00    -0.253 OA
ATOM      6  N   UNL     1       6.324   0.053  23.645  0.00  0.00    -0.296 N 
ATOM      8  N   UNL     1       8.605   0.234  23.400  0.00  0.00    -0.296 N 
ATOM     18  C   UNL     1       7.433  -0.317  22.887  0.00  0.00    +0.300 C 
ATOM     32  H   UNL     1       6.462   0.710  24.407  0.00  0.00    +0.151 HD
ATOM     34  H   UNL     1       8.544   0.834  24.217  0.00  0.00    +0.151 HD
BRANCH   8  24
ATOM     24  C   UNL     1       9.900   0.012  22.804  0.00  0.00    +0.132 C 
BRANCH  24  27
ATOM     27  C   UNL     1      10.521   1.329  22.477  0.00  0.00    -0.016 C 
ATOM     31  C   UNL     1      10.668   1.796  21.232  0.00  0.00    +0.005 C 
ENDBRANCH  24  27
ENDBRANCH   8  24
ENDBRANCH  10   6
TORSDOF 4
ENDMDL
MODEL 3
REMARK VINA RESULT:      20.9      4.479      9.979
REMARK  Name = 9424316
REMARK  4 active torsions:
REMARK  status: ('A' for Active; 'I' for Inactive)
REMARK    1  A    between atoms: N_6  and  C_10
REMARK    2  A    between atoms: N_8  and  C_24
REMARK    3  A    between atoms: C_21  and  C_23
REMARK    4  A    between atoms: C_24  and  C_27
REMARK                            x       y       z     vdW  Elec       q    Type
REMARK                         _______ _______ _______ _____ _____    ______ ____
ROOT
ATOM      2  O   UNL     1       1.689  -1.025  20.814  0.00  0.00    -0.273 OA
ATOM      3  O   UNL     1      -1.068  -0.970  25.242  0.00  0.00    -0.270 OA
ATOM      5  N   UNL     1       0.837  -0.683  23.947  0.00  0.00    -0.286 N 
ATOM      7  N   UNL     1      -0.293   0.008  21.301  0.00  0.00    -0.283 N 
ATOM      9  C   UNL     1       1.535   0.108  22.940  0.00  0.00    +0.164 C 
ATOM     10  C   UNL     1       3.637  -1.295  23.391  0.00  0.00    +0.078 C 
ATOM     11  C   UNL     1       3.064   0.080  23.050  0.00  0.00    +0.054 C 
ATOM     12  C   UNL     1       2.937  -1.842  24.630  0.00  0.00    +0.041 C 
ATOM     13  C   UNL     1       1.440  -1.942  24.392  0.00  0.00    +0.111 C 
ATOM     14  C   UNL     1       0.999  -0.380  21.606  0.00  0.00    +0.238 C 
ATOM     15  C   UNL     1      -0.475  -0.398  24.327  0.00  0.00    +0.249 C 
ATOM     16  C   UNL     1      -1.242   0.606  23.542  0.00  0.00    +0.059 A 
ATOM     17  C   UNL     1      -1.212   0.682  22.137  0.00  0.00    +0.046 A 
ATOM     19  C   UNL     1      -2.186   1.362  24.258  0.00  0.00    +0.023 A 
ATOM     20  C   UNL     1      -2.176   1.464  21.479  0.00  0.00    +0.024 A 
ATOM     21  C   UNL     1      -3.102   2.172  23.589  0.00  0.00    -0.017 A 
ATOM     22  C   UNL     1      -3.107   2.212  22.200  0.00  0.00    +0.010 A 
ATOM     33  H   UNL     1      -0.576  -0.118  20.332  0.00  0.00    +0.155 HD
ENDROOT
BRANCH  21  23
ATOM      1 CL   UNL     1      -7.065   5.370  26.682  0.00  0.00    -0.084 Cl
ATOM     23  C   UNL     1      -4.065   2.949  24.340  0.00  0.00    -0.018 A 
ATOM     25  C   UNL     1      -3.942   4.336  24.406  0.00  0.00    +0.010 A 
ATOM     26  C   UNL     1      -5.117   2.310  24.997  0.00  0.00    +0.010 A 
ATOM     28  C   UNL     1      -4.870   5.085  25.131  0.00  0.00    +0.020 A 
ATOM     29  C   UNL     1      -6.045   3.059  25.721  0.00  0.00    +0.020 A 
ATOM     30  C   UNL     1      -5.921   4.446  25.787  0.00  0.00    +0.041 A 
ENDBRANCH  21  23
BRANCH  10   6
ATOM      4  O   UNL     1       5.257   1.093  23.460  0.00  0.00    -0.253 OA
ATOM      6  N   UNL     1       5.064  -1.216  23.600  0.00  0.00    -0.296 N 
ATOM      8  N   UNL     1       7.128  -0.227  23.836  0.00  0.00    -0.296 N 
ATOM     18  C   UNL     1       5.768  -0.015  23.617  0.00  0.00    +0.300 C 
ATOM     32  H   UNL     1       5.569  -2.071  23.812  0.00  0.00    +0.151 HD
ATOM     34  H   UNL     1       7.456  -1.178  23.974  0.00  0.00    +0.151 HD
BRANCH   8  24
ATOM     24  C   UNL     1       8.087   0.849  23.901  0.00  0.00    +0.132 C 
BRANCH  24  27
ATOM     27  C   UNL     1       9.462   0.287  23.756  0.00  0.00    -0.016 C 
ATOM     31  C   UNL     1       9.909  -0.315  22.648  0.00  0.00    +0.005 C 
ENDBRANCH  24  27
ENDBRANCH   8  24
ENDBRANCH  10   6
TORSDOF 4
ENDMDL
MODEL 4
REMARK VINA RESULT:      21.5      2.581      3.722
REMARK  Name = 9424316
REMARK  4 active torsions:
REMARK  status: ('A' for Active; 'I' for Inactive)
REMARK    1  A    between atoms: N_6  and  C_10
REMARK    2  A    between atoms: N_8  and  C_24
REMARK    3  A    between atoms: C_21  and  C_23
REMARK    4  A    between atoms: C_24  and  C_27
REMARK                            x       y       z     vdW  Elec       q    Type
REMARK                         _______ _______ _______ _____ _____    ______ ____
ROOT
ATOM      2  O   UNL     1      -3.768  -1.763  25.293  0.00  0.00    -0.273 OA
ATOM      3  O   UNL     1      -0.539   0.472  21.861  0.00  0.00    -0.270 OA
ATOM      5  N   UNL     1      -2.088   0.456  23.590  0.00  0.00    -0.286 N 
ATOM      7  N   UNL     1      -1.546  -2.138  24.906  0.00  0.00    -0.283 N 
ATOM      9  C   UNL     1      -2.365   0.177  24.993  0.00  0.00    +0.164 C 
ATOM     10  C   UNL     1      -4.656   1.297  24.696  0.00  0.00    +0.078 C 
ATOM     11  C   UNL     1      -3.461   1.050  25.616  0.00  0.00    +0.054 C 
ATOM     12  C   UNL     1      -4.161   1.823  23.354  0.00  0.00    +0.041 C 
ATOM     13  C   UNL     1      -3.202   0.832  22.716  0.00  0.00    +0.111 C 
ATOM     14  C   UNL     1      -2.646  -1.313  25.057  0.00  0.00    +0.238 C 
ATOM     15  C   UNL     1      -0.853   0.161  23.010  0.00  0.00    +0.249 C 
ATOM     16  C   UNL     1       0.127  -0.640  23.791  0.00  0.00    +0.059 A 
ATOM     17  C   UNL     1      -0.226  -1.762  24.563  0.00  0.00    +0.046 A 
ATOM     19  C   UNL     1       1.483  -0.357  23.558  0.00  0.00    +0.023 A 
ATOM     20  C   UNL     1       0.791  -2.613  25.028  0.00  0.00    +0.024 A 
ATOM     21  C   UNL     1       2.480  -1.185  24.070  0.00  0.00    -0.017 A 
ATOM     22  C   UNL     1       2.134  -2.320  24.793  0.00  0.00    +0.010 A 
ATOM     33  H   UNL     1      -1.682  -3.111  25.168  0.00  0.00    +0.155 HD
ENDROOT
BRANCH  21  23
ATOM      1 CL   UNL     1       8.215   0.077  23.065  0.00  0.00    -0.084 Cl
ATOM     23  C   UNL     1       3.873  -0.878  23.827  0.00  0.00    -0.018 A 
ATOM     25  C   UNL     1       4.236   0.376  23.336  0.00  0.00    +0.010 A 
ATOM     26  C   UNL     1       4.854  -1.837  24.083  0.00  0.00    +0.010 A 
ATOM     28  C   UNL     1       5.579   0.671  23.100  0.00  0.00    +0.020 A 
ATOM     29  C   UNL     1       6.197  -1.541  23.848  0.00  0.00    +0.020 A 
ATOM     30  C   UNL     1       6.559  -0.288  23.357  0.00  0.00    +0.041 A 
ENDBRANCH  21  23
BRANCH  10   6
ATOM      4  O   UNL     1      -4.358   4.159  24.927  0.00  0.00    -0.253 OA
ATOM      6  N   UNL     1      -5.584   2.222  25.300  0.00  0.00    -0.296 N 
ATOM      8  N   UNL     1      -6.412   4.251  26.003  0.00  0.00    -0.296 N 
ATOM     18  C   UNL     1      -5.359   3.595  25.369  0.00  0.00    +0.300 C 
ATOM     32  H   UNL     1      -6.476   1.866  25.631  0.00  0.00    +0.151 HD
ATOM     34  H   UNL     1      -7.207   3.704  26.319  0.00  0.00    +0.151 HD
BRANCH   8  24
ATOM     24  C   UNL     1      -6.435   5.680  26.206  0.00  0.00    +0.132 C 
BRANCH  24  27
ATOM     27  C   UNL     1      -6.893   6.345  24.951  0.00  0.00    -0.016 C 
ATOM     31  C   UNL     1      -6.138   6.469  23.854  0.00  0.00    +0.005 C 
ENDBRANCH  24  27
ENDBRANCH   8  24
ENDBRANCH  10   6
TORSDOF 4
ENDMDL
