MODEL 1
REMARK VINA RESULT:      -5.1      0.000      0.000
REMARK  Name = 75536786
REMARK  8 active torsions:
REMARK  status: ('A' for Active; 'I' for Inactive)
REMARK    1  A    between atoms: O_2  and  C_8
REMARK    2  A    between atoms: N_4  and  C_7
REMARK    3  A    between atoms: N_4  and  C_12
REMARK    4  A    between atoms: N_5  and  C_11
REMARK    5  A    between atoms: C_9  and  C_11
REMARK    6  A    between atoms: C_12  and  C_13
REMARK    7  A    between atoms: C_12  and  C_14
REMARK    8  A    between atoms: C_15  and  C_16
REMARK                            x       y       z     vdW  Elec       q    Type
REMARK                         _______ _______ _______ _____ _____    ______ ____
ROOT
ATOM      1  O   UNL     1      -1.428  -1.981  23.558  0.00  0.00    -0.371 OA
ATOM      7  C   UNL     1       0.058  -0.508  24.682  0.00  0.00    +0.111 C 
ATOM      8  C   UNL     1      -1.219  -0.635  25.492  0.00  0.00    +0.164 C 
ATOM      9  C   UNL     1      -1.780  -1.944  24.951  0.00  0.00    +0.165 C 
ATOM     10  C   UNL     1      -0.398  -1.006  23.320  0.00  0.00    +0.181 C 
ENDROOT
BRANCH   8   2
ATOM      2  O   UNL     1      -0.979  -0.700  26.884  0.00  0.00    -0.388 OA
ATOM     22  H   UNL     1      -0.061  -0.991  27.024  0.00  0.00    +0.210 HD
ENDBRANCH   8   2
BRANCH   7   4
ATOM      4  N   UNL     1       0.591   0.844  24.642  0.00  0.00    -0.307 NA
ATOM     21  H   UNL     1       0.949   1.052  23.709  0.00  0.00    +0.123 HD
BRANCH   4  12
ATOM     12  C   UNL     1      -0.425   1.821  25.014  0.00  0.00    +0.048 C 
ATOM     13  C   UNL     1       0.020   2.563  26.269  0.00  0.00    +0.023 C 
ATOM     14  C   UNL     1      -0.673   2.791  23.862  0.00  0.00    +0.023 C 
ENDBRANCH   4  12
ENDBRANCH   7   4
BRANCH   9  11
ATOM     11  C   UNL     1      -3.286  -2.059  25.104  0.00  0.00    +0.138 C 
BRANCH  11   5
ATOM      3  O   UNL     1      -3.703   0.102  23.259  0.00  0.00    -0.270 OA
ATOM      5  N   UNL     1      -3.880  -0.787  25.396  0.00  0.00    -0.309 N 
ATOM     15  C   UNL     1      -4.043   0.207  24.435  0.00  0.00    +0.244 C 
ATOM     23  H   UNL     1      -4.122  -0.608  26.364  0.00  0.00    +0.149 HD
BRANCH  15  16
ATOM      6  N   UNL     1      -5.794   3.872  25.787  0.00  0.00    -0.263 NA
ATOM     16  C   UNL     1      -4.652   1.479  24.903  0.00  0.00    +0.040 A 
ATOM     17  C   UNL     1      -4.074   2.697  24.559  0.00  0.00    +0.033 A 
ATOM     18  C   UNL     1      -5.800   1.457  25.687  0.00  0.00    +0.033 A 
ATOM     19  C   UNL     1      -4.679   3.854  25.023  0.00  0.00    +0.111 A 
ATOM     20  C   UNL     1      -6.327   2.670  26.100  0.00  0.00    +0.111 A 
ENDBRANCH  15  16
ENDBRANCH  11   5
ENDBRANCH   9  11
TORSDOF 6
ENDMDL
MODEL 2
REMARK VINA RESULT:      -5.1      2.170      4.933
REMARK  Name = 75536786
REMARK  8 active torsions:
REMARK  status: ('A' for Active; 'I' for Inactive)
REMARK    1  A    between atoms: O_2  and  C_8
REMARK    2  A    between atoms: N_4  and  C_7
REMARK    3  A    between atoms: N_4  and  C_12
REMARK    4  A    between atoms: N_5  and  C_11
REMARK    5  A    between atoms: C_9  and  C_11
REMARK    6  A    between atoms: C_12  and  C_13
REMARK    7  A    between atoms: C_12  and  C_14
REMARK    8  A    between atoms: C_15  and  C_16
REMARK                            x       y       z     vdW  Elec       q    Type
REMARK                         _______ _______ _______ _____ _____    ______ ____
ROOT
ATOM      1  O   UNL     1      -4.572   3.464  26.698  0.00  0.00    -0.371 OA
ATOM      7  C   UNL     1      -2.757   4.498  25.567  0.00  0.00    +0.111 C 
ATOM      8  C   UNL     1      -3.559   3.679  24.571  0.00  0.00    +0.164 C 
ATOM      9  C   UNL     1      -4.891   3.555  25.300  0.00  0.00    +0.165 C 
ATOM     10  C   UNL     1      -3.214   3.898  26.887  0.00  0.00    +0.181 C 
ENDROOT
BRANCH   8   2
ATOM      2  O   UNL     1      -3.701   4.326  23.321  0.00  0.00    -0.388 OA
ATOM     22  H   UNL     1      -3.089   5.081  23.295  0.00  0.00    +0.210 HD
ENDBRANCH   8   2
BRANCH   7   4
ATOM      4  N   UNL     1      -1.320   4.409  25.371  0.00  0.00    -0.307 NA
ATOM     21  H   UNL     1      -0.832   4.844  26.153  0.00  0.00    +0.123 HD
BRANCH   4  12
ATOM     12  C   UNL     1      -0.894   3.021  25.231  0.00  0.00    +0.048 C 
ATOM     13  C   UNL     1      -0.258   2.822  23.859  0.00  0.00    +0.023 C 
ATOM     14  C   UNL     1       0.081   2.651  26.346  0.00  0.00    +0.023 C 
ENDBRANCH   4  12
ENDBRANCH   7   4
BRANCH   9  11
ATOM     11  C   UNL     1      -5.696   2.340  24.876  0.00  0.00    +0.138 C 
BRANCH  11   5
ATOM      3  O   UNL     1      -3.636   1.425  23.097  0.00  0.00    -0.270 OA
ATOM      5  N   UNL     1      -4.928   1.135  25.003  0.00  0.00    -0.309 N 
ATOM     15  C   UNL     1      -3.944   0.769  24.089  0.00  0.00    +0.244 C 
ATOM     23  H   UNL     1      -5.179   0.513  25.763  0.00  0.00    +0.149 HD
BRANCH  15  16
ATOM      6  N   UNL     1      -1.962  -2.953  24.825  0.00  0.00    -0.263 NA
ATOM     16  C   UNL     1      -3.256  -0.523  24.346  0.00  0.00    +0.040 A 
ATOM     17  C   UNL     1      -1.897  -0.543  24.639  0.00  0.00    +0.033 A 
ATOM     18  C   UNL     1      -3.969  -1.715  24.293  0.00  0.00    +0.033 A 
ATOM     19  C   UNL     1      -1.302  -1.773  24.868  0.00  0.00    +0.111 A 
ATOM     20  C   UNL     1      -3.281  -2.894  24.537  0.00  0.00    +0.111 A 
ENDBRANCH  15  16
ENDBRANCH  11   5
ENDBRANCH   9  11
TORSDOF 6
ENDMDL
MODEL 3
REMARK VINA RESULT:      -4.6      3.039      6.990
REMARK  Name = 75536786
REMARK  8 active torsions:
REMARK  status: ('A' for Active; 'I' for Inactive)
REMARK    1  A    between atoms: O_2  and  C_8
REMARK    2  A    between atoms: N_4  and  C_7
REMARK    3  A    between atoms: N_4  and  C_12
REMARK    4  A    between atoms: N_5  and  C_11
REMARK    5  A    between atoms: C_9  and  C_11
REMARK    6  A    between atoms: C_12  and  C_13
REMARK    7  A    between atoms: C_12  and  C_14
REMARK    8  A    between atoms: C_15  and  C_16
REMARK                            x       y       z     vdW  Elec       q    Type
REMARK                         _______ _______ _______ _____ _____    ______ ____
ROOT
ATOM      1  O   UNL     1      -2.233   1.864  22.781  0.00  0.00    -0.371 OA
ATOM      7  C   UNL     1      -2.704   3.032  24.795  0.00  0.00    +0.111 C 
ATOM      8  C   UNL     1      -1.744   1.895  25.095  0.00  0.00    +0.164 C 
ATOM      9  C   UNL     1      -1.164   1.629  23.713  0.00  0.00    +0.165 C 
ATOM     10  C   UNL     1      -3.270   2.601  23.451  0.00  0.00    +0.181 C 
ENDROOT
BRANCH   8   2
ATOM      2  O   UNL     1      -0.743   2.258  26.026  0.00  0.00    -0.388 OA
ATOM     22  H   UNL     1       0.109   1.910  25.711  0.00  0.00    +0.210 HD
ENDBRANCH   8   2
BRANCH   7   4
ATOM      4  N   UNL     1      -3.729   3.213  25.809  0.00  0.00    -0.307 NA
ATOM     21  H   UNL     1      -3.613   4.117  26.267  0.00  0.00    +0.123 HD
BRANCH   4  12
ATOM     12  C   UNL     1      -5.064   3.118  25.229  0.00  0.00    +0.048 C 
ATOM     13  C   UNL     1      -5.776   1.893  25.794  0.00  0.00    +0.023 C 
ATOM     14  C   UNL     1      -5.856   4.392  25.513  0.00  0.00    +0.023 C 
ENDBRANCH   4  12
ENDBRANCH   7   4
BRANCH   9  11
ATOM     11  C   UNL     1      -0.638   0.214  23.545  0.00  0.00    +0.138 C 
BRANCH  11   5
ATOM      3  O   UNL     1       1.342  -0.422  21.565  0.00  0.00    -0.270 OA
ATOM      5  N   UNL     1       0.782   0.159  23.741  0.00  0.00    -0.309 N 
ATOM     15  C   UNL     1       1.671  -0.160  22.720  0.00  0.00    +0.244 C 
ATOM     23  H   UNL     1       1.116   0.298  24.688  0.00  0.00    +0.149 HD
BRANCH  15  16
ATOM      6  N   UNL     1       5.814  -0.277  23.791  0.00  0.00    -0.263 NA
ATOM     16  C   UNL     1       3.110  -0.202  23.090  0.00  0.00    +0.040 A 
ATOM     17  C   UNL     1       3.662  -1.365  23.615  0.00  0.00    +0.033 A 
ATOM     18  C   UNL     1       3.908   0.923  22.914  0.00  0.00    +0.033 A 
ATOM     19  C   UNL     1       5.007  -1.351  23.947  0.00  0.00    +0.111 A 
ATOM     20  C   UNL     1       5.242   0.835  23.277  0.00  0.00    +0.111 A 
ENDBRANCH  15  16
ENDBRANCH  11   5
ENDBRANCH   9  11
TORSDOF 6
ENDMDL
MODEL 4
REMARK VINA RESULT:      -4.5      2.056      4.949
REMARK  Name = 75536786
REMARK  8 active torsions:
REMARK  status: ('A' for Active; 'I' for Inactive)
REMARK    1  A    between atoms: O_2  and  C_8
REMARK    2  A    between atoms: N_4  and  C_7
REMARK    3  A    between atoms: N_4  and  C_12
REMARK    4  A    between atoms: N_5  and  C_11
REMARK    5  A    between atoms: C_9  and  C_11
REMARK    6  A    between atoms: C_12  and  C_13
REMARK    7  A    between atoms: C_12  and  C_14
REMARK    8  A    between atoms: C_15  and  C_16
REMARK                            x       y       z     vdW  Elec       q    Type
REMARK                         _______ _______ _______ _____ _____    ______ ____
ROOT
ATOM      1  O   UNL     1      -0.571   4.087  24.029  0.00  0.00    -0.371 OA
ATOM      7  C   UNL     1      -1.874   4.083  26.015  0.00  0.00    +0.111 C 
ATOM      8  C   UNL     1      -1.101   2.780  25.928  0.00  0.00    +0.164 C 
ATOM      9  C   UNL     1       0.014   3.165  24.963  0.00  0.00    +0.165 C 
ATOM     10  C   UNL     1      -1.811   4.567  24.574  0.00  0.00    +0.181 C 
ENDROOT
BRANCH   8   2
ATOM      2  O   UNL     1      -0.592   2.363  27.180  0.00  0.00    -0.388 OA
ATOM     22  H   UNL     1      -0.999   1.509  27.407  0.00  0.00    +0.210 HD
ENDBRANCH   8   2
BRANCH   7   4
ATOM      4  N   UNL     1      -3.235   3.923  26.500  0.00  0.00    -0.307 NA
ATOM     21  H   UNL     1      -3.540   4.772  26.975  0.00  0.00    +0.123 HD
BRANCH   4  12
ATOM     12  C   UNL     1      -4.148   3.609  25.408  0.00  0.00    +0.048 C 
ATOM     13  C   UNL     1      -4.463   2.116  25.423  0.00  0.00    +0.023 C 
ATOM     14  C   UNL     1      -5.423   4.439  25.529  0.00  0.00    +0.023 C 
ENDBRANCH   4  12
ENDBRANCH   7   4
BRANCH   9  11
ATOM     11  C   UNL     1       0.597   1.978  24.217  0.00  0.00    +0.138 C 
BRANCH  11   5
ATOM      3  O   UNL     1      -1.920   1.474  22.930  0.00  0.00    -0.270 OA
ATOM      5  N   UNL     1      -0.223   0.812  24.369  0.00  0.00    -0.309 N 
ATOM     15  C   UNL     1      -1.435   0.651  23.703  0.00  0.00    +0.244 C 
ATOM     23  H   UNL     1       0.085   0.122  25.046  0.00  0.00    +0.149 HD
BRANCH  15  16
ATOM      6  N   UNL     1      -3.582  -2.962  24.517  0.00  0.00    -0.263 NA
ATOM     16  C   UNL     1      -2.180  -0.603  23.988  0.00  0.00    +0.040 A 
ATOM     17  C   UNL     1      -1.513  -1.710  24.501  0.00  0.00    +0.033 A 
ATOM     18  C   UNL     1      -3.546  -0.674  23.739  0.00  0.00    +0.033 A 
ATOM     19  C   UNL     1      -2.253  -2.856  24.746  0.00  0.00    +0.111 A 
ATOM     20  C   UNL     1      -4.196  -1.866  24.018  0.00  0.00    +0.111 A 
ENDBRANCH  15  16
ENDBRANCH  11   5
ENDBRANCH   9  11
TORSDOF 6
ENDMDL
MODEL 5
REMARK VINA RESULT:      -4.4      1.566      3.513
REMARK  Name = 75536786
REMARK  8 active torsions:
REMARK  status: ('A' for Active; 'I' for Inactive)
REMARK    1  A    between atoms: O_2  and  C_8
REMARK    2  A    between atoms: N_4  and  C_7
REMARK    3  A    between atoms: N_4  and  C_12
REMARK    4  A    between atoms: N_5  and  C_11
REMARK    5  A    between atoms: C_9  and  C_11
REMARK    6  A    between atoms: C_12  and  C_13
REMARK    7  A    between atoms: C_12  and  C_14
REMARK    8  A    between atoms: C_15  and  C_16
REMARK                            x       y       z     vdW  Elec       q    Type
REMARK                         _______ _______ _______ _____ _____    ______ ____
ROOT
ATOM      1  O   UNL     1      -0.517   0.729  26.102  0.00  0.00    -0.371 OA
ATOM      7  C   UNL     1      -0.561  -1.165  24.670  0.00  0.00    +0.111 C 
ATOM      8  C   UNL     1      -0.471   0.092  23.824  0.00  0.00    +0.164 C 
ATOM      9  C   UNL     1       0.070   1.090  24.840  0.00  0.00    +0.165 C 
ATOM     10  C   UNL     1      -1.049  -0.602  25.995  0.00  0.00    +0.181 C 
ENDROOT
BRANCH   8   2
ATOM      2  O   UNL     1       0.397  -0.055  22.717  0.00  0.00    -0.388 OA
ATOM     22  H   UNL     1       0.556  -1.004  22.576  0.00  0.00    +0.210 HD
ENDBRANCH   8   2
BRANCH   7   4
ATOM      4  N   UNL     1      -1.452  -2.174  24.121  0.00  0.00    -0.307 NA
ATOM     21  H   UNL     1      -1.098  -3.107  24.334  0.00  0.00    +0.123 HD
BRANCH   4  12
ATOM     12  C   UNL     1      -2.803  -2.023  24.646  0.00  0.00    +0.048 C 
ATOM     13  C   UNL     1      -3.639  -1.203  23.668  0.00  0.00    +0.023 C 
ATOM     14  C   UNL     1      -3.432  -3.393  24.890  0.00  0.00    +0.023 C 
ENDBRANCH   4  12
ENDBRANCH   7   4
BRANCH   9  11
ATOM     11  C   UNL     1      -0.274   2.531  24.507  0.00  0.00    +0.138 C 
BRANCH  11   5
ATOM      3  O   UNL     1      -2.703   2.128  23.031  0.00  0.00    -0.270 OA
ATOM      5  N   UNL     1      -1.602   2.863  24.936  0.00  0.00    -0.309 N 
ATOM     15  C   UNL     1      -2.727   2.632  24.151  0.00  0.00    +0.244 C 
ATOM     23  H   UNL     1      -1.686   3.346  25.824  0.00  0.00    +0.149 HD
BRANCH  15  16
ATOM      6  N   UNL     1      -6.476   3.855  25.816  0.00  0.00    -0.263 NA
ATOM     16  C   UNL     1      -4.029   3.057  24.727  0.00  0.00    +0.040 A 
ATOM     17  C   UNL     1      -4.283   4.404  24.959  0.00  0.00    +0.033 A 
ATOM     18  C   UNL     1      -4.997   2.108  25.038  0.00  0.00    +0.033 A 
ATOM     19  C   UNL     1      -5.511   4.748  25.500  0.00  0.00    +0.111 A 
ATOM     20  C   UNL     1      -6.194   2.555  25.576  0.00  0.00    +0.111 A 
ENDBRANCH  15  16
ENDBRANCH  11   5
ENDBRANCH   9  11
TORSDOF 6
ENDMDL
MODEL 6
REMARK VINA RESULT:      -4.4      2.182      5.169
REMARK  Name = 75536786
REMARK  8 active torsions:
REMARK  status: ('A' for Active; 'I' for Inactive)
REMARK    1  A    between atoms: O_2  and  C_8
REMARK    2  A    between atoms: N_4  and  C_7
REMARK    3  A    between atoms: N_4  and  C_12
REMARK    4  A    between atoms: N_5  and  C_11
REMARK    5  A    between atoms: C_9  and  C_11
REMARK    6  A    between atoms: C_12  and  C_13
REMARK    7  A    between atoms: C_12  and  C_14
REMARK    8  A    between atoms: C_15  and  C_16
REMARK                            x       y       z     vdW  Elec       q    Type
REMARK                         _______ _______ _______ _____ _____    ______ ____
ROOT
ATOM      1  O   UNL     1      -0.404   3.756  24.315  0.00  0.00    -0.371 OA
ATOM      7  C   UNL     1      -2.611   4.428  24.879  0.00  0.00    +0.111 C 
ATOM      8  C   UNL     1      -2.106   3.457  25.930  0.00  0.00    +0.164 C 
ATOM      9  C   UNL     1      -0.600   3.561  25.725  0.00  0.00    +0.165 C 
ATOM     10  C   UNL     1      -1.656   4.150  23.729  0.00  0.00    +0.181 C 
ENDROOT
BRANCH   8   2
ATOM      2  O   UNL     1      -2.486   3.826  27.242  0.00  0.00    -0.388 OA
ATOM     22  H   UNL     1      -3.359   4.251  27.200  0.00  0.00    +0.210 HD
ENDBRANCH   8   2
BRANCH   7   4
ATOM      4  N   UNL     1      -4.005   4.225  24.519  0.00  0.00    -0.307 NA
ATOM     21  H   UNL     1      -4.119   4.289  23.508  0.00  0.00    +0.123 HD
BRANCH   4  12
ATOM     12  C   UNL     1      -4.487   2.933  24.993  0.00  0.00    +0.048 C 
ATOM     13  C   UNL     1      -5.849   3.111  25.655  0.00  0.00    +0.023 C 
ATOM     14  C   UNL     1      -4.566   1.941  23.835  0.00  0.00    +0.023 C 
ENDBRANCH   4  12
ENDBRANCH   7   4
BRANCH   9  11
ATOM     11  C   UNL     1       0.154   2.326  26.183  0.00  0.00    +0.138 C 
BRANCH  11   5
ATOM      3  O   UNL     1      -0.099   0.661  23.857  0.00  0.00    -0.270 OA
ATOM      5  N   UNL     1      -0.652   1.146  26.058  0.00  0.00    -0.309 N 
ATOM     15  C   UNL     1      -0.715   0.397  24.887  0.00  0.00    +0.244 C 
ATOM     23  H   UNL     1      -1.239   0.910  26.851  0.00  0.00    +0.149 HD
BRANCH  15  16
ATOM      6  N   UNL     1      -3.318  -3.001  24.949  0.00  0.00    -0.263 NA
ATOM     16  C   UNL     1      -1.617  -0.783  24.910  0.00  0.00    +0.040 A 
ATOM     17  C   UNL     1      -1.257  -1.950  24.245  0.00  0.00    +0.033 A 
ATOM     18  C   UNL     1      -2.826  -0.724  25.594  0.00  0.00    +0.033 A 
ATOM     19  C   UNL     1      -2.134  -3.021  24.295  0.00  0.00    +0.111 A 
ATOM     20  C   UNL     1      -3.634  -1.850  25.583  0.00  0.00    +0.111 A 
ENDBRANCH  15  16
ENDBRANCH  11   5
ENDBRANCH   9  11
TORSDOF 6
ENDMDL
MODEL 7
REMARK VINA RESULT:      -4.0      1.362      2.140
REMARK  Name = 75536786
REMARK  8 active torsions:
REMARK  status: ('A' for Active; 'I' for Inactive)
REMARK    1  A    between atoms: O_2  and  C_8
REMARK    2  A    between atoms: N_4  and  C_7
REMARK    3  A    between atoms: N_4  and  C_12
REMARK    4  A    between atoms: N_5  and  C_11
REMARK    5  A    between atoms: C_9  and  C_11
REMARK    6  A    between atoms: C_12  and  C_13
REMARK    7  A    between atoms: C_12  and  C_14
REMARK    8  A    between atoms: C_15  and  C_16
REMARK                            x       y       z     vdW  Elec       q    Type
REMARK                         _______ _______ _______ _____ _____    ______ ____
ROOT
ATOM      1  O   UNL     1      -1.751  -2.686  23.993  0.00  0.00    -0.371 OA
ATOM      7  C   UNL     1      -0.050  -1.059  24.313  0.00  0.00    +0.111 C 
ATOM      8  C   UNL     1      -1.213  -0.747  25.238  0.00  0.00    +0.164 C 
ATOM      9  C   UNL     1      -1.911  -2.100  25.296  0.00  0.00    +0.165 C 
ATOM     10  C   UNL     1      -0.710  -1.977  23.298  0.00  0.00    +0.181 C 
ENDROOT
BRANCH   8   2
ATOM      2  O   UNL     1      -0.792  -0.316  26.518  0.00  0.00    -0.388 OA
ATOM     22  H   UNL     1      -1.574  -0.255  27.093  0.00  0.00    +0.210 HD
ENDBRANCH   8   2
BRANCH   7   4
ATOM      4  N   UNL     1       0.546   0.121  23.707  0.00  0.00    -0.307 NA
ATOM     21  H   UNL     1       0.788   0.801  24.428  0.00  0.00    +0.123 HD
BRANCH   4  12
ATOM     12  C   UNL     1       1.731  -0.228  22.934  0.00  0.00    +0.048 C 
ATOM     13  C   UNL     1       1.344  -0.425  21.472  0.00  0.00    +0.023 C 
ATOM     14  C   UNL     1       2.795   0.857  23.078  0.00  0.00    +0.023 C 
ENDBRANCH   4  12
ENDBRANCH   7   4
BRANCH   9  11
ATOM     11  C   UNL     1      -3.387  -1.998  25.635  0.00  0.00    +0.138 C 
BRANCH  11   5
ATOM      3  O   UNL     1      -4.036  -0.256  23.447  0.00  0.00    -0.270 OA
ATOM      5  N   UNL     1      -3.809  -0.631  25.726  0.00  0.00    -0.309 N 
ATOM     15  C   UNL     1      -4.104   0.143  24.607  0.00  0.00    +0.244 C 
ATOM     23  H   UNL     1      -3.821  -0.218  26.652  0.00  0.00    +0.149 HD
BRANCH  15  16
ATOM      6  N   UNL     1      -5.251   4.199  25.350  0.00  0.00    -0.263 NA
ATOM     16  C   UNL     1      -4.502   1.550  24.867  0.00  0.00    +0.040 A 
ATOM     17  C   UNL     1      -5.703   1.829  25.510  0.00  0.00    +0.033 A 
ATOM     18  C   UNL     1      -3.675   2.594  24.465  0.00  0.00    +0.033 A 
ATOM     19  C   UNL     1      -6.028   3.158  25.726  0.00  0.00    +0.111 A 
ATOM     20  C   UNL     1      -4.092   3.890  24.728  0.00  0.00    +0.111 A 
ENDBRANCH  15  16
ENDBRANCH  11   5
ENDBRANCH   9  11
TORSDOF 6
ENDMDL
MODEL 8
REMARK VINA RESULT:      -3.5      1.812      2.558
REMARK  Name = 75536786
REMARK  8 active torsions:
REMARK  status: ('A' for Active; 'I' for Inactive)
REMARK    1  A    between atoms: O_2  and  C_8
REMARK    2  A    between atoms: N_4  and  C_7
REMARK    3  A    between atoms: N_4  and  C_12
REMARK    4  A    between atoms: N_5  and  C_11
REMARK    5  A    between atoms: C_9  and  C_11
REMARK    6  A    between atoms: C_12  and  C_13
REMARK    7  A    between atoms: C_12  and  C_14
REMARK    8  A    between atoms: C_15  and  C_16
REMARK                            x       y       z     vdW  Elec       q    Type
REMARK                         _______ _______ _______ _____ _____    ______ ____
ROOT
ATOM      1  O   UNL     1      -2.870  -2.248  24.194  0.00  0.00    -0.371 OA
ATOM      7  C   UNL     1      -0.626  -1.871  24.877  0.00  0.00    +0.111 C 
ATOM      8  C   UNL     1      -1.520  -0.825  25.516  0.00  0.00    +0.164 C 
ATOM      9  C   UNL     1      -2.880  -1.505  25.425  0.00  0.00    +0.165 C 
ATOM     10  C   UNL     1      -1.510  -2.371  23.745  0.00  0.00    +0.181 C 
ENDROOT
BRANCH   8   2
ATOM      2  O   UNL     1      -1.160  -0.543  26.855  0.00  0.00    -0.388 OA
ATOM     22  H   UNL     1      -0.957  -1.383  27.301  0.00  0.00    +0.210 HD
ENDBRANCH   8   2
BRANCH   7   4
ATOM      4  N   UNL     1       0.647  -1.346  24.412  0.00  0.00    -0.307 NA
ATOM     21  H   UNL     1       1.196  -2.089  23.980  0.00  0.00    +0.123 HD
BRANCH   4  12
ATOM     12  C   UNL     1       0.451  -0.257  23.462  0.00  0.00    +0.048 C 
ATOM     13  C   UNL     1       0.662   1.077  24.169  0.00  0.00    +0.023 C 
ATOM     14  C   UNL     1       1.404  -0.408  22.279  0.00  0.00    +0.023 C 
ENDBRANCH   4  12
ENDBRANCH   7   4
BRANCH   9  11
ATOM     11  C   UNL     1      -4.041  -0.527  25.426  0.00  0.00    +0.138 C 
BRANCH  11   5
ATOM      3  O   UNL     1      -3.113   1.190  23.320  0.00  0.00    -0.270 OA
ATOM      5  N   UNL     1      -3.584   0.825  25.563  0.00  0.00    -0.309 N 
ATOM     15  C   UNL     1      -3.150   1.587  24.482  0.00  0.00    +0.244 C 
ATOM     23  H   UNL     1      -3.525   1.192  26.506  0.00  0.00    +0.149 HD
BRANCH  15  16
ATOM      6  N   UNL     1      -1.803   5.549  25.385  0.00  0.00    -0.263 NA
ATOM     16  C   UNL     1      -2.683   2.963  24.794  0.00  0.00    +0.040 A 
ATOM     17  C   UNL     1      -1.438   3.395  24.350  0.00  0.00    +0.033 A 
ATOM     18  C   UNL     1      -3.489   3.823  25.532  0.00  0.00    +0.033 A 
ATOM     19  C   UNL     1      -1.048   4.685  24.669  0.00  0.00    +0.111 A 
ATOM     20  C   UNL     1      -3.007   5.094  25.799  0.00  0.00    +0.111 A 
ENDBRANCH  15  16
ENDBRANCH  11   5
ENDBRANCH   9  11
TORSDOF 6
ENDMDL
MODEL 9
REMARK VINA RESULT:      -3.1      2.964      3.805
REMARK  Name = 75536786
REMARK  8 active torsions:
REMARK  status: ('A' for Active; 'I' for Inactive)
REMARK    1  A    between atoms: O_2  and  C_8
REMARK    2  A    between atoms: N_4  and  C_7
REMARK    3  A    between atoms: N_4  and  C_12
REMARK    4  A    between atoms: N_5  and  C_11
REMARK    5  A    between atoms: C_9  and  C_11
REMARK    6  A    between atoms: C_12  and  C_13
REMARK    7  A    between atoms: C_12  and  C_14
REMARK    8  A    between atoms: C_15  and  C_16
REMARK                            x       y       z     vdW  Elec       q    Type
REMARK                         _______ _______ _______ _____ _____    ______ ____
ROOT
ATOM      1  O   UNL     1       1.196   1.542  24.022  0.00  0.00    -0.371 OA
ATOM      7  C   UNL     1       2.724   0.727  22.397  0.00  0.00    +0.111 C 
ATOM      8  C   UNL     1       1.541  -0.220  22.482  0.00  0.00    +0.164 C 
ATOM      9  C   UNL     1       0.489   0.683  23.113  0.00  0.00    +0.165 C 
ATOM     10  C   UNL     1       2.598   1.486  23.708  0.00  0.00    +0.181 C 
ENDROOT
BRANCH   8   2
ATOM      2  O   UNL     1       1.133  -0.700  21.216  0.00  0.00    -0.388 OA
ATOM     22  H   UNL     1       0.771  -1.595  21.329  0.00  0.00    +0.210 HD
ENDBRANCH   8   2
BRANCH   7   4
ATOM      4  N   UNL     1       4.003   0.051  22.254  0.00  0.00    -0.307 NA
ATOM     21  H   UNL     1       4.632   0.609  21.676  0.00  0.00    +0.123 HD
BRANCH   4  12
ATOM     12  C   UNL     1       4.614  -0.198  23.555  0.00  0.00    +0.048 C 
ATOM     13  C   UNL     1       4.484  -1.677  23.901  0.00  0.00    +0.023 C 
ATOM     14  C   UNL     1       6.077   0.237  23.544  0.00  0.00    +0.023 C 
ENDBRANCH   4  12
ENDBRANCH   7   4
BRANCH   9  11
ATOM     11  C   UNL     1      -0.587  -0.083  23.862  0.00  0.00    +0.138 C 
BRANCH  11   5
ATOM      3  O   UNL     1      -3.413  -0.594  23.879  0.00  0.00    -0.270 OA
ATOM      5  N   UNL     1      -1.613   0.795  24.344  0.00  0.00    -0.309 N 
ATOM     15  C   UNL     1      -2.965   0.464  24.314  0.00  0.00    +0.244 C 
ATOM     23  H   UNL     1      -1.317   1.714  24.654  0.00  0.00    +0.149 HD
BRANCH  15  16
ATOM      6  N   UNL     1      -5.675   3.428  25.796  0.00  0.00    -0.263 NA
ATOM     16  C   UNL     1      -3.905   1.494  24.826  0.00  0.00    +0.040 A 
ATOM     17  C   UNL     1      -3.472   2.800  25.022  0.00  0.00    +0.033 A 
ATOM     18  C   UNL     1      -5.223   1.153  25.114  0.00  0.00    +0.033 A 
ATOM     19  C   UNL     1      -4.387   3.721  25.504  0.00  0.00    +0.111 A 
ATOM     20  C   UNL     1      -6.060   2.148  25.593  0.00  0.00    +0.111 A 
ENDBRANCH  15  16
ENDBRANCH  11   5
ENDBRANCH   9  11
TORSDOF 6
ENDMDL
MODEL 10
REMARK VINA RESULT:      -2.4      2.857      3.548
REMARK  Name = 75536786
REMARK  8 active torsions:
REMARK  status: ('A' for Active; 'I' for Inactive)
REMARK    1  A    between atoms: O_2  and  C_8
REMARK    2  A    between atoms: N_4  and  C_7
REMARK    3  A    between atoms: N_4  and  C_12
REMARK    4  A    between atoms: N_5  and  C_11
REMARK    5  A    between atoms: C_9  and  C_11
REMARK    6  A    between atoms: C_12  and  C_13
REMARK    7  A    between atoms: C_12  and  C_14
REMARK    8  A    between atoms: C_15  and  C_16
REMARK                            x       y       z     vdW  Elec       q    Type
REMARK                         _______ _______ _______ _____ _____    ______ ____
ROOT
ATOM      1  O   UNL     1       0.470  -0.348  22.031  0.00  0.00    -0.371 OA
ATOM      7  C   UNL     1       2.271   0.341  23.418  0.00  0.00    +0.111 C 
ATOM      8  C   UNL     1       1.131   1.333  23.559  0.00  0.00    +0.164 C 
ATOM      9  C   UNL     1      -0.046   0.497  23.074  0.00  0.00    +0.165 C 
ATOM     10  C   UNL     1       1.905  -0.356  22.117  0.00  0.00    +0.181 C 
ENDROOT
BRANCH   8   2
ATOM      2  O   UNL     1       0.952   1.772  24.891  0.00  0.00    -0.388 OA
ATOM     22  H   UNL     1       1.255   2.693  24.954  0.00  0.00    +0.210 HD
ENDBRANCH   8   2
BRANCH   7   4
ATOM      4  N   UNL     1       3.584   0.964  23.377  0.00  0.00    -0.307 NA
ATOM     21  H   UNL     1       3.751   1.488  24.235  0.00  0.00    +0.123 HD
BRANCH   4  12
ATOM     12  C   UNL     1       4.633  -0.033  23.193  0.00  0.00    +0.048 C 
ATOM     13  C   UNL     1       5.940   0.491  23.777  0.00  0.00    +0.023 C 
ATOM     14  C   UNL     1       4.230  -1.352  23.848  0.00  0.00    +0.023 C 
ENDBRANCH   4  12
ENDBRANCH   7   4
BRANCH   9  11
ATOM     11  C   UNL     1      -1.194   1.332  22.537  0.00  0.00    +0.138 C 
BRANCH  11   5
ATOM      3  O   UNL     1      -3.524   2.997  22.320  0.00  0.00    -0.270 OA
ATOM      5  N   UNL     1      -2.230   1.487  23.516  0.00  0.00    -0.309 N 
ATOM     15  C   UNL     1      -3.328   2.319  23.327  0.00  0.00    +0.244 C 
ATOM     23  H   UNL     1      -2.096   1.008  24.400  0.00  0.00    +0.149 HD
BRANCH  15  16
ATOM      6  N   UNL     1      -6.126   2.521  26.561  0.00  0.00    -0.263 NA
ATOM     16  C   UNL     1      -4.301   2.390  24.448  0.00  0.00    +0.040 A 
ATOM     17  C   UNL     1      -4.512   3.593  25.114  0.00  0.00    +0.033 A 
ATOM     18  C   UNL     1      -5.001   1.254  24.837  0.00  0.00    +0.033 A 
ATOM     19  C   UNL     1      -5.427   3.605  26.154  0.00  0.00    +0.111 A 
ATOM     20  C   UNL     1      -5.894   1.370  25.890  0.00  0.00    +0.111 A 
ENDBRANCH  15  16
ENDBRANCH  11   5
ENDBRANCH   9  11
TORSDOF 6
ENDMDL
