MODEL 1
REMARK VINA RESULT:      12.5      0.000      0.000
REMARK  Name = 7142823
REMARK  2 active torsions:
REMARK  status: ('A' for Active; 'I' for Inactive)
REMARK    1  A    between atoms: N_8  and  C_19
REMARK    2  A    between atoms: C_23  and  C_25
REMARK                            x       y       z     vdW  Elec       q    Type
REMARK                         _______ _______ _______ _____ _____    ______ ____
ROOT
ATOM      2  O   UNL     1      -0.292  -0.441  22.312  0.00  0.00    -0.266 OA
ATOM      4  N   UNL     1      -4.081   1.586  24.928  0.00  0.00    -0.299 N 
ATOM      5  N   UNL     1      -2.050  -0.632  23.839  0.00  0.00    -0.310 N 
ATOM      6  N   UNL     1      -3.706   3.218  26.590  0.00  0.00    -0.223 NA
ATOM      7  N   UNL     1      -3.659   3.807  24.255  0.00  0.00    -0.223 NA
ATOM      9  C   UNL     1      -4.488  -0.169  23.212  0.00  0.00    +0.027 C 
ATOM     10  C   UNL     1      -3.925  -0.817  25.510  0.00  0.00    +0.054 C 
ATOM     11  C   UNL     1      -4.822  -1.153  24.323  0.00  0.00    +0.018 C 
ATOM     12  C   UNL     1      -4.753   1.281  23.661  0.00  0.00    +0.113 C 
ATOM     13  C   UNL     1      -3.033  -0.385  22.776  0.00  0.00    +0.130 C 
ATOM     14  C   UNL     1      -4.243   0.606  26.012  0.00  0.00    +0.117 C 
ATOM     15  C   UNL     1      -2.457  -0.922  25.144  0.00  0.00    +0.027 A 
ATOM     16  C   UNL     1      -1.549  -1.263  26.075  0.00  0.00    +0.024 A 
ATOM     17  C   UNL     1      -0.695  -0.670  23.453  0.00  0.00    +0.273 A 
ATOM     18  C   UNL     1      -3.807   2.913  25.269  0.00  0.00    +0.218 A 
ATOM     19  C   UNL     1       0.287  -1.029  24.525  0.00  0.00    +0.099 A 
ATOM     20  C   UNL     1      -0.150  -1.315  25.756  0.00  0.00    +0.030 A 
ATOM     21  C   UNL     1      -3.440   4.509  26.883  0.00  0.00    +0.116 A 
ATOM     22  C   UNL     1      -3.395   5.079  24.618  0.00  0.00    +0.116 A 
ATOM     24  C   UNL     1      -3.273   5.492  25.930  0.00  0.00    +0.039 A 
ENDROOT
BRANCH  19   8
ATOM      3  O   UNL     1       1.858   1.185  23.645  0.00  0.00    -0.270 OA
ATOM      8  N   UNL     1       1.611  -1.060  24.196  0.00  0.00    -0.277 N 
ATOM     23  C   UNL     1       2.320   0.055  23.774  0.00  0.00    +0.248 C 
ATOM     31  H   UNL     1       2.018  -1.987  24.137  0.00  0.00    +0.155 HD
BRANCH  23  25
ATOM      1  F   UNL     1       7.731  -0.788  22.684  0.00  0.00    -0.205 F 
ATOM     25  C   UNL     1       3.760  -0.170  23.483  0.00  0.00    +0.037 A 
ATOM     26  C   UNL     1       4.334  -1.371  23.846  0.00  0.00    +0.016 A 
ATOM     27  C   UNL     1       4.477   0.830  22.861  0.00  0.00    +0.016 A 
ATOM     28  C   UNL     1       5.685  -1.582  23.574  0.00  0.00    +0.039 A 
ATOM     29  C   UNL     1       5.829   0.620  22.589  0.00  0.00    +0.039 A 
ATOM     30  C   UNL     1       6.434  -0.586  22.946  0.00  0.00    +0.123 A 
ENDBRANCH  23  25
ENDBRANCH  19   8
TORSDOF 2
ENDMDL
MODEL 2
REMARK VINA RESULT:      12.8      2.008      4.172
REMARK  Name = 7142823
REMARK  2 active torsions:
REMARK  status: ('A' for Active; 'I' for Inactive)
REMARK    1  A    between atoms: N_8  and  C_19
REMARK    2  A    between atoms: C_23  and  C_25
REMARK                            x       y       z     vdW  Elec       q    Type
REMARK                         _______ _______ _______ _____ _____    ______ ____
ROOT
ATOM      2  O   UNL     1       0.861   1.993  25.971  0.00  0.00    -0.266 OA
ATOM      4  N   UNL     1      -3.847   0.707  24.750  0.00  0.00    -0.299 N 
ATOM      5  N   UNL     1      -1.140   2.409  24.838  0.00  0.00    -0.310 N 
ATOM      6  N   UNL     1      -4.314  -1.229  23.484  0.00  0.00    -0.223 NA
ATOM      7  N   UNL     1      -3.797  -1.390  25.832  0.00  0.00    -0.223 NA
ATOM      9  C   UNL     1      -3.367   2.777  26.045  0.00  0.00    +0.027 C 
ATOM     10  C   UNL     1      -3.290   2.825  23.593  0.00  0.00    +0.054 C 
ATOM     11  C   UNL     1      -3.740   3.605  24.824  0.00  0.00    +0.018 C 
ATOM     12  C   UNL     1      -4.073   1.407  26.018  0.00  0.00    +0.113 C 
ATOM     13  C   UNL     1      -1.840   2.641  26.108  0.00  0.00    +0.130 C 
ATOM     14  C   UNL     1      -4.052   1.487  23.522  0.00  0.00    +0.117 C 
ATOM     15  C   UNL     1      -1.795   2.570  23.614  0.00  0.00    +0.027 A 
ATOM     16  C   UNL     1      -1.108   2.469  22.462  0.00  0.00    +0.024 A 
ATOM     17  C   UNL     1       0.238   2.126  24.917  0.00  0.00    +0.273 A 
ATOM     18  C   UNL     1      -3.991  -0.682  24.687  0.00  0.00    +0.218 A 
ATOM     19  C   UNL     1       0.961   1.996  23.611  0.00  0.00    +0.099 A 
ATOM     20  C   UNL     1       0.297   2.174  22.465  0.00  0.00    +0.030 A 
ATOM     21  C   UNL     1      -4.445  -2.572  23.459  0.00  0.00    +0.116 A 
ATOM     22  C   UNL     1      -3.943  -2.727  25.736  0.00  0.00    +0.116 A 
ATOM     24  C   UNL     1      -4.270  -3.380  24.565  0.00  0.00    +0.039 A 
ENDROOT
BRANCH  19   8
ATOM      3  O   UNL     1       2.206  -0.331  22.524  0.00  0.00    -0.270 OA
ATOM      8  N   UNL     1       2.294   1.705  23.644  0.00  0.00    -0.277 N 
ATOM     23  C   UNL     1       2.839   0.554  23.095  0.00  0.00    +0.248 C 
ATOM     31  H   UNL     1       2.854   2.317  24.228  0.00  0.00    +0.155 HD
BRANCH  23  25
ATOM      1  F   UNL     1       8.384   0.058  23.518  0.00  0.00    -0.205 F 
ATOM     25  C   UNL     1       4.315   0.422  23.207  0.00  0.00    +0.037 A 
ATOM     26  C   UNL     1       4.987  -0.355  22.287  0.00  0.00    +0.016 A 
ATOM     27  C   UNL     1       4.966   1.081  24.229  0.00  0.00    +0.016 A 
ATOM     28  C   UNL     1       6.372  -0.479  22.392  0.00  0.00    +0.039 A 
ATOM     29  C   UNL     1       6.351   0.957  24.335  0.00  0.00    +0.039 A 
ATOM     30  C   UNL     1       7.054   0.177  23.417  0.00  0.00    +0.123 A 
ENDBRANCH  23  25
ENDBRANCH  19   8
TORSDOF 2
ENDMDL
