MODEL 1
REMARK VINA RESULT:      -4.9      0.000      0.000
REMARK  Name = 11886052
REMARK  3 active torsions:
REMARK  status: ('A' for Active; 'I' for Inactive)
REMARK    1  A    between atoms: O_3  and  C_13
REMARK    2  A    between atoms: N_6  and  C_12
REMARK    3  A    between atoms: C_16  and  C_17
REMARK                            x       y       z     vdW  Elec       q    Type
REMARK                         _______ _______ _______ _____ _____    ______ ____
ROOT
ATOM      6  N   UNL     1      -2.722  -1.470  24.746  0.00  0.00    -0.217 N 
ATOM      7  N   UNL     1      -2.580  -2.738  24.343  0.00  0.00    -0.043 NA
ATOM      8  N   UNL     1      -4.625  -1.993  23.862  0.00  0.00    -0.108 NA
ATOM      9  N   UNL     1      -3.750  -3.054  23.802  0.00  0.00    -0.023 NA
ATOM     16  C   UNL     1      -3.965  -1.022  24.451  0.00  0.00    +0.182 A 
ENDROOT
BRANCH  16  17
ATOM      4  O   UNL     1      -3.666   3.749  23.872  0.00  0.00    -0.485 OA
ATOM      5  O   UNL     1      -5.884   4.093  25.681  0.00  0.00    -0.485 OA
ATOM     17  C   UNL     1      -4.453   0.302  24.748  0.00  0.00    +0.024 A 
ATOM     18  C   UNL     1      -3.828   1.417  24.186  0.00  0.00    +0.061 A 
ATOM     19  C   UNL     1      -5.551   0.467  25.593  0.00  0.00    +0.015 A 
ATOM     20  C   UNL     1      -4.307   2.696  24.469  0.00  0.00    +0.163 A 
ATOM     21  C   UNL     1      -5.390   2.862  25.338  0.00  0.00    +0.162 A 
ATOM     22  C   UNL     1      -6.020   1.747  25.888  0.00  0.00    +0.050 A 
ATOM     23  C   UNL     1      -4.434   4.954  23.948  0.00  0.00    +0.270 C 
ATOM     24  C   UNL     1      -4.972   5.146  25.352  0.00  0.00    +0.270 C 
ENDBRANCH  16  17
BRANCH   6  12
ATOM      1  O   UNL     1       0.441  -0.757  24.182  0.00  0.00    -0.369 OA
ATOM      2  O   UNL     1      -0.868   1.485  25.862  0.00  0.00    -0.369 OA
ATOM     10  C   UNL     1      -1.387   0.617  24.831  0.00  0.00    +0.176 C 
ATOM     11  C   UNL     1      -0.278   0.432  23.814  0.00  0.00    +0.180 C 
ATOM     12  C   UNL     1      -1.615  -0.769  25.401  0.00  0.00    +0.168 C 
ATOM     13  C   UNL     1       0.561   1.673  24.008  0.00  0.00    +0.171 C 
ATOM     14  C   UNL     1      -0.247  -1.424  25.250  0.00  0.00    +0.190 C 
ATOM     15  C   UNL     1       0.457   1.897  25.498  0.00  0.00    +0.194 C 
BRANCH  13   3
ATOM      3  O   UNL     1       1.897   1.522  23.584  0.00  0.00    -0.387 OA
ATOM     25  H   UNL     1       1.997   2.015  22.751  0.00  0.00    +0.210 HD
ENDBRANCH  13   3
ENDBRANCH   6  12
TORSDOF 3
ENDMDL
MODEL 2
REMARK VINA RESULT:      -4.8     20.092     21.181
REMARK  Name = 11886052
REMARK  3 active torsions:
REMARK  status: ('A' for Active; 'I' for Inactive)
REMARK    1  A    between atoms: O_3  and  C_13
REMARK    2  A    between atoms: N_6  and  C_12
REMARK    3  A    between atoms: C_16  and  C_17
REMARK                            x       y       z     vdW  Elec       q    Type
REMARK                         _______ _______ _______ _____ _____    ______ ____
ROOT
ATOM      6  N   UNL     1      16.518  -7.487  27.079  0.00  0.00    -0.217 N 
ATOM      7  N   UNL     1      16.516  -8.754  27.506  0.00  0.00    -0.043 NA
ATOM      8  N   UNL     1      17.191  -8.650  25.384  0.00  0.00    -0.108 NA
ATOM      9  N   UNL     1      16.929  -9.463  26.464  0.00  0.00    -0.023 NA
ATOM     16  C   UNL     1      16.928  -7.428  25.789  0.00  0.00    +0.182 A 
ENDROOT
BRANCH  16  17
ATOM      4  O   UNL     1      16.921  -2.617  25.575  0.00  0.00    -0.485 OA
ATOM      5  O   UNL     1      17.354  -2.758  22.728  0.00  0.00    -0.485 OA
ATOM     17  C   UNL     1      17.047  -6.215  25.018  0.00  0.00    +0.024 A 
ATOM     18  C   UNL     1      16.916  -4.976  25.646  0.00  0.00    +0.061 A 
ATOM     19  C   UNL     1      17.294  -6.283  23.647  0.00  0.00    +0.015 A 
ATOM     20  C   UNL     1      17.037  -3.804  24.899  0.00  0.00    +0.163 A 
ATOM     21  C   UNL     1      17.259  -3.872  23.521  0.00  0.00    +0.162 A 
ATOM     22  C   UNL     1      17.402  -5.112  22.897  0.00  0.00    +0.050 A 
ATOM     23  C   UNL     1      17.398  -1.513  24.800  0.00  0.00    +0.270 C 
ATOM     24  C   UNL     1      16.857  -1.590  23.386  0.00  0.00    +0.270 C 
ENDBRANCH  16  17
BRANCH   6  12
ATOM      1  O   UNL     1      15.335  -7.091  30.123  0.00  0.00    -0.369 OA
ATOM      2  O   UNL     1      17.098  -4.671  29.350  0.00  0.00    -0.369 OA
ATOM     10  C   UNL     1      17.171  -6.073  29.008  0.00  0.00    +0.176 C 
ATOM     11  C   UNL     1      16.746  -6.847  30.240  0.00  0.00    +0.180 C 
ATOM     12  C   UNL     1      16.113  -6.399  27.972  0.00  0.00    +0.168 C 
ATOM     13  C   UNL     1      17.055  -5.882  31.361  0.00  0.00    +0.171 C 
ATOM     14  C   UNL     1      14.881  -6.680  28.825  0.00  0.00    +0.190 C 
ATOM     15  C   UNL     1      16.729  -4.549  30.730  0.00  0.00    +0.194 C 
BRANCH  13   3
ATOM      3  O   UNL     1      16.301  -6.116  32.529  0.00  0.00    -0.387 OA
ATOM     25  H   UNL     1      15.878  -6.987  32.435  0.00  0.00    +0.210 HD
ENDBRANCH  13   3
ENDBRANCH   6  12
TORSDOF 3
ENDMDL
MODEL 3
REMARK VINA RESULT:      -4.4      1.589      5.901
REMARK  Name = 11886052
REMARK  3 active torsions:
REMARK  status: ('A' for Active; 'I' for Inactive)
REMARK    1  A    between atoms: O_3  and  C_13
REMARK    2  A    between atoms: N_6  and  C_12
REMARK    3  A    between atoms: C_16  and  C_17
REMARK                            x       y       z     vdW  Elec       q    Type
REMARK                         _______ _______ _______ _____ _____    ______ ____
ROOT
ATOM      6  N   UNL     1      -3.254  -0.155  24.829  0.00  0.00    -0.217 N 
ATOM      7  N   UNL     1      -4.160  -0.984  25.360  0.00  0.00    -0.043 NA
ATOM      8  N   UNL     1      -2.105  -1.809  25.618  0.00  0.00    -0.108 NA
ATOM      9  N   UNL     1      -3.451  -1.996  25.842  0.00  0.00    -0.023 NA
ATOM     16  C   UNL     1      -2.008  -0.661  24.988  0.00  0.00    +0.182 A 
ENDROOT
BRANCH  16  17
ATOM      4  O   UNL     1       1.990  -0.757  22.304  0.00  0.00    -0.485 OA
ATOM      5  O   UNL     1       2.697   1.858  23.291  0.00  0.00    -0.485 OA
ATOM     17  C   UNL     1      -0.798  -0.023  24.531  0.00  0.00    +0.024 A 
ATOM     18  C   UNL     1       0.046  -0.687  23.640  0.00  0.00    +0.061 A 
ATOM     19  C   UNL     1      -0.475   1.258  24.979  0.00  0.00    +0.015 A 
ATOM     20  C   UNL     1       1.212  -0.065  23.195  0.00  0.00    +0.163 A 
ATOM     21  C   UNL     1       1.549   1.208  23.664  0.00  0.00    +0.162 A 
ATOM     22  C   UNL     1       0.698   1.875  24.545  0.00  0.00    +0.050 A 
ATOM     23  C   UNL     1       2.948   0.089  21.661  0.00  0.00    +0.270 C 
ATOM     24  C   UNL     1       3.640   0.970  22.683  0.00  0.00    +0.270 C 
ENDBRANCH  16  17
BRANCH   6  12
ATOM      1  O   UNL     1      -5.816   1.909  24.866  0.00  0.00    -0.369 OA
ATOM      2  O   UNL     1      -3.208   3.468  24.291  0.00  0.00    -0.369 OA
ATOM     10  C   UNL     1      -3.483   2.299  25.094  0.00  0.00    +0.176 C 
ATOM     11  C   UNL     1      -4.842   2.514  25.731  0.00  0.00    +0.180 C 
ATOM     12  C   UNL     1      -3.672   1.096  24.192  0.00  0.00    +0.168 C 
ATOM     13  C   UNL     1      -4.966   4.019  25.746  0.00  0.00    +0.171 C 
ATOM     14  C   UNL     1      -5.150   1.179  23.825  0.00  0.00    +0.190 C 
ATOM     15  C   UNL     1      -4.278   4.408  24.459  0.00  0.00    +0.194 C 
BRANCH  13   3
ATOM      3  O   UNL     1      -6.300   4.473  25.795  0.00  0.00    -0.387 OA
ATOM     25  H   UNL     1      -6.766   3.944  26.465  0.00  0.00    +0.210 HD
ENDBRANCH  13   3
ENDBRANCH   6  12
TORSDOF 3
ENDMDL
MODEL 4
REMARK VINA RESULT:      -3.6      2.838      5.055
REMARK  Name = 11886052
REMARK  3 active torsions:
REMARK  status: ('A' for Active; 'I' for Inactive)
REMARK    1  A    between atoms: O_3  and  C_13
REMARK    2  A    between atoms: N_6  and  C_12
REMARK    3  A    between atoms: C_16  and  C_17
REMARK                            x       y       z     vdW  Elec       q    Type
REMARK                         _______ _______ _______ _____ _____    ______ ____
ROOT
ATOM      6  N   UNL     1      -4.543   2.962  25.150  0.00  0.00    -0.217 N 
ATOM      7  N   UNL     1      -5.439   3.867  25.559  0.00  0.00    -0.043 NA
ATOM      8  N   UNL     1      -6.226   1.803  25.858  0.00  0.00    -0.108 NA
ATOM      9  N   UNL     1      -6.468   3.151  25.992  0.00  0.00    -0.023 NA
ATOM     16  C   UNL     1      -5.026   1.710  25.333  0.00  0.00    +0.182 A 
ENDROOT
BRANCH  16  17
ATOM      4  O   UNL     1      -1.097  -1.051  25.702  0.00  0.00    -0.485 OA
ATOM      5  O   UNL     1      -2.317  -2.994  23.956  0.00  0.00    -0.485 OA
ATOM     17  C   UNL     1      -4.318   0.499  24.998  0.00  0.00    +0.024 A 
ATOM     18  C   UNL     1      -3.030   0.286  25.491  0.00  0.00    +0.061 A 
ATOM     19  C   UNL     1      -4.923  -0.459  24.184  0.00  0.00    +0.015 A 
ATOM     20  C   UNL     1      -2.350  -0.889  25.171  0.00  0.00    +0.163 A 
ATOM     21  C   UNL     1      -2.946  -1.837  24.333  0.00  0.00    +0.162 A 
ATOM     22  C   UNL     1      -4.238  -1.628  23.852  0.00  0.00    +0.050 A 
ATOM     23  C   UNL     1      -0.646  -2.405  25.601  0.00  0.00    +0.270 C 
ATOM     24  C   UNL     1      -0.910  -2.944  24.209  0.00  0.00    +0.270 C 
ENDBRANCH  16  17
BRANCH   6  12
ATOM      1  O   UNL     1      -1.623   4.035  26.220  0.00  0.00    -0.369 OA
ATOM      2  O   UNL     1      -1.267   2.437  23.597  0.00  0.00    -0.369 OA
ATOM     10  C   UNL     1      -2.196   2.304  24.695  0.00  0.00    +0.176 C 
ATOM     11  C   UNL     1      -1.429   2.635  25.960  0.00  0.00    +0.180 C 
ATOM     12  C   UNL     1      -3.254   3.386  24.598  0.00  0.00    +0.168 C 
ATOM     13  C   UNL     1      -0.002   2.331  25.572  0.00  0.00    +0.171 C 
ATOM     14  C   UNL     1      -2.597   4.564  25.309  0.00  0.00    +0.190 C 
ATOM     15  C   UNL     1       0.030   2.753  24.122  0.00  0.00    +0.194 C 
BRANCH  13   3
ATOM      3  O   UNL     1       0.952   3.021  26.347  0.00  0.00    -0.387 OA
ATOM     25  H   UNL     1       1.791   2.534  26.282  0.00  0.00    +0.210 HD
ENDBRANCH  13   3
ENDBRANCH   6  12
TORSDOF 3
ENDMDL
MODEL 5
REMARK VINA RESULT:      -3.5      2.711      4.306
REMARK  Name = 11886052
REMARK  3 active torsions:
REMARK  status: ('A' for Active; 'I' for Inactive)
REMARK    1  A    between atoms: O_3  and  C_13
REMARK    2  A    between atoms: N_6  and  C_12
REMARK    3  A    between atoms: C_16  and  C_17
REMARK                            x       y       z     vdW  Elec       q    Type
REMARK                         _______ _______ _______ _____ _____    ______ ____
ROOT
ATOM      6  N   UNL     1       0.686  -0.361  23.896  0.00  0.00    -0.217 N 
ATOM      7  N   UNL     1       1.725  -0.846  23.208  0.00  0.00    -0.043 NA
ATOM      8  N   UNL     1       1.709   1.382  23.126  0.00  0.00    -0.108 NA
ATOM      9  N   UNL     1       2.349   0.226  22.738  0.00  0.00    -0.023 NA
ATOM     16  C   UNL     1       0.680   0.993  23.844  0.00  0.00    +0.182 A 
ENDROOT
BRANCH  16  17
ATOM      4  O   UNL     1      -3.631   3.137  23.772  0.00  0.00    -0.485 OA
ATOM      5  O   UNL     1      -3.073   4.311  26.345  0.00  0.00    -0.485 OA
ATOM     17  C   UNL     1      -0.303   1.836  24.478  0.00  0.00    +0.024 A 
ATOM     18  C   UNL     1      -1.508   2.110  23.830  0.00  0.00    +0.061 A 
ATOM     19  C   UNL     1      -0.048   2.373  25.740  0.00  0.00    +0.015 A 
ATOM     20  C   UNL     1      -2.459   2.921  24.448  0.00  0.00    +0.163 A 
ATOM     21  C   UNL     1      -2.193   3.481  25.702  0.00  0.00    +0.162 A 
ATOM     22  C   UNL     1      -0.994   3.195  26.353  0.00  0.00    +0.050 A 
ATOM     23  C   UNL     1      -4.647   3.675  24.624  0.00  0.00    +0.270 C 
ATOM     24  C   UNL     1      -4.085   4.805  25.463  0.00  0.00    +0.270 C 
ENDBRANCH  16  17
BRANCH   6  12
ATOM      1  O   UNL     1      -2.170  -0.211  25.524  0.00  0.00    -0.369 OA
ATOM      2  O   UNL     1      -1.938  -2.914  24.040  0.00  0.00    -0.369 OA
ATOM     10  C   UNL     1      -1.461  -1.588  23.720  0.00  0.00    +0.176 C 
ATOM     11  C   UNL     1      -2.525  -0.615  24.191  0.00  0.00    +0.180 C 
ATOM     12  C   UNL     1      -0.248  -1.265  24.571  0.00  0.00    +0.168 C 
ATOM     13  C   UNL     1      -3.776  -1.460  24.179  0.00  0.00    +0.171 C 
ATOM     14  C   UNL     1      -0.870  -0.723  25.853  0.00  0.00    +0.190 C 
ATOM     15  C   UNL     1      -3.252  -2.811  24.605  0.00  0.00    +0.194 C 
BRANCH  13   3
ATOM      3  O   UNL     1      -4.785  -0.985  25.041  0.00  0.00    -0.387 OA
ATOM     25  H   UNL     1      -4.388  -0.868  25.921  0.00  0.00    +0.210 HD
ENDBRANCH  13   3
ENDBRANCH   6  12
TORSDOF 3
ENDMDL
MODEL 6
REMARK VINA RESULT:      -2.7     19.847     21.119
REMARK  Name = 11886052
REMARK  3 active torsions:
REMARK  status: ('A' for Active; 'I' for Inactive)
REMARK    1  A    between atoms: O_3  and  C_13
REMARK    2  A    between atoms: N_6  and  C_12
REMARK    3  A    between atoms: C_16  and  C_17
REMARK                            x       y       z     vdW  Elec       q    Type
REMARK                         _______ _______ _______ _____ _____    ______ ____
ROOT
ATOM      6  N   UNL     1      15.908  -7.658  29.012  0.00  0.00    -0.217 N 
ATOM      7  N   UNL     1      15.888  -8.732  28.216  0.00  0.00    -0.043 NA
ATOM      8  N   UNL     1      16.968  -7.051  27.228  0.00  0.00    -0.108 NA
ATOM      9  N   UNL     1      16.540  -8.355  27.123  0.00  0.00    -0.023 NA
ATOM     16  C   UNL     1      16.565  -6.640  28.408  0.00  0.00    +0.182 A 
ENDROOT
BRANCH  16  17
ATOM      4  O   UNL     1      16.506  -3.738  32.251  0.00  0.00    -0.485 OA
ATOM      5  O   UNL     1      17.339  -1.538  30.584  0.00  0.00    -0.485 OA
ATOM     17  C   UNL     1      16.770  -5.335  28.988  0.00  0.00    +0.024 A 
ATOM     18  C   UNL     1      16.531  -5.132  30.348  0.00  0.00    +0.061 A 
ATOM     19  C   UNL     1      17.210  -4.279  28.189  0.00  0.00    +0.015 A 
ATOM     20  C   UNL     1      16.736  -3.871  30.907  0.00  0.00    +0.163 A 
ATOM     21  C   UNL     1      17.152  -2.807  30.101  0.00  0.00    +0.162 A 
ATOM     22  C   UNL     1      17.402  -3.015  28.745  0.00  0.00    +0.050 A 
ATOM     23  C   UNL     1      17.069  -2.531  32.773  0.00  0.00    +0.270 C 
ATOM     24  C   UNL     1      16.734  -1.361  31.869  0.00  0.00    +0.270 C 
ENDBRANCH  16  17
BRANCH   6  12
ATOM      1  O   UNL     1      12.904  -8.006  30.309  0.00  0.00    -0.369 OA
ATOM      2  O   UNL     1      15.026  -9.188  32.222  0.00  0.00    -0.369 OA
ATOM     10  C   UNL     1      14.955  -9.111  30.781  0.00  0.00    +0.176 C 
ATOM     11  C   UNL     1      13.500  -9.310  30.403  0.00  0.00    +0.180 C 
ATOM     12  C   UNL     1      15.274  -7.698  30.332  0.00  0.00    +0.168 C 
ATOM     13  C   UNL     1      12.956 -10.089  31.577  0.00  0.00    +0.171 C 
ATOM     14  C   UNL     1      13.921  -7.001  30.427  0.00  0.00    +0.190 C 
ATOM     15  C   UNL     1      13.723  -9.495  32.735  0.00  0.00    +0.194 C 
BRANCH  13   3
ATOM      3  O   UNL     1      11.562  -9.961  31.740  0.00  0.00    -0.387 OA
ATOM     25  H   UNL     1      11.393  -9.097  32.154  0.00  0.00    +0.210 HD
ENDBRANCH  13   3
ENDBRANCH   6  12
TORSDOF 3
ENDMDL
MODEL 7
REMARK VINA RESULT:      -2.5     19.628     21.058
REMARK  Name = 11886052
REMARK  3 active torsions:
REMARK  status: ('A' for Active; 'I' for Inactive)
REMARK    1  A    between atoms: O_3  and  C_13
REMARK    2  A    between atoms: N_6  and  C_12
REMARK    3  A    between atoms: C_16  and  C_17
REMARK                            x       y       z     vdW  Elec       q    Type
REMARK                         _______ _______ _______ _____ _____    ______ ____
ROOT
ATOM      6  N   UNL     1      16.999  -4.867  28.755  0.00  0.00    -0.217 N 
ATOM      7  N   UNL     1      17.365  -3.630  28.404  0.00  0.00    -0.043 NA
ATOM      8  N   UNL     1      16.143  -3.580  30.268  0.00  0.00    -0.108 NA
ATOM      9  N   UNL     1      16.838  -2.845  29.335  0.00  0.00    -0.023 NA
ATOM     16  C   UNL     1      16.257  -4.832  29.888  0.00  0.00    +0.182 A 
ENDROOT
BRANCH  16  17
ATOM      4  O   UNL     1      12.526  -7.773  30.678  0.00  0.00    -0.485 OA
ATOM      5  O   UNL     1      14.147  -9.318  32.493  0.00  0.00    -0.485 OA
ATOM     17  C   UNL     1      15.701  -5.991  30.542  0.00  0.00    +0.024 A 
ATOM     18  C   UNL     1      14.368  -6.342  30.321  0.00  0.00    +0.061 A 
ATOM     19  C   UNL     1      16.496  -6.761  31.391  0.00  0.00    +0.015 A 
ATOM     20  C   UNL     1      13.834  -7.467  30.950  0.00  0.00    +0.163 A 
ATOM     21  C   UNL     1      14.624  -8.223  31.821  0.00  0.00    +0.162 A 
ATOM     22  C   UNL     1      15.959  -7.878  32.030  0.00  0.00    +0.050 A 
ATOM     23  C   UNL     1      12.194  -9.104  31.084  0.00  0.00    +0.270 C 
ATOM     24  C   UNL     1      12.718  -9.373  32.481  0.00  0.00    +0.270 C 
ENDBRANCH  16  17
BRANCH   6  12
ATOM      1  O   UNL     1      16.026  -7.958  28.186  0.00  0.00    -0.369 OA
ATOM      2  O   UNL     1      17.356  -6.784  25.654  0.00  0.00    -0.369 OA
ATOM     10  C   UNL     1      16.562  -6.182  26.700  0.00  0.00    +0.176 C 
ATOM     11  C   UNL     1      15.503  -7.197  27.085  0.00  0.00    +0.180 C 
ATOM     12  C   UNL     1      17.405  -6.021  27.949  0.00  0.00    +0.168 C 
ATOM     13  C   UNL     1      15.379  -8.037  25.836  0.00  0.00    +0.171 C 
ATOM     14  C   UNL     1      17.260  -7.377  28.631  0.00  0.00    +0.190 C 
ATOM     15  C   UNL     1      16.802  -8.066  25.329  0.00  0.00    +0.194 C 
BRANCH  13   3
ATOM      3  O   UNL     1      14.873  -9.331  26.075  0.00  0.00    -0.387 OA
ATOM     25  H   UNL     1      14.009  -9.394  25.632  0.00  0.00    +0.210 HD
ENDBRANCH  13   3
ENDBRANCH   6  12
TORSDOF 3
ENDMDL
MODEL 8
REMARK VINA RESULT:      -1.8      2.455      6.594
REMARK  Name = 11886052
REMARK  3 active torsions:
REMARK  status: ('A' for Active; 'I' for Inactive)
REMARK    1  A    between atoms: O_3  and  C_13
REMARK    2  A    between atoms: N_6  and  C_12
REMARK    3  A    between atoms: C_16  and  C_17
REMARK                            x       y       z     vdW  Elec       q    Type
REMARK                         _______ _______ _______ _____ _____    ______ ____
ROOT
ATOM      6  N   UNL     1      -1.763  -0.134  24.161  0.00  0.00    -0.217 N 
ATOM      7  N   UNL     1      -2.838  -0.882  24.433  0.00  0.00    -0.043 NA
ATOM      8  N   UNL     1      -1.028  -2.167  24.227  0.00  0.00    -0.108 NA
ATOM      9  N   UNL     1      -2.382  -2.127  24.473  0.00  0.00    -0.023 NA
ATOM     16  C   UNL     1      -0.666  -0.918  24.036  0.00  0.00    +0.182 A 
ENDROOT
BRANCH  16  17
ATOM      4  O   UNL     1       4.095  -1.632  23.940  0.00  0.00    -0.485 OA
ATOM      5  O   UNL     1       4.460   1.038  22.917  0.00  0.00    -0.485 OA
ATOM     17  C   UNL     1       0.661  -0.435  23.743  0.00  0.00    +0.024 A 
ATOM     18  C   UNL     1       1.768  -1.248  23.989  0.00  0.00    +0.061 A 
ATOM     19  C   UNL     1       0.834   0.843  23.212  0.00  0.00    +0.015 A 
ATOM     20  C   UNL     1       3.050  -0.780  23.698  0.00  0.00    +0.163 A 
ATOM     21  C   UNL     1       3.225   0.510  23.191  0.00  0.00    +0.162 A 
ATOM     22  C   UNL     1       2.117   1.317  22.934  0.00  0.00    +0.050 A 
ATOM     23  C   UNL     1       5.297  -1.198  23.296  0.00  0.00    +0.270 C 
ATOM     24  C   UNL     1       5.511   0.285  23.528  0.00  0.00    +0.270 C 
ENDBRANCH  16  17
BRANCH   6  12
ATOM      1  O   UNL     1      -4.114   2.142  23.811  0.00  0.00    -0.369 OA
ATOM      2  O   UNL     1      -1.737   3.311  25.407  0.00  0.00    -0.369 OA
ATOM     10  C   UNL     1      -2.298   1.982  25.337  0.00  0.00    +0.176 C 
ATOM     11  C   UNL     1      -3.800   2.147  25.213  0.00  0.00    +0.180 C 
ATOM     12  C   UNL     1      -1.880   1.321  24.038  0.00  0.00    +0.168 C 
ATOM     13  C   UNL     1      -4.037   3.503  25.834  0.00  0.00    +0.171 C 
ATOM     14  C   UNL     1      -2.940   1.810  23.056  0.00  0.00    +0.190 C 
ATOM     15  C   UNL     1      -2.806   4.267  25.408  0.00  0.00    +0.194 C 
BRANCH  13   3
ATOM      3  O   UNL     1      -5.226   4.123  25.397  0.00  0.00    -0.387 OA
ATOM     25  H   UNL     1      -5.091   5.085  25.449  0.00  0.00    +0.210 HD
ENDBRANCH  13   3
ENDBRANCH   6  12
TORSDOF 3
ENDMDL
MODEL 9
REMARK VINA RESULT:      -1.3      3.126      5.048
REMARK  Name = 11886052
REMARK  3 active torsions:
REMARK  status: ('A' for Active; 'I' for Inactive)
REMARK    1  A    between atoms: O_3  and  C_13
REMARK    2  A    between atoms: N_6  and  C_12
REMARK    3  A    between atoms: C_16  and  C_17
REMARK                            x       y       z     vdW  Elec       q    Type
REMARK                         _______ _______ _______ _____ _____    ______ ____
ROOT
ATOM      6  N   UNL     1      -4.400   3.144  24.989  0.00  0.00    -0.217 N 
ATOM      7  N   UNL     1      -5.152   4.232  25.184  0.00  0.00    -0.043 NA
ATOM      8  N   UNL     1      -6.253   2.403  25.825  0.00  0.00    -0.108 NA
ATOM      9  N   UNL     1      -6.287   3.773  25.696  0.00  0.00    -0.023 NA
ATOM     16  C   UNL     1      -5.073   2.035  25.380  0.00  0.00    +0.182 A 
ENDROOT
BRANCH  16  17
ATOM      4  O   UNL     1      -4.604  -2.121  22.993  0.00  0.00    -0.485 OA
ATOM      5  O   UNL     1      -3.065  -3.189  25.185  0.00  0.00    -0.485 OA
ATOM     17  C   UNL     1      -4.554   0.691  25.308  0.00  0.00    +0.024 A 
ATOM     18  C   UNL     1      -4.828  -0.102  24.193  0.00  0.00    +0.061 A 
ATOM     19  C   UNL     1      -3.778   0.187  26.352  0.00  0.00    +0.015 A 
ATOM     20  C   UNL     1      -4.320  -1.399  24.122  0.00  0.00    +0.163 A 
ATOM     21  C   UNL     1      -3.564  -1.913  25.180  0.00  0.00    +0.162 A 
ATOM     22  C   UNL     1      -3.281  -1.114  26.288  0.00  0.00    +0.050 A 
ATOM     23  C   UNL     1      -3.765  -3.274  22.872  0.00  0.00    +0.270 C 
ATOM     24  C   UNL     1      -3.691  -4.011  24.195  0.00  0.00    +0.270 C 
ENDBRANCH  16  17
BRANCH   6  12
ATOM      1  O   UNL     1      -1.354   3.889  25.986  0.00  0.00    -0.369 OA
ATOM      2  O   UNL     1      -1.240   1.853  23.662  0.00  0.00    -0.369 OA
ATOM     10  C   UNL     1      -2.190   2.051  24.731  0.00  0.00    +0.176 C 
ATOM     11  C   UNL     1      -1.393   2.453  25.957  0.00  0.00    +0.180 C 
ATOM     12  C   UNL     1      -3.053   3.260  24.426  0.00  0.00    +0.168 C 
ATOM     13  C   UNL     1      -0.031   1.864  25.675  0.00  0.00    +0.171 C 
ATOM     14  C   UNL     1      -2.217   4.415  24.967  0.00  0.00    +0.190 C 
ATOM     15  C   UNL     1       0.086   2.035  24.178  0.00  0.00    +0.194 C 
BRANCH  13   3
ATOM      3  O   UNL     1       1.016   2.506  26.367  0.00  0.00    -0.387 OA
ATOM     25  H   UNL     1       1.755   1.877  26.430  0.00  0.00    +0.210 HD
ENDBRANCH  13   3
ENDBRANCH   6  12
TORSDOF 3
ENDMDL
MODEL 10
REMARK VINA RESULT:      -1.2      2.985      5.821
REMARK  Name = 11886052
REMARK  3 active torsions:
REMARK  status: ('A' for Active; 'I' for Inactive)
REMARK    1  A    between atoms: O_3  and  C_13
REMARK    2  A    between atoms: N_6  and  C_12
REMARK    3  A    between atoms: C_16  and  C_17
REMARK                            x       y       z     vdW  Elec       q    Type
REMARK                         _______ _______ _______ _____ _____    ______ ____
ROOT
ATOM      6  N   UNL     1      -3.963   2.399  24.999  0.00  0.00    -0.217 N 
ATOM      7  N   UNL     1      -5.070   3.150  24.996  0.00  0.00    -0.043 NA
ATOM      8  N   UNL     1      -3.395   4.227  23.994  0.00  0.00    -0.108 NA
ATOM      9  N   UNL     1      -4.716   4.270  24.379  0.00  0.00    -0.023 NA
ATOM     16  C   UNL     1      -2.949   3.057  24.389  0.00  0.00    +0.182 A 
ENDROOT
BRANCH  16  17
ATOM      4  O   UNL     1       0.071  -0.030  22.259  0.00  0.00    -0.485 OA
ATOM      5  O   UNL     1       2.247   1.050  23.811  0.00  0.00    -0.485 OA
ATOM     17  C   UNL     1      -1.615   2.535  24.219  0.00  0.00    +0.024 A 
ATOM     18  C   UNL     1      -1.387   1.485  23.329  0.00  0.00    +0.061 A 
ATOM     19  C   UNL     1      -0.556   3.084  24.942  0.00  0.00    +0.015 A 
ATOM     20  C   UNL     1      -0.095   0.987  23.162  0.00  0.00    +0.163 A 
ATOM     21  C   UNL     1       0.962   1.519  23.906  0.00  0.00    +0.162 A 
ATOM     22  C   UNL     1       0.734   2.577  24.785  0.00  0.00    +0.050 A 
ATOM     23  C   UNL     1       1.446  -0.221  21.916  0.00  0.00    +0.270 C 
ATOM     24  C   UNL     1       2.304  -0.226  23.166  0.00  0.00    +0.270 C 
ENDBRANCH  16  17
BRANCH   6  12
ATOM      1  O   UNL     1      -5.277  -0.568  24.452  0.00  0.00    -0.369 OA
ATOM      2  O   UNL     1      -2.533  -0.865  25.847  0.00  0.00    -0.369 OA
ATOM     10  C   UNL     1      -3.040   0.101  24.899  0.00  0.00    +0.176 C 
ATOM     11  C   UNL     1      -3.937  -0.656  23.940  0.00  0.00    +0.180 C 
ATOM     12  C   UNL     1      -3.970   1.066  25.607  0.00  0.00    +0.168 C 
ATOM     13  C   UNL     1      -3.399  -2.065  24.024  0.00  0.00    +0.171 C 
ATOM     14  C   UNL     1      -5.308   0.337  25.566  0.00  0.00    +0.190 C 
ATOM     15  C   UNL     1      -3.005  -2.169  25.479  0.00  0.00    +0.194 C 
BRANCH  13   3
ATOM      3  O   UNL     1      -4.339  -3.050  23.656  0.00  0.00    -0.387 OA
ATOM     25  H   UNL     1      -4.941  -3.176  24.410  0.00  0.00    +0.210 HD
ENDBRANCH  13   3
ENDBRANCH   6  12
TORSDOF 3
ENDMDL
