MODEL 1
REMARK VINA RESULT:      -5.1      0.000      0.000
REMARK  Name = 11943286
REMARK  5 active torsions:
REMARK  status: ('A' for Active; 'I' for Inactive)
REMARK    1  A    between atoms: N_5  and  C_14
REMARK    2  A    between atoms: C_7  and  C_13
REMARK    3  A    between atoms: C_8  and  C_14
REMARK    4  A    between atoms: C_13  and  C_15
REMARK    5  A    between atoms: C_16  and  C_17
REMARK                            x       y       z     vdW  Elec       q    Type
REMARK                         _______ _______ _______ _____ _____    ______ ____
ROOT
ATOM      3  O   UNL     1       0.587   0.904  23.838  0.00  0.00    -0.270 OA
ATOM      5  N   UNL     1      -0.657   0.323  25.682  0.00  0.00    -0.310 N 
ATOM     16  C   UNL     1      -0.173   1.247  24.746  0.00  0.00    +0.244 C 
ATOM     23  H   UNL     1      -1.335   0.605  26.381  0.00  0.00    +0.149 HD
ENDROOT
BRANCH  16  17
ATOM      1 CL   UNL     1      -3.630   4.525  26.740  0.00  0.00    -0.081 Cl
ATOM      2  F   UNL     1      -1.964   6.508  25.294  0.00  0.00    -0.204 F 
ATOM     17  C   UNL     1      -0.648   2.629  24.892  0.00  0.00    +0.038 A 
ATOM     18  C   UNL     1      -1.778   2.885  25.655  0.00  0.00    +0.036 A 
ATOM     19  C   UNL     1       0.042   3.657  24.267  0.00  0.00    +0.016 A 
ATOM     20  C   UNL     1      -2.229   4.198  25.795  0.00  0.00    +0.077 A 
ATOM     21  C   UNL     1      -0.408   4.970  24.406  0.00  0.00    +0.040 A 
ATOM     22  C   UNL     1      -1.544   5.241  25.171  0.00  0.00    +0.142 A 
ENDBRANCH  16  17
BRANCH   5  14
ATOM     14  C   UNL     1      -0.309  -1.064  25.648  0.00  0.00    +0.123 C 
BRANCH  14   8
ATOM      4  N   UNL     1      -1.812  -2.156  23.962  0.00  0.00    -0.298 NA
ATOM      6  C   UNL     1      -4.001  -1.438  25.168  0.00  0.00    -0.004 C 
ATOM      7  C   UNL     1      -3.736  -0.550  23.932  0.00  0.00    +0.006 C 
ATOM      8  C   UNL     1      -1.546  -1.932  25.409  0.00  0.00    +0.074 C 
ATOM      9  C   UNL     1      -2.793  -1.362  26.120  0.00  0.00    +0.024 C 
ATOM     10  C   UNL     1      -2.358  -0.924  23.343  0.00  0.00    +0.088 C 
ATOM     11  C   UNL     1      -4.093  -2.891  24.665  0.00  0.00    +0.019 C 
ATOM     12  C   UNL     1      -2.833  -3.224  23.845  0.00  0.00    +0.085 C 
BRANCH   7  13
ATOM     13  C   UNL     1      -3.834   0.945  24.231  0.00  0.00    +0.002 C 
ATOM     15  C   UNL     1      -5.102   1.274  24.995  0.00  0.00    +0.004 C 
ENDBRANCH   7  13
ENDBRANCH  14   8
ENDBRANCH   5  14
TORSDOF 4
ENDMDL
MODEL 2
REMARK VINA RESULT:      -4.3      3.528      6.530
REMARK  Name = 11943286
REMARK  5 active torsions:
REMARK  status: ('A' for Active; 'I' for Inactive)
REMARK    1  A    between atoms: N_5  and  C_14
REMARK    2  A    between atoms: C_7  and  C_13
REMARK    3  A    between atoms: C_8  and  C_14
REMARK    4  A    between atoms: C_13  and  C_15
REMARK    5  A    between atoms: C_16  and  C_17
REMARK                            x       y       z     vdW  Elec       q    Type
REMARK                         _______ _______ _______ _____ _____    ______ ____
ROOT
ATOM      3  O   UNL     1      -6.056   0.740  24.524  0.00  0.00    -0.270 OA
ATOM      5  N   UNL     1      -4.258   1.747  25.541  0.00  0.00    -0.310 N 
ATOM     16  C   UNL     1      -4.884   0.672  24.896  0.00  0.00    +0.244 C 
ATOM     23  H   UNL     1      -3.274   1.703  25.780  0.00  0.00    +0.149 HD
ENDROOT
BRANCH  16  17
ATOM      1 CL   UNL     1      -0.316  -1.679  25.425  0.00  0.00    -0.081 Cl
ATOM      2  F   UNL     1      -1.742  -3.859  24.004  0.00  0.00    -0.204 F 
ATOM     17  C   UNL     1      -4.053  -0.518  24.663  0.00  0.00    +0.038 A 
ATOM     18  C   UNL     1      -2.738  -0.528  25.103  0.00  0.00    +0.036 A 
ATOM     19  C   UNL     1      -4.599  -1.612  24.008  0.00  0.00    +0.016 A 
ATOM     20  C   UNL     1      -1.949  -1.658  24.883  0.00  0.00    +0.077 A 
ATOM     21  C   UNL     1      -3.811  -2.742  23.788  0.00  0.00    +0.040 A 
ATOM     22  C   UNL     1      -2.486  -2.765  24.226  0.00  0.00    +0.142 A 
ENDBRANCH  16  17
BRANCH   5  14
ATOM     14  C   UNL     1      -4.928   2.982  25.808  0.00  0.00    +0.123 C 
BRANCH  14   8
ATOM      4  N   UNL     1      -3.576   4.225  24.100  0.00  0.00    -0.298 NA
ATOM      6  C   UNL     1      -1.527   4.537  25.672  0.00  0.00    -0.004 C 
ATOM      7  C   UNL     1      -1.267   3.415  24.642  0.00  0.00    +0.006 C 
ATOM      8  C   UNL     1      -4.013   4.173  25.522  0.00  0.00    +0.074 C 
ATOM      9  C   UNL     1      -2.798   4.207  26.476  0.00  0.00    +0.024 C 
ATOM     10  C   UNL     1      -2.562   3.176  23.835  0.00  0.00    +0.088 C 
ATOM     11  C   UNL     1      -1.816   5.821  24.871  0.00  0.00    +0.019 C 
ATOM     12  C   UNL     1      -2.946   5.547  23.863  0.00  0.00    +0.085 C 
BRANCH   7  13
ATOM     13  C   UNL     1      -0.751   2.124  25.275  0.00  0.00    +0.002 C 
ATOM     15  C   UNL     1       0.227   2.410  26.398  0.00  0.00    +0.004 C 
ENDBRANCH   7  13
ENDBRANCH  14   8
ENDBRANCH   5  14
TORSDOF 4
ENDMDL
MODEL 3
REMARK VINA RESULT:      -3.1      2.268      3.399
REMARK  Name = 11943286
REMARK  5 active torsions:
REMARK  status: ('A' for Active; 'I' for Inactive)
REMARK    1  A    between atoms: N_5  and  C_14
REMARK    2  A    between atoms: C_7  and  C_13
REMARK    3  A    between atoms: C_8  and  C_14
REMARK    4  A    between atoms: C_13  and  C_15
REMARK    5  A    between atoms: C_16  and  C_17
REMARK                            x       y       z     vdW  Elec       q    Type
REMARK                         _______ _______ _______ _____ _____    ______ ____
ROOT
ATOM      3  O   UNL     1      -5.266   2.600  25.956  0.00  0.00    -0.270 OA
ATOM      5  N   UNL     1      -4.049   1.170  24.631  0.00  0.00    -0.310 N 
ATOM     16  C   UNL     1      -4.248   2.388  25.296  0.00  0.00    +0.244 C 
ATOM     23  H   UNL     1      -3.177   0.983  24.148  0.00  0.00    +0.149 HD
ENDROOT
BRANCH  16  17
ATOM      1 CL   UNL     1       0.587   3.466  23.835  0.00  0.00    -0.081 Cl
ATOM      2  F   UNL     1      -0.138   6.146  24.879  0.00  0.00    -0.204 F 
ATOM     17  C   UNL     1      -3.164   3.373  25.184  0.00  0.00    +0.038 A 
ATOM     18  C   UNL     1      -1.951   2.993  24.629  0.00  0.00    +0.036 A 
ATOM     19  C   UNL     1      -3.371   4.669  25.635  0.00  0.00    +0.016 A 
ATOM     20  C   UNL     1      -0.921   3.929  24.523  0.00  0.00    +0.077 A 
ATOM     21  C   UNL     1      -2.343   5.604  25.529  0.00  0.00    +0.040 A 
ATOM     22  C   UNL     1      -1.118   5.234  24.972  0.00  0.00    +0.142 A 
ENDBRANCH  16  17
BRANCH   5  14
ATOM     14  C   UNL     1      -5.001   0.104  24.673  0.00  0.00    +0.123 C 
BRANCH  14   8
ATOM      4  N   UNL     1      -3.770  -1.818  25.715  0.00  0.00    -0.298 NA
ATOM      6  C   UNL     1      -1.978  -1.937  23.834  0.00  0.00    -0.004 C 
ATOM      7  C   UNL     1      -1.406  -1.257  25.099  0.00  0.00    +0.006 C 
ATOM      8  C   UNL     1      -4.317  -1.247  24.455  0.00  0.00    +0.074 C 
ATOM      9  C   UNL     1      -3.227  -1.169  23.363  0.00  0.00    +0.024 C 
ATOM     10  C   UNL     1      -2.548  -1.084  26.125  0.00  0.00    +0.088 C 
ATOM     11  C   UNL     1      -2.440  -3.345  24.253  0.00  0.00    +0.019 C 
ATOM     12  C   UNL     1      -3.396  -3.229  25.454  0.00  0.00    +0.085 C 
BRANCH   7  13
ATOM     13  C   UNL     1      -0.705   0.068  24.807  0.00  0.00    +0.002 C 
ATOM     15  C   UNL     1       0.224  -0.048  23.614  0.00  0.00    +0.004 C 
ENDBRANCH   7  13
ENDBRANCH  14   8
ENDBRANCH   5  14
TORSDOF 4
ENDMDL
MODEL 4
REMARK VINA RESULT:      -2.8      3.143      5.954
REMARK  Name = 11943286
REMARK  5 active torsions:
REMARK  status: ('A' for Active; 'I' for Inactive)
REMARK    1  A    between atoms: N_5  and  C_14
REMARK    2  A    between atoms: C_7  and  C_13
REMARK    3  A    between atoms: C_8  and  C_14
REMARK    4  A    between atoms: C_13  and  C_15
REMARK    5  A    between atoms: C_16  and  C_17
REMARK                            x       y       z     vdW  Elec       q    Type
REMARK                         _______ _______ _______ _____ _____    ______ ____
ROOT
ATOM      3  O   UNL     1       0.406   0.721  23.776  0.00  0.00    -0.270 OA
ATOM      5  N   UNL     1      -0.856   1.551  25.509  0.00  0.00    -0.310 N 
ATOM     16  C   UNL     1      -0.528   0.568  24.566  0.00  0.00    +0.244 C 
ATOM     23  H   UNL     1      -1.581   1.383  26.197  0.00  0.00    +0.149 HD
ENDROOT
BRANCH  16  17
ATOM      1 CL   UNL     1      -5.095  -1.717  23.793  0.00  0.00    -0.081 Cl
ATOM      2  F   UNL     1      -3.584  -4.105  24.695  0.00  0.00    -0.204 F 
ATOM     17  C   UNL     1      -1.336  -0.659  24.599  0.00  0.00    +0.038 A 
ATOM     18  C   UNL     1      -2.671  -0.607  24.225  0.00  0.00    +0.036 A 
ATOM     19  C   UNL     1      -0.750  -1.850  25.002  0.00  0.00    +0.016 A 
ATOM     20  C   UNL     1      -3.438  -1.772  24.255  0.00  0.00    +0.077 A 
ATOM     21  C   UNL     1      -1.516  -3.015  25.032  0.00  0.00    +0.040 A 
ATOM     22  C   UNL     1      -2.861  -2.976  24.659  0.00  0.00    +0.142 A 
ENDBRANCH  16  17
BRANCH   5  14
ATOM     14  C   UNL     1      -0.140   2.784  25.619  0.00  0.00    +0.123 C 
BRANCH  14   8
ATOM      4  N   UNL     1      -1.719   4.714  25.894  0.00  0.00    -0.298 NA
ATOM      6  C   UNL     1      -3.148   4.086  23.814  0.00  0.00    -0.004 C 
ATOM      7  C   UNL     1      -3.868   3.682  25.121  0.00  0.00    +0.006 C 
ATOM      8  C   UNL     1      -0.902   3.921  24.936  0.00  0.00    +0.074 C 
ATOM      9  C   UNL     1      -1.766   3.409  23.762  0.00  0.00    +0.024 C 
ATOM     10  C   UNL     1      -2.916   3.944  26.309  0.00  0.00    +0.088 C 
ATOM     11  C   UNL     1      -2.908   5.606  23.887  0.00  0.00    +0.019 C 
ATOM     12  C   UNL     1      -2.176   5.941  25.198  0.00  0.00    +0.085 C 
BRANCH   7  13
ATOM     13  C   UNL     1      -4.372   2.240  25.110  0.00  0.00    +0.002 C 
ATOM     15  C   UNL     1      -5.888   2.184  25.112  0.00  0.00    +0.004 C 
ENDBRANCH   7  13
ENDBRANCH  14   8
ENDBRANCH   5  14
TORSDOF 4
ENDMDL
MODEL 5
REMARK VINA RESULT:      -2.8      4.485      5.982
REMARK  Name = 11943286
REMARK  5 active torsions:
REMARK  status: ('A' for Active; 'I' for Inactive)
REMARK    1  A    between atoms: N_5  and  C_14
REMARK    2  A    between atoms: C_7  and  C_13
REMARK    3  A    between atoms: C_8  and  C_14
REMARK    4  A    between atoms: C_13  and  C_15
REMARK    5  A    between atoms: C_16  and  C_17
REMARK                            x       y       z     vdW  Elec       q    Type
REMARK                         _______ _______ _______ _____ _____    ______ ____
ROOT
ATOM      3  O   UNL     1       0.744  -0.568  21.662  0.00  0.00    -0.270 OA
ATOM      5  N   UNL     1       0.385   0.548  23.639  0.00  0.00    -0.310 N 
ATOM     16  C   UNL     1       1.212  -0.044  22.674  0.00  0.00    +0.244 C 
ATOM     23  H   UNL     1       0.787   1.036  24.432  0.00  0.00    +0.149 HD
ENDROOT
BRANCH  16  17
ATOM      1 CL   UNL     1       5.535  -2.409  24.221  0.00  0.00    -0.081 Cl
ATOM      2  F   UNL     1       6.708   0.249  23.621  0.00  0.00    -0.204 F 
ATOM     17  C   UNL     1       2.658   0.029  22.925  0.00  0.00    +0.038 A 
ATOM     18  C   UNL     1       3.325  -1.092  23.398  0.00  0.00    +0.036 A 
ATOM     19  C   UNL     1       3.333   1.217  22.684  0.00  0.00    +0.016 A 
ATOM     20  C   UNL     1       4.699  -1.023  23.635  0.00  0.00    +0.077 A 
ATOM     21  C   UNL     1       4.705   1.286  22.921  0.00  0.00    +0.040 A 
ATOM     22  C   UNL     1       5.388   0.166  23.396  0.00  0.00    +0.142 A 
ENDBRANCH  16  17
BRANCH   5  14
ATOM     14  C   UNL     1      -1.039   0.584  23.518  0.00  0.00    +0.123 C 
BRANCH  14   8
ATOM      4  N   UNL     1      -1.720   2.387  25.123  0.00  0.00    -0.298 NA
ATOM      6  C   UNL     1      -3.870   3.015  23.800  0.00  0.00    -0.004 C 
ATOM      7  C   UNL     1      -4.216   2.171  25.048  0.00  0.00    +0.006 C 
ATOM      8  C   UNL     1      -1.566   2.010  23.692  0.00  0.00    +0.074 C 
ATOM      9  C   UNL     1      -2.882   2.234  22.914  0.00  0.00    +0.024 C 
ATOM     10  C   UNL     1      -2.900   1.707  25.710  0.00  0.00    +0.088 C 
ATOM     11  C   UNL     1      -3.137   4.274  24.301  0.00  0.00    +0.019 C 
ATOM     12  C   UNL     1      -1.951   3.851  25.187  0.00  0.00    +0.085 C 
BRANCH   7  13
ATOM     13  C   UNL     1      -5.138   0.992  24.741  0.00  0.00    +0.002 C 
ATOM     15  C   UNL     1      -4.384  -0.322  24.767  0.00  0.00    +0.004 C 
ENDBRANCH   7  13
ENDBRANCH  14   8
ENDBRANCH   5  14
TORSDOF 4
ENDMDL
MODEL 6
REMARK VINA RESULT:      -2.8      3.522      5.258
REMARK  Name = 11943286
REMARK  5 active torsions:
REMARK  status: ('A' for Active; 'I' for Inactive)
REMARK    1  A    between atoms: N_5  and  C_14
REMARK    2  A    between atoms: C_7  and  C_13
REMARK    3  A    between atoms: C_8  and  C_14
REMARK    4  A    between atoms: C_13  and  C_15
REMARK    5  A    between atoms: C_16  and  C_17
REMARK                            x       y       z     vdW  Elec       q    Type
REMARK                         _______ _______ _______ _____ _____    ______ ____
ROOT
ATOM      3  O   UNL     1      -0.197   2.561  26.202  0.00  0.00    -0.270 OA
ATOM      5  N   UNL     1      -1.420   3.213  24.368  0.00  0.00    -0.310 N 
ATOM     16  C   UNL     1      -0.414   2.463  24.993  0.00  0.00    +0.244 C 
ATOM     23  H   UNL     1      -1.633   3.071  23.387  0.00  0.00    +0.149 HD
ENDROOT
BRANCH  16  17
ATOM      1 CL   UNL     1       4.068   1.163  22.779  0.00  0.00    -0.081 Cl
ATOM      2  F   UNL     1       2.420  -1.067  21.722  0.00  0.00    -0.204 F 
ATOM     17  C   UNL     1       0.336   1.537  24.133  0.00  0.00    +0.038 A 
ATOM     18  C   UNL     1       1.683   1.766  23.895  0.00  0.00    +0.036 A 
ATOM     19  C   UNL     1      -0.316   0.448  23.573  0.00  0.00    +0.016 A 
ATOM     20  C   UNL     1       2.395   0.887  23.079  0.00  0.00    +0.077 A 
ATOM     21  C   UNL     1       0.395  -0.431  22.757  0.00  0.00    +0.040 A 
ATOM     22  C   UNL     1       1.752  -0.212  22.510  0.00  0.00    +0.142 A 
ENDBRANCH  16  17
BRANCH   5  14
ATOM     14  C   UNL     1      -2.253   4.131  25.080  0.00  0.00    +0.123 C 
BRANCH  14   8
ATOM      4  N   UNL     1      -4.277   3.055  26.100  0.00  0.00    -0.298 NA
ATOM      6  C   UNL     1      -4.942   1.801  23.921  0.00  0.00    -0.004 C 
ATOM      7  C   UNL     1      -4.275   0.838  24.930  0.00  0.00    +0.006 C 
ATOM      8  C   UNL     1      -3.730   3.769  24.915  0.00  0.00    +0.074 C 
ATOM      9  C   UNL     1      -3.983   2.967  23.619  0.00  0.00    +0.024 C 
ATOM     10  C   UNL     1      -3.773   1.661  26.138  0.00  0.00    +0.088 C 
ATOM     11  C   UNL     1      -6.178   2.397  24.620  0.00  0.00    +0.019 C 
ATOM     12  C   UNL     1      -5.753   3.010  25.966  0.00  0.00    +0.085 C 
BRANCH   7  13
ATOM     13  C   UNL     1      -3.157  -0.000  24.315  0.00  0.00    +0.002 C 
ATOM     15  C   UNL     1      -3.508  -1.475  24.314  0.00  0.00    +0.004 C 
ENDBRANCH   7  13
ENDBRANCH  14   8
ENDBRANCH   5  14
TORSDOF 4
ENDMDL
MODEL 7
REMARK VINA RESULT:      -2.8      4.383      5.147
REMARK  Name = 11943286
REMARK  5 active torsions:
REMARK  status: ('A' for Active; 'I' for Inactive)
REMARK    1  A    between atoms: N_5  and  C_14
REMARK    2  A    between atoms: C_7  and  C_13
REMARK    3  A    between atoms: C_8  and  C_14
REMARK    4  A    between atoms: C_13  and  C_15
REMARK    5  A    between atoms: C_16  and  C_17
REMARK                            x       y       z     vdW  Elec       q    Type
REMARK                         _______ _______ _______ _____ _____    ______ ____
ROOT
ATOM      3  O   UNL     1       0.522  -0.386  21.994  0.00  0.00    -0.270 OA
ATOM      5  N   UNL     1       0.427   0.731  24.001  0.00  0.00    -0.310 N 
ATOM     16  C   UNL     1       1.118   0.106  22.953  0.00  0.00    +0.244 C 
ATOM     23  H   UNL     1       0.933   1.191  24.749  0.00  0.00    +0.149 HD
ENDROOT
BRANCH  16  17
ATOM      1 CL   UNL     1       5.450  -2.470  24.080  0.00  0.00    -0.081 Cl
ATOM      2  F   UNL     1       6.691   0.116  23.323  0.00  0.00    -0.204 F 
ATOM     17  C   UNL     1       2.584   0.104  23.053  0.00  0.00    +0.038 A 
ATOM     18  C   UNL     1       3.238  -1.046  23.470  0.00  0.00    +0.036 A 
ATOM     19  C   UNL     1       3.291   1.252  22.726  0.00  0.00    +0.016 A 
ATOM     20  C   UNL     1       4.630  -1.048  23.563  0.00  0.00    +0.077 A 
ATOM     21  C   UNL     1       4.682   1.251  22.820  0.00  0.00    +0.040 A 
ATOM     22  C   UNL     1       5.352   0.100  23.238  0.00  0.00    +0.142 A 
ENDBRANCH  16  17
BRANCH   5  14
ATOM     14  C   UNL     1      -0.998   0.839  24.028  0.00  0.00    +0.123 C 
BRANCH  14   8
ATOM      4  N   UNL     1      -2.613  -1.037  23.618  0.00  0.00    -0.298 NA
ATOM      6  C   UNL     1      -3.643  -0.925  26.003  0.00  0.00    -0.004 C 
ATOM      7  C   UNL     1      -4.582  -0.271  24.965  0.00  0.00    +0.006 C 
ATOM      8  C   UNL     1      -1.633  -0.445  24.568  0.00  0.00    +0.074 C 
ATOM      9  C   UNL     1      -2.270  -0.229  25.959  0.00  0.00    +0.024 C 
ATOM     10  C   UNL     1      -3.861  -0.236  23.600  0.00  0.00    +0.088 C 
ATOM     11  C   UNL     1      -3.429  -2.384  25.557  0.00  0.00    +0.019 C 
ATOM     12  C   UNL     1      -2.945  -2.401  24.096  0.00  0.00    +0.085 C 
BRANCH   7  13
ATOM     13  C   UNL     1      -5.068   1.116  25.381  0.00  0.00    +0.002 C 
ATOM     15  C   UNL     1      -4.572   2.185  24.428  0.00  0.00    +0.004 C 
ENDBRANCH   7  13
ENDBRANCH  14   8
ENDBRANCH   5  14
TORSDOF 4
ENDMDL
MODEL 8
REMARK VINA RESULT:      -2.5     16.714     18.889
REMARK  Name = 11943286
REMARK  5 active torsions:
REMARK  status: ('A' for Active; 'I' for Inactive)
REMARK    1  A    between atoms: N_5  and  C_14
REMARK    2  A    between atoms: C_7  and  C_13
REMARK    3  A    between atoms: C_8  and  C_14
REMARK    4  A    between atoms: C_13  and  C_15
REMARK    5  A    between atoms: C_16  and  C_17
REMARK                            x       y       z     vdW  Elec       q    Type
REMARK                         _______ _______ _______ _____ _____    ______ ____
ROOT
ATOM      3  O   UNL     1      11.226   6.913  20.511  0.00  0.00    -0.270 OA
ATOM      5  N   UNL     1      12.880   8.503  20.648  0.00  0.00    -0.310 N 
ATOM     16  C   UNL     1      11.906   7.774  19.951  0.00  0.00    +0.244 C 
ATOM     23  H   UNL     1      13.384   9.255  20.192  0.00  0.00    +0.149 HD
ENDROOT
BRANCH  16  17
ATOM      1 CL   UNL     1      14.044   8.922  15.392  0.00  0.00    -0.081 Cl
ATOM      2  F   UNL     1      11.198   9.090  14.570  0.00  0.00    -0.204 F 
ATOM     17  C   UNL     1      11.725   8.121  18.535  0.00  0.00    +0.038 A 
ATOM     18  C   UNL     1      12.839   8.332  17.736  0.00  0.00    +0.036 A 
ATOM     19  C   UNL     1      10.442   8.232  18.019  0.00  0.00    +0.016 A 
ATOM     20  C   UNL     1      12.667   8.660  16.391  0.00  0.00    +0.077 A 
ATOM     21  C   UNL     1      10.269   8.560  16.675  0.00  0.00    +0.040 A 
ATOM     22  C   UNL     1      11.382   8.774  15.860  0.00  0.00    +0.142 A 
ENDBRANCH  16  17
BRANCH   5  14
ATOM     14  C   UNL     1      13.148   8.300  22.037  0.00  0.00    +0.123 C 
BRANCH  14   8
ATOM      4  N   UNL     1      15.471   9.089  21.513  0.00  0.00    -0.298 NA
ATOM      6  C   UNL     1      16.427   6.688  21.225  0.00  0.00    -0.004 C 
ATOM      7  C   UNL     1      16.197   7.358  19.852  0.00  0.00    +0.006 C 
ATOM      8  C   UNL     1      14.647   8.119  22.283  0.00  0.00    +0.074 C 
ATOM      9  C   UNL     1      15.103   6.667  22.012  0.00  0.00    +0.024 C 
ATOM     10  C   UNL     1      15.497   8.717  20.077  0.00  0.00    +0.088 C 
ATOM     11  C   UNL     1      17.405   7.587  22.004  0.00  0.00    +0.019 C 
ATOM     12  C   UNL     1      16.858   9.026  22.032  0.00  0.00    +0.085 C 
BRANCH   7  13
ATOM     13  C   UNL     1      15.419   6.479  18.875  0.00  0.00    +0.002 C 
ATOM     15  C   UNL     1      16.349   5.745  17.929  0.00  0.00    +0.004 C 
ENDBRANCH   7  13
ENDBRANCH  14   8
ENDBRANCH   5  14
TORSDOF 4
ENDMDL
MODEL 9
REMARK VINA RESULT:      -2.3      3.714      6.561
REMARK  Name = 11943286
REMARK  5 active torsions:
REMARK  status: ('A' for Active; 'I' for Inactive)
REMARK    1  A    between atoms: N_5  and  C_14
REMARK    2  A    between atoms: C_7  and  C_13
REMARK    3  A    between atoms: C_8  and  C_14
REMARK    4  A    between atoms: C_13  and  C_15
REMARK    5  A    between atoms: C_16  and  C_17
REMARK                            x       y       z     vdW  Elec       q    Type
REMARK                         _______ _______ _______ _____ _____    ______ ____
ROOT
ATOM      3  O   UNL     1      -5.786   1.582  24.274  0.00  0.00    -0.270 OA
ATOM      5  N   UNL     1      -4.138   2.115  25.785  0.00  0.00    -0.310 N 
ATOM     16  C   UNL     1      -4.841   1.214  24.973  0.00  0.00    +0.244 C 
ATOM     23  H   UNL     1      -3.320   1.813  26.302  0.00  0.00    +0.149 HD
ENDROOT
BRANCH  16  17
ATOM      1 CL   UNL     1      -4.617  -3.377  22.618  0.00  0.00    -0.081 Cl
ATOM      2  F   UNL     1      -3.016  -4.064  25.019  0.00  0.00    -0.204 F 
ATOM     17  C   UNL     1      -4.363  -0.175  24.981  0.00  0.00    +0.038 A 
ATOM     18  C   UNL     1      -4.682  -1.012  23.921  0.00  0.00    +0.036 A 
ATOM     19  C   UNL     1      -3.601  -0.628  26.048  0.00  0.00    +0.016 A 
ATOM     20  C   UNL     1      -4.227  -2.332  23.929  0.00  0.00    +0.077 A 
ATOM     21  C   UNL     1      -3.146  -1.946  26.056  0.00  0.00    +0.040 A 
ATOM     22  C   UNL     1      -3.459  -2.798  24.995  0.00  0.00    +0.142 A 
ENDBRANCH  16  17
BRANCH   5  14
ATOM     14  C   UNL     1      -4.466   3.505  25.858  0.00  0.00    +0.123 C 
BRANCH  14   8
ATOM      4  N   UNL     1      -2.873   4.415  24.146  0.00  0.00    -0.298 NA
ATOM      6  C   UNL     1      -0.758   3.923  25.576  0.00  0.00    -0.004 C 
ATOM      7  C   UNL     1      -0.919   2.876  24.451  0.00  0.00    +0.006 C 
ATOM      8  C   UNL     1      -3.234   4.371  25.589  0.00  0.00    +0.074 C 
ATOM      9  C   UNL     1      -2.027   3.934  26.449  0.00  0.00    +0.024 C 
ATOM     10  C   UNL     1      -2.261   3.131  23.729  0.00  0.00    +0.088 C 
ATOM     11  C   UNL     1      -0.661   5.301  24.895  0.00  0.00    +0.019 C 
ATOM     12  C   UNL     1      -1.868   5.489  23.959  0.00  0.00    +0.085 C 
BRANCH   7  13
ATOM     13  C   UNL     1      -0.811   1.436  24.948  0.00  0.00    +0.002 C 
ATOM     15  C   UNL     1      -0.862   0.448  23.798  0.00  0.00    +0.004 C 
ENDBRANCH   7  13
ENDBRANCH  14   8
ENDBRANCH   5  14
TORSDOF 4
ENDMDL
MODEL 10
REMARK VINA RESULT:      -1.5      3.431      6.113
REMARK  Name = 11943286
REMARK  5 active torsions:
REMARK  status: ('A' for Active; 'I' for Inactive)
REMARK    1  A    between atoms: N_5  and  C_14
REMARK    2  A    between atoms: C_7  and  C_13
REMARK    3  A    between atoms: C_8  and  C_14
REMARK    4  A    between atoms: C_13  and  C_15
REMARK    5  A    between atoms: C_16  and  C_17
REMARK                            x       y       z     vdW  Elec       q    Type
REMARK                         _______ _______ _______ _____ _____    ______ ____
ROOT
ATOM      3  O   UNL     1       0.235   0.545  24.097  0.00  0.00    -0.270 OA
ATOM      5  N   UNL     1      -0.773   1.234  26.044  0.00  0.00    -0.310 N 
ATOM     16  C   UNL     1      -0.635   0.367  24.951  0.00  0.00    +0.244 C 
ATOM     23  H   UNL     1      -1.448   1.037  26.775  0.00  0.00    +0.149 HD
ENDROOT
BRANCH  16  17
ATOM      1 CL   UNL     1      -1.831  -4.253  22.977  0.00  0.00    -0.081 Cl
ATOM      2  F   UNL     1      -4.159  -3.962  24.792  0.00  0.00    -0.204 F 
ATOM     17  C   UNL     1      -1.559  -0.774  24.906  0.00  0.00    +0.038 A 
ATOM     18  C   UNL     1      -1.285  -1.841  24.062  0.00  0.00    +0.036 A 
ATOM     19  C   UNL     1      -2.691  -0.767  25.708  0.00  0.00    +0.016 A 
ATOM     20  C   UNL     1      -2.163  -2.925  24.020  0.00  0.00    +0.077 A 
ATOM     21  C   UNL     1      -3.568  -1.850  25.666  0.00  0.00    +0.040 A 
ATOM     22  C   UNL     1      -3.304  -2.929  24.822  0.00  0.00    +0.142 A 
ENDBRANCH  16  17
BRANCH   5  14
ATOM     14  C   UNL     1       0.073   2.369  26.241  0.00  0.00    +0.123 C 
BRANCH  14   8
ATOM      4  N   UNL     1      -2.000   3.780  26.293  0.00  0.00    -0.298 NA
ATOM      6  C   UNL     1      -1.971   4.253  23.736  0.00  0.00    -0.004 C 
ATOM      7  C   UNL     1      -3.033   3.187  24.087  0.00  0.00    +0.006 C 
ATOM      8  C   UNL     1      -0.614   3.651  25.767  0.00  0.00    +0.074 C 
ATOM      9  C   UNL     1      -0.590   3.781  24.228  0.00  0.00    +0.024 C 
ATOM     10  C   UNL     1      -2.907   2.842  25.588  0.00  0.00    +0.088 C 
ATOM     11  C   UNL     1      -2.329   5.522  24.533  0.00  0.00    +0.019 C 
ATOM     12  C   UNL     1      -2.464   5.162  26.024  0.00  0.00    +0.085 C 
BRANCH   7  13
ATOM     13  C   UNL     1      -2.946   1.938  23.213  0.00  0.00    +0.002 C 
ATOM     15  C   UNL     1      -2.665   2.294  21.766  0.00  0.00    +0.004 C 
ENDBRANCH   7  13
ENDBRANCH  14   8
ENDBRANCH   5  14
TORSDOF 4
ENDMDL
