MODEL 1
REMARK VINA RESULT:      -5.1      0.000      0.000
REMARK  Name = 75536297
REMARK  12 active torsions:
REMARK  status: ('A' for Active; 'I' for Inactive)
REMARK    1  A    between atoms: O_2  and  C_9
REMARK    2  A    between atoms: O_4  and  C_20
REMARK    3  A    between atoms: O_4  and  C_26
REMARK    4  A    between atoms: O_5  and  C_22
REMARK    5  A    between atoms: O_5  and  C_27
REMARK    6  A    between atoms: N_6  and  C_13
REMARK    7  A    between atoms: N_6  and  C_16
REMARK    8  A    between atoms: C_8  and  C_13
REMARK    9  A    between atoms: C_10  and  C_14
REMARK   10  A    between atoms: C_14  and  C_15
REMARK   11  A    between atoms: C_16  and  C_18
REMARK   12  A    between atoms: C_19  and  C_22
REMARK                            x       y       z     vdW  Elec       q    Type
REMARK                         _______ _______ _______ _____ _____    ______ ____
ROOT
ATOM      1  O   UNL     1      -2.636   0.372  24.372  0.00  0.00    -0.369 OA
ATOM      8  C   UNL     1      -3.825  -0.422  24.457  0.00  0.00    +0.161 C 
ATOM      9  C   UNL     1      -3.533  -1.802  25.062  0.00  0.00    +0.145 C 
ATOM     10  C   UNL     1      -1.931   0.547  25.603  0.00  0.00    +0.125 C 
ATOM     11  C   UNL     1      -2.730  -1.712  26.356  0.00  0.00    +0.036 C 
ATOM     12  C   UNL     1      -1.515  -0.804  26.182  0.00  0.00    +0.034 C 
ENDROOT
BRANCH   9   2
ATOM      2  O   UNL     1      -2.765  -2.562  24.124  0.00  0.00    -0.389 OA
ATOM     29  H   UNL     1      -2.532  -1.970  23.388  0.00  0.00    +0.210 HD
ENDBRANCH   9   2
BRANCH   8  13
ATOM     13  C   UNL     1      -4.936   0.326  25.191  0.00  0.00    +0.115 C 
BRANCH  13   6
ATOM      6  N   UNL     1      -5.478   1.392  24.362  0.00  0.00    -0.309 NA
ATOM     28  H   UNL     1      -4.873   1.528  23.552  0.00  0.00    +0.122 HD
BRANCH   6  16
ATOM     16  C   UNL     1      -5.587   2.635  25.114  0.00  0.00    +0.120 C 
BRANCH  16  18
ATOM     18  C   UNL     1      -4.267   3.354  25.205  0.00  0.00    +0.008 A 
ATOM     20  C   UNL     1      -3.476   3.537  24.071  0.00  0.00    +0.124 A 
ATOM     21  C   UNL     1      -3.838   3.837  26.441  0.00  0.00    +0.008 A 
ATOM     23  C   UNL     1      -2.255   4.204  24.173  0.00  0.00    +0.046 A 
ATOM     24  C   UNL     1      -2.617   4.505  26.543  0.00  0.00    +0.001 A 
ATOM     25  C   UNL     1      -1.826   4.688  25.409  0.00  0.00    +0.004 A 
BRANCH  20   4
ATOM      4  O   UNL     1      -3.879   3.070  22.856  0.00  0.00    -0.495 OA
ATOM     26  C   UNL     1      -2.899   2.409  22.058  0.00  0.00    +0.277 C 
ENDBRANCH  20   4
ENDBRANCH  16  18
ENDBRANCH   6  16
ENDBRANCH  13   6
ENDBRANCH   8  13
BRANCH  10  14
ATOM     14  C   UNL     1      -0.710   1.412  25.314  0.00  0.00    +0.090 C 
BRANCH  14  15
ATOM      3  O   UNL     1       0.867  -0.666  22.827  0.00  0.00    -0.357 OA
ATOM      7  N   UNL     1      -0.172  -0.364  23.698  0.00  0.00    -0.083 NA
ATOM     15  C   UNL     1       0.193   0.776  24.291  0.00  0.00    +0.086 A 
ATOM     17  C   UNL     1       1.441   1.237  23.838  0.00  0.00    +0.073 A 
ATOM     19  C   UNL     1       1.822   0.295  22.920  0.00  0.00    +0.163 A 
BRANCH  19  22
ATOM     22  C   UNL     1       3.002   0.131  22.061  0.00  0.00    +0.236 C 
BRANCH  22   5
ATOM      5  O   UNL     1       4.068   0.968  22.517  0.00  0.00    -0.375 OA
ATOM     27  C   UNL     1       5.022   0.224  23.257  0.00  0.00    +0.194 C 
ENDBRANCH  22   5
ENDBRANCH  19  22
ENDBRANCH  14  15
ENDBRANCH  10  14
TORSDOF 10
ENDMDL
MODEL 2
REMARK VINA RESULT:      -4.5      1.923      5.971
REMARK  Name = 75536297
REMARK  12 active torsions:
REMARK  status: ('A' for Active; 'I' for Inactive)
REMARK    1  A    between atoms: O_2  and  C_9
REMARK    2  A    between atoms: O_4  and  C_20
REMARK    3  A    between atoms: O_4  and  C_26
REMARK    4  A    between atoms: O_5  and  C_22
REMARK    5  A    between atoms: O_5  and  C_27
REMARK    6  A    between atoms: N_6  and  C_13
REMARK    7  A    between atoms: N_6  and  C_16
REMARK    8  A    between atoms: C_8  and  C_13
REMARK    9  A    between atoms: C_10  and  C_14
REMARK   10  A    between atoms: C_14  and  C_15
REMARK   11  A    between atoms: C_16  and  C_18
REMARK   12  A    between atoms: C_19  and  C_22
REMARK                            x       y       z     vdW  Elec       q    Type
REMARK                         _______ _______ _______ _____ _____    ______ ____
ROOT
ATOM      1  O   UNL     1      -0.080   1.076  23.266  0.00  0.00    -0.369 OA
ATOM      8  C   UNL     1       0.198  -0.322  23.123  0.00  0.00    +0.161 C 
ATOM      9  C   UNL     1       1.544  -0.555  22.423  0.00  0.00    +0.145 C 
ATOM     10  C   UNL     1       0.928   1.832  23.941  0.00  0.00    +0.125 C 
ATOM     11  C   UNL     1       2.672   0.261  23.047  0.00  0.00    +0.036 C 
ATOM     12  C   UNL     1       2.264   1.723  23.207  0.00  0.00    +0.034 C 
ENDROOT
BRANCH   9   2
ATOM      2  O   UNL     1       1.424  -0.160  21.054  0.00  0.00    -0.389 OA
ATOM     29  H   UNL     1       0.483  -0.215  20.813  0.00  0.00    +0.210 HD
ENDBRANCH   9   2
BRANCH   8  13
ATOM     13  C   UNL     1       0.091  -1.045  24.464  0.00  0.00    +0.115 C 
BRANCH  13   6
ATOM      6  N   UNL     1      -0.436  -0.158  25.490  0.00  0.00    -0.309 NA
ATOM     28  H   UNL     1       0.316   0.102  26.128  0.00  0.00    +0.122 HD
BRANCH   6  16
ATOM     16  C   UNL     1      -1.515  -0.799  26.231  0.00  0.00    +0.120 C 
BRANCH  16  18
ATOM     18  C   UNL     1      -2.578  -1.345  25.316  0.00  0.00    +0.008 A 
ATOM     20  C   UNL     1      -3.325  -0.493  24.502  0.00  0.00    +0.124 A 
ATOM     21  C   UNL     1      -2.813  -2.720  25.288  0.00  0.00    +0.008 A 
ATOM     23  C   UNL     1      -4.307  -1.016  23.661  0.00  0.00    +0.046 A 
ATOM     24  C   UNL     1      -3.795  -3.243  24.446  0.00  0.00    +0.001 A 
ATOM     25  C   UNL     1      -4.542  -2.391  23.633  0.00  0.00    +0.004 A 
BRANCH  20   4
ATOM      4  O   UNL     1      -3.110   0.853  24.518  0.00  0.00    -0.495 OA
ATOM     26  C   UNL     1      -3.320   1.557  23.296  0.00  0.00    +0.277 C 
ENDBRANCH  20   4
ENDBRANCH  16  18
ENDBRANCH   6  16
ENDBRANCH  13   6
ENDBRANCH   8  13
BRANCH  10  14
ATOM     14  C   UNL     1       0.456   3.280  23.997  0.00  0.00    +0.090 C 
BRANCH  14  15
ATOM      3  O   UNL     1      -1.939   3.191  26.687  0.00  0.00    -0.357 OA
ATOM      7  N   UNL     1      -0.733   2.828  26.103  0.00  0.00    -0.083 NA
ATOM     15  C   UNL     1      -0.721   3.447  24.918  0.00  0.00    +0.086 A 
ATOM     17  C   UNL     1      -1.884   4.207  24.703  0.00  0.00    +0.073 A 
ATOM     19  C   UNL     1      -2.616   4.013  25.844  0.00  0.00    +0.163 A 
BRANCH  19  22
ATOM     22  C   UNL     1      -3.923   4.495  26.307  0.00  0.00    +0.236 C 
BRANCH  22   5
ATOM      5  O   UNL     1      -4.961   4.026  25.442  0.00  0.00    -0.375 OA
ATOM     27  C   UNL     1      -5.522   2.816  25.924  0.00  0.00    +0.194 C 
ENDBRANCH  22   5
ENDBRANCH  19  22
ENDBRANCH  14  15
ENDBRANCH  10  14
TORSDOF 10
ENDMDL
MODEL 3
REMARK VINA RESULT:      -4.4      1.456      2.099
REMARK  Name = 75536297
REMARK  12 active torsions:
REMARK  status: ('A' for Active; 'I' for Inactive)
REMARK    1  A    between atoms: O_2  and  C_9
REMARK    2  A    between atoms: O_4  and  C_20
REMARK    3  A    between atoms: O_4  and  C_26
REMARK    4  A    between atoms: O_5  and  C_22
REMARK    5  A    between atoms: O_5  and  C_27
REMARK    6  A    between atoms: N_6  and  C_13
REMARK    7  A    between atoms: N_6  and  C_16
REMARK    8  A    between atoms: C_8  and  C_13
REMARK    9  A    between atoms: C_10  and  C_14
REMARK   10  A    between atoms: C_14  and  C_15
REMARK   11  A    between atoms: C_16  and  C_18
REMARK   12  A    between atoms: C_19  and  C_22
REMARK                            x       y       z     vdW  Elec       q    Type
REMARK                         _______ _______ _______ _____ _____    ______ ____
ROOT
ATOM      1  O   UNL     1      -2.612  -0.930  23.744  0.00  0.00    -0.369 OA
ATOM      8  C   UNL     1      -3.598  -0.764  24.770  0.00  0.00    +0.161 C 
ATOM      9  C   UNL     1      -3.225  -1.549  26.035  0.00  0.00    +0.145 C 
ATOM     10  C   UNL     1      -1.276  -0.590  24.122  0.00  0.00    +0.125 C 
ATOM     11  C   UNL     1      -1.788  -1.288  26.479  0.00  0.00    +0.036 C 
ATOM     12  C   UNL     1      -0.820  -1.437  25.309  0.00  0.00    +0.034 C 
ENDROOT
BRANCH   9   2
ATOM      2  O   UNL     1      -3.350  -2.947  25.761  0.00  0.00    -0.389 OA
ATOM     29  H   UNL     1      -2.836  -3.426  26.435  0.00  0.00    +0.210 HD
ENDBRANCH   9   2
BRANCH   8  13
ATOM     13  C   UNL     1      -3.863   0.715  25.044  0.00  0.00    +0.115 C 
BRANCH  13   6
ATOM      6  N   UNL     1      -4.440   1.363  23.876  0.00  0.00    -0.309 NA
ATOM     28  H   UNL     1      -4.908   0.664  23.300  0.00  0.00    +0.122 HD
BRANCH   6  16
ATOM     16  C   UNL     1      -3.414   2.042  23.095  0.00  0.00    +0.120 C 
BRANCH  16  18
ATOM     18  C   UNL     1      -2.678   3.072  23.908  0.00  0.00    +0.008 A 
ATOM     20  C   UNL     1      -3.374   4.056  24.611  0.00  0.00    +0.124 A 
ATOM     21  C   UNL     1      -1.284   3.037  23.954  0.00  0.00    +0.008 A 
ATOM     23  C   UNL     1      -2.676   5.004  25.359  0.00  0.00    +0.046 A 
ATOM     24  C   UNL     1      -0.587   3.985  24.703  0.00  0.00    +0.001 A 
ATOM     25  C   UNL     1      -1.283   4.969  25.405  0.00  0.00    +0.004 A 
BRANCH  20   4
ATOM      4  O   UNL     1      -4.736   4.107  24.576  0.00  0.00    -0.495 OA
ATOM     26  C   UNL     1      -5.426   3.813  25.788  0.00  0.00    +0.277 C 
ENDBRANCH  20   4
ENDBRANCH  16  18
ENDBRANCH   6  16
ENDBRANCH  13   6
ENDBRANCH   8  13
BRANCH  10  14
ATOM     14  C   UNL     1      -0.382  -0.828  22.910  0.00  0.00    +0.090 C 
BRANCH  14  15
ATOM      3  O   UNL     1       2.290   1.481  23.632  0.00  0.00    -0.357 OA
ATOM      7  N   UNL     1       0.974   1.049  23.742  0.00  0.00    -0.083 NA
ATOM     15  C   UNL     1       0.915  -0.072  23.018  0.00  0.00    +0.086 A 
ATOM     17  C   UNL     1       2.152  -0.394  22.433  0.00  0.00    +0.073 A 
ATOM     19  C   UNL     1       2.981   0.613  22.849  0.00  0.00    +0.163 A 
BRANCH  19  22
ATOM     22  C   UNL     1       4.399   0.920  22.625  0.00  0.00    +0.236 C 
BRANCH  22   5
ATOM      5  O   UNL     1       5.135   0.788  23.845  0.00  0.00    -0.375 OA
ATOM     27  C   UNL     1       5.476  -0.566  24.093  0.00  0.00    +0.194 C 
ENDBRANCH  22   5
ENDBRANCH  19  22
ENDBRANCH  14  15
ENDBRANCH  10  14
TORSDOF 10
ENDMDL
MODEL 4
REMARK VINA RESULT:      -3.5      2.092      4.926
REMARK  Name = 75536297
REMARK  12 active torsions:
REMARK  status: ('A' for Active; 'I' for Inactive)
REMARK    1  A    between atoms: O_2  and  C_9
REMARK    2  A    between atoms: O_4  and  C_20
REMARK    3  A    between atoms: O_4  and  C_26
REMARK    4  A    between atoms: O_5  and  C_22
REMARK    5  A    between atoms: O_5  and  C_27
REMARK    6  A    between atoms: N_6  and  C_13
REMARK    7  A    between atoms: N_6  and  C_16
REMARK    8  A    between atoms: C_8  and  C_13
REMARK    9  A    between atoms: C_10  and  C_14
REMARK   10  A    between atoms: C_14  and  C_15
REMARK   11  A    between atoms: C_16  and  C_18
REMARK   12  A    between atoms: C_19  and  C_22
REMARK                            x       y       z     vdW  Elec       q    Type
REMARK                         _______ _______ _______ _____ _____    ______ ____
ROOT
ATOM      1  O   UNL     1      -3.560   2.626  25.573  0.00  0.00    -0.369 OA
ATOM      8  C   UNL     1      -4.784   2.065  25.081  0.00  0.00    +0.161 C 
ATOM      9  C   UNL     1      -6.002   2.834  25.609  0.00  0.00    +0.145 C 
ATOM     10  C   UNL     1      -3.378   4.019  25.306  0.00  0.00    +0.125 C 
ATOM     11  C   UNL     1      -5.867   4.342  25.415  0.00  0.00    +0.036 C 
ATOM     12  C   UNL     1      -4.514   4.837  25.918  0.00  0.00    +0.034 C 
ENDROOT
BRANCH   9   2
ATOM      2  O   UNL     1      -6.132   2.584  27.011  0.00  0.00    -0.389 OA
ATOM     29  H   UNL     1      -6.608   1.742  27.116  0.00  0.00    +0.210 HD
ENDBRANCH   9   2
BRANCH   8  13
ATOM     13  C   UNL     1      -4.764   1.951  23.559  0.00  0.00    +0.115 C 
BRANCH  13   6
ATOM      6  N   UNL     1      -3.515   1.364  23.098  0.00  0.00    -0.309 NA
ATOM     28  H   UNL     1      -3.715   0.675  22.373  0.00  0.00    +0.122 HD
BRANCH   6  16
ATOM     16  C   UNL     1      -2.798   0.731  24.198  0.00  0.00    +0.120 C 
BRANCH  16  18
ATOM     18  C   UNL     1      -3.027  -0.756  24.236  0.00  0.00    +0.008 A 
ATOM     20  C   UNL     1      -2.038  -1.618  24.710  0.00  0.00    +0.124 A 
ATOM     21  C   UNL     1      -4.244  -1.270  23.788  0.00  0.00    +0.008 A 
ATOM     23  C   UNL     1      -2.266  -2.993  24.738  0.00  0.00    +0.046 A 
ATOM     24  C   UNL     1      -4.472  -2.646  23.816  0.00  0.00    +0.001 A 
ATOM     25  C   UNL     1      -3.484  -3.507  24.290  0.00  0.00    +0.004 A 
BRANCH  20   4
ATOM      4  O   UNL     1      -0.843  -1.133  25.150  0.00  0.00    -0.495 OA
ATOM     26  C   UNL     1       0.176  -2.087  25.440  0.00  0.00    +0.277 C 
ENDBRANCH  20   4
ENDBRANCH  16  18
ENDBRANCH   6  16
ENDBRANCH  13   6
ENDBRANCH   8  13
BRANCH  10  14
ATOM     14  C   UNL     1      -2.035   4.428  25.897  0.00  0.00    +0.090 C 
BRANCH  14  15
ATOM      3  O   UNL     1       0.594   1.964  25.796  0.00  0.00    -0.357 OA
ATOM      7  N   UNL     1      -0.341   2.738  26.472  0.00  0.00    -0.083 NA
ATOM     15  C   UNL     1      -0.944   3.461  25.523  0.00  0.00    +0.086 A 
ATOM     17  C   UNL     1      -0.436   3.187  24.241  0.00  0.00    +0.073 A 
ATOM     19  C   UNL     1       0.527   2.241  24.468  0.00  0.00    +0.163 A 
BRANCH  19  22
ATOM     22  C   UNL     1       1.455   1.506  23.599  0.00  0.00    +0.236 C 
BRANCH  22   5
ATOM      5  O   UNL     1       0.817   0.343  23.063  0.00  0.00    -0.375 OA
ATOM     27  C   UNL     1       1.663  -0.328  22.144  0.00  0.00    +0.194 C 
ENDBRANCH  22   5
ENDBRANCH  19  22
ENDBRANCH  14  15
ENDBRANCH  10  14
TORSDOF 10
ENDMDL
MODEL 5
REMARK VINA RESULT:      -3.3     14.417     16.309
REMARK  Name = 75536297
REMARK  12 active torsions:
REMARK  status: ('A' for Active; 'I' for Inactive)
REMARK    1  A    between atoms: O_2  and  C_9
REMARK    2  A    between atoms: O_4  and  C_20
REMARK    3  A    between atoms: O_4  and  C_26
REMARK    4  A    between atoms: O_5  and  C_22
REMARK    5  A    between atoms: O_5  and  C_27
REMARK    6  A    between atoms: N_6  and  C_13
REMARK    7  A    between atoms: N_6  and  C_16
REMARK    8  A    between atoms: C_8  and  C_13
REMARK    9  A    between atoms: C_10  and  C_14
REMARK   10  A    between atoms: C_14  and  C_15
REMARK   11  A    between atoms: C_16  and  C_18
REMARK   12  A    between atoms: C_19  and  C_22
REMARK                            x       y       z     vdW  Elec       q    Type
REMARK                         _______ _______ _______ _____ _____    ______ ____
ROOT
ATOM      1  O   UNL     1      -5.484  -9.273  12.075  0.00  0.00    -0.369 OA
ATOM      8  C   UNL     1      -6.724  -8.918  11.451  0.00  0.00    +0.161 C 
ATOM      9  C   UNL     1      -6.655  -9.103   9.928  0.00  0.00    +0.145 C 
ATOM     10  C   UNL     1      -5.013 -10.592  11.790  0.00  0.00    +0.125 C 
ATOM     11  C   UNL     1      -6.107 -10.471   9.533  0.00  0.00    +0.036 C 
ATOM     12  C   UNL     1      -4.817 -10.780  10.287  0.00  0.00    +0.034 C 
ENDROOT
BRANCH   9   2
ATOM      2  O   UNL     1      -5.783  -8.109   9.384  0.00  0.00    -0.389 OA
ATOM     29  H   UNL     1      -5.155  -7.855  10.082  0.00  0.00    +0.210 HD
ENDBRANCH   9   2
BRANCH   8  13
ATOM     13  C   UNL     1      -7.894  -9.664  12.088  0.00  0.00    +0.115 C 
BRANCH  13   6
ATOM      6  N   UNL     1      -7.474 -10.346  13.303  0.00  0.00    -0.309 NA
ATOM     28  H   UNL     1      -7.799 -11.312  13.276  0.00  0.00    +0.122 HD
BRANCH   6  16
ATOM     16  C   UNL     1      -8.002  -9.679  14.486  0.00  0.00    +0.120 C 
BRANCH  16  18
ATOM     18  C   UNL     1      -7.147  -9.927  15.700  0.00  0.00    +0.008 A 
ATOM     20  C   UNL     1      -7.704  -9.919  16.979  0.00  0.00    +0.124 A 
ATOM     21  C   UNL     1      -5.783 -10.166  15.535  0.00  0.00    +0.008 A 
ATOM     23  C   UNL     1      -6.897 -10.150  18.092  0.00  0.00    +0.046 A 
ATOM     24  C   UNL     1      -4.975 -10.397  16.649  0.00  0.00    +0.001 A 
ATOM     25  C   UNL     1      -5.533 -10.389  17.927  0.00  0.00    +0.004 A 
BRANCH  20   4
ATOM      4  O   UNL     1      -9.035  -9.686  17.158  0.00  0.00    -0.495 OA
ATOM     26  C   UNL     1      -9.441  -8.326  17.297  0.00  0.00    +0.277 C 
ENDBRANCH  20   4
ENDBRANCH  16  18
ENDBRANCH   6  16
ENDBRANCH  13   6
ENDBRANCH   8  13
BRANCH  10  14
ATOM     14  C   UNL     1      -3.698 -10.781  12.537  0.00  0.00    +0.090 C 
BRANCH  14  15
ATOM      3  O   UNL     1      -1.517  -8.908  10.365  0.00  0.00    -0.357 OA
ATOM      7  N   UNL     1      -2.711  -9.561  10.642  0.00  0.00    -0.083 NA
ATOM     15  C   UNL     1      -2.577 -10.012  11.893  0.00  0.00    +0.086 A 
ATOM     17  C   UNL     1      -1.330  -9.677  12.450  0.00  0.00    +0.073 A 
ATOM     19  C   UNL     1      -0.703  -8.984  11.449  0.00  0.00    +0.163 A 
BRANCH  19  22
ATOM     22  C   UNL     1       0.612  -8.340  11.328  0.00  0.00    +0.236 C 
BRANCH  22   5
ATOM      5  O   UNL     1       0.799  -7.392  12.382  0.00  0.00    -0.375 OA
ATOM     27  C   UNL     1       1.968  -6.617  12.172  0.00  0.00    +0.194 C 
ENDBRANCH  22   5
ENDBRANCH  19  22
ENDBRANCH  14  15
ENDBRANCH  10  14
TORSDOF 10
ENDMDL
MODEL 6
REMARK VINA RESULT:      -3.2      1.627      2.242
REMARK  Name = 75536297
REMARK  12 active torsions:
REMARK  status: ('A' for Active; 'I' for Inactive)
REMARK    1  A    between atoms: O_2  and  C_9
REMARK    2  A    between atoms: O_4  and  C_20
REMARK    3  A    between atoms: O_4  and  C_26
REMARK    4  A    between atoms: O_5  and  C_22
REMARK    5  A    between atoms: O_5  and  C_27
REMARK    6  A    between atoms: N_6  and  C_13
REMARK    7  A    between atoms: N_6  and  C_16
REMARK    8  A    between atoms: C_8  and  C_13
REMARK    9  A    between atoms: C_10  and  C_14
REMARK   10  A    between atoms: C_14  and  C_15
REMARK   11  A    between atoms: C_16  and  C_18
REMARK   12  A    between atoms: C_19  and  C_22
REMARK                            x       y       z     vdW  Elec       q    Type
REMARK                         _______ _______ _______ _____ _____    ______ ____
ROOT
ATOM      1  O   UNL     1      -2.315  -0.499  23.295  0.00  0.00    -0.369 OA
ATOM      8  C   UNL     1      -3.576   0.145  23.509  0.00  0.00    +0.161 C 
ATOM      9  C   UNL     1      -4.402  -0.586  24.577  0.00  0.00    +0.145 C 
ATOM     10  C   UNL     1      -1.511  -0.668  24.465  0.00  0.00    +0.125 C 
ATOM     11  C   UNL     1      -3.600  -0.859  25.846  0.00  0.00    +0.036 C 
ATOM     12  C   UNL     1      -2.253  -1.496  25.513  0.00  0.00    +0.034 C 
ENDROOT
BRANCH   9   2
ATOM      2  O   UNL     1      -4.826  -1.845  24.048  0.00  0.00    -0.389 OA
ATOM     29  H   UNL     1      -4.839  -1.767  23.078  0.00  0.00    +0.210 HD
ENDBRANCH   9   2
BRANCH   8  13
ATOM     13  C   UNL     1      -3.392   1.630  23.813  0.00  0.00    +0.115 C 
BRANCH  13   6
ATOM      6  N   UNL     1      -4.453   2.118  24.681  0.00  0.00    -0.309 NA
ATOM     28  H   UNL     1      -5.063   2.739  24.149  0.00  0.00    +0.122 HD
BRANCH   6  16
ATOM     16  C   UNL     1      -3.905   2.826  25.830  0.00  0.00    +0.120 C 
BRANCH  16  18
ATOM     18  C   UNL     1      -2.805   3.774  25.433  0.00  0.00    +0.008 A 
ATOM     20  C   UNL     1      -1.466   3.435  25.630  0.00  0.00    +0.124 A 
ATOM     21  C   UNL     1      -3.136   5.004  24.865  0.00  0.00    +0.008 A 
ATOM     23  C   UNL     1      -0.459   4.326  25.258  0.00  0.00    +0.046 A 
ATOM     24  C   UNL     1      -2.129   5.895  24.492  0.00  0.00    +0.001 A 
ATOM     25  C   UNL     1      -0.791   5.555  24.689  0.00  0.00    +0.004 A 
BRANCH  20   4
ATOM      4  O   UNL     1      -1.124   2.239  26.186  0.00  0.00    -0.495 OA
ATOM     26  C   UNL     1       0.157   2.156  26.807  0.00  0.00    +0.277 C 
ENDBRANCH  20   4
ENDBRANCH  16  18
ENDBRANCH   6  16
ENDBRANCH  13   6
ENDBRANCH   8  13
BRANCH  10  14
ATOM     14  C   UNL     1      -0.222  -1.362  24.039  0.00  0.00    +0.090 C 
BRANCH  14  15
ATOM      3  O   UNL     1       1.815   1.552  23.453  0.00  0.00    -0.357 OA
ATOM      7  N   UNL     1       0.646   0.935  23.878  0.00  0.00    -0.083 NA
ATOM     15  C   UNL     1       0.853  -0.371  23.683  0.00  0.00    +0.086 A 
ATOM     17  C   UNL     1       2.123  -0.634  23.142  0.00  0.00    +0.073 A 
ATOM     19  C   UNL     1       2.687   0.608  23.017  0.00  0.00    +0.163 A 
BRANCH  19  22
ATOM     22  C   UNL     1       3.985   1.090  22.527  0.00  0.00    +0.236 C 
BRANCH  22   5
ATOM      5  O   UNL     1       4.963   1.026  23.569  0.00  0.00    -0.375 OA
ATOM     27  C   UNL     1       5.462  -0.292  23.723  0.00  0.00    +0.194 C 
ENDBRANCH  22   5
ENDBRANCH  19  22
ENDBRANCH  14  15
ENDBRANCH  10  14
TORSDOF 10
ENDMDL
MODEL 7
REMARK VINA RESULT:      -3.0      2.121      4.530
REMARK  Name = 75536297
REMARK  12 active torsions:
REMARK  status: ('A' for Active; 'I' for Inactive)
REMARK    1  A    between atoms: O_2  and  C_9
REMARK    2  A    between atoms: O_4  and  C_20
REMARK    3  A    between atoms: O_4  and  C_26
REMARK    4  A    between atoms: O_5  and  C_22
REMARK    5  A    between atoms: O_5  and  C_27
REMARK    6  A    between atoms: N_6  and  C_13
REMARK    7  A    between atoms: N_6  and  C_16
REMARK    8  A    between atoms: C_8  and  C_13
REMARK    9  A    between atoms: C_10  and  C_14
REMARK   10  A    between atoms: C_14  and  C_15
REMARK   11  A    between atoms: C_16  and  C_18
REMARK   12  A    between atoms: C_19  and  C_22
REMARK                            x       y       z     vdW  Elec       q    Type
REMARK                         _______ _______ _______ _____ _____    ______ ____
ROOT
ATOM      1  O   UNL     1       0.341   1.369  24.215  0.00  0.00    -0.369 OA
ATOM      8  C   UNL     1      -0.090   2.285  25.229  0.00  0.00    +0.161 C 
ATOM      9  C   UNL     1      -1.034   3.350  24.653  0.00  0.00    +0.145 C 
ATOM     10  C   UNL     1      -0.708   0.716  23.496  0.00  0.00    +0.125 C 
ATOM     11  C   UNL     1      -2.158   2.742  23.820  0.00  0.00    +0.036 C 
ATOM     12  C   UNL     1      -1.606   1.742  22.807  0.00  0.00    +0.034 C 
ENDROOT
BRANCH   9   2
ATOM      2  O   UNL     1      -0.281   4.219  23.803  0.00  0.00    -0.389 OA
ATOM     29  H   UNL     1       0.614   3.847  23.721  0.00  0.00    +0.210 HD
ENDBRANCH   9   2
BRANCH   8  13
ATOM     13  C   UNL     1      -0.688   1.543  26.423  0.00  0.00    +0.115 C 
BRANCH  13   6
ATOM      6  N   UNL     1      -0.691   0.107  26.192  0.00  0.00    -0.309 NA
ATOM     28  H   UNL     1      -0.620  -0.073  25.191  0.00  0.00    +0.122 HD
BRANCH   6  16
ATOM     16  C   UNL     1      -1.902  -0.506  26.721  0.00  0.00    +0.120 C 
BRANCH  16  18
ATOM     18  C   UNL     1      -2.762  -1.083  25.628  0.00  0.00    +0.008 A 
ATOM     20  C   UNL     1      -3.828  -0.355  25.099  0.00  0.00    +0.124 A 
ATOM     21  C   UNL     1      -2.484  -2.362  25.146  0.00  0.00    +0.008 A 
ATOM     23  C   UNL     1      -4.615  -0.906  24.088  0.00  0.00    +0.046 A 
ATOM     24  C   UNL     1      -3.271  -2.913  24.135  0.00  0.00    +0.001 A 
ATOM     25  C   UNL     1      -4.336  -2.185  23.606  0.00  0.00    +0.004 A 
BRANCH  20   4
ATOM      4  O   UNL     1      -4.115   0.895  25.559  0.00  0.00    -0.495 OA
ATOM     26  C   UNL     1      -5.310   1.505  25.077  0.00  0.00    +0.277 C 
ENDBRANCH  20   4
ENDBRANCH  16  18
ENDBRANCH   6  16
ENDBRANCH  13   6
ENDBRANCH   8  13
BRANCH  10  14
ATOM     14  C   UNL     1      -0.058  -0.209  22.475  0.00  0.00    +0.090 C 
BRANCH  14  15
ATOM      3  O   UNL     1       3.383   0.106  21.454  0.00  0.00    -0.357 OA
ATOM      7  N   UNL     1       2.056  -0.231  21.218  0.00  0.00    -0.083 NA
ATOM     15  C   UNL     1       1.422   0.037  22.363  0.00  0.00    +0.086 A 
ATOM     17  C   UNL     1       2.289   0.541  23.348  0.00  0.00    +0.073 A 
ATOM     19  C   UNL     1       3.509   0.565  22.726  0.00  0.00    +0.163 A 
BRANCH  19  22
ATOM     22  C   UNL     1       4.857   0.968  23.146  0.00  0.00    +0.236 C 
BRANCH  22   5
ATOM      5  O   UNL     1       5.728  -0.166  23.176  0.00  0.00    -0.375 OA
ATOM     27  C   UNL     1       5.443  -1.002  24.285  0.00  0.00    +0.194 C 
ENDBRANCH  22   5
ENDBRANCH  19  22
ENDBRANCH  14  15
ENDBRANCH  10  14
TORSDOF 10
ENDMDL
MODEL 8
REMARK VINA RESULT:      -2.4     14.312     16.065
REMARK  Name = 75536297
REMARK  12 active torsions:
REMARK  status: ('A' for Active; 'I' for Inactive)
REMARK    1  A    between atoms: O_2  and  C_9
REMARK    2  A    between atoms: O_4  and  C_20
REMARK    3  A    between atoms: O_4  and  C_26
REMARK    4  A    between atoms: O_5  and  C_22
REMARK    5  A    between atoms: O_5  and  C_27
REMARK    6  A    between atoms: N_6  and  C_13
REMARK    7  A    between atoms: N_6  and  C_16
REMARK    8  A    between atoms: C_8  and  C_13
REMARK    9  A    between atoms: C_10  and  C_14
REMARK   10  A    between atoms: C_14  and  C_15
REMARK   11  A    between atoms: C_16  and  C_18
REMARK   12  A    between atoms: C_19  and  C_22
REMARK                            x       y       z     vdW  Elec       q    Type
REMARK                         _______ _______ _______ _____ _____    ______ ____
ROOT
ATOM      1  O   UNL     1      -4.751  -9.586  12.557  0.00  0.00    -0.369 OA
ATOM      8  C   UNL     1      -5.987  -9.247  11.918  0.00  0.00    +0.161 C 
ATOM      9  C   UNL     1      -5.758  -8.763  10.480  0.00  0.00    +0.145 C 
ATOM     10  C   UNL     1      -3.953 -10.551  11.867  0.00  0.00    +0.125 C 
ATOM     11  C   UNL     1      -4.865  -9.710   9.684  0.00  0.00    +0.036 C 
ATOM     12  C   UNL     1      -3.601 -10.055  10.466  0.00  0.00    +0.034 C 
ENDROOT
BRANCH   9   2
ATOM      2  O   UNL     1      -5.114  -7.487  10.522  0.00  0.00    -0.389 OA
ATOM     29  H   UNL     1      -4.632  -7.374   9.684  0.00  0.00    +0.210 HD
ENDBRANCH   9   2
BRANCH   8  13
ATOM     13  C   UNL     1      -6.987 -10.398  12.007  0.00  0.00    +0.115 C 
BRANCH  13   6
ATOM      6  N   UNL     1      -7.221 -10.776  13.392  0.00  0.00    -0.309 NA
ATOM     28  H   UNL     1      -7.987 -11.449  13.432  0.00  0.00    +0.122 HD
BRANCH   6  16
ATOM     16  C   UNL     1      -7.541  -9.611  14.206  0.00  0.00    +0.120 C 
BRANCH  16  18
ATOM     18  C   UNL     1      -7.734  -9.973  15.654  0.00  0.00    +0.008 A 
ATOM     20  C   UNL     1      -6.678  -9.876  16.560  0.00  0.00    +0.124 A 
ATOM     21  C   UNL     1      -8.986 -10.410  16.087  0.00  0.00    +0.008 A 
ATOM     23  C   UNL     1      -6.874 -10.217  17.898  0.00  0.00    +0.046 A 
ATOM     24  C   UNL     1      -9.182 -10.751  17.425  0.00  0.00    +0.001 A 
ATOM     25  C   UNL     1      -8.126 -10.654  18.331  0.00  0.00    +0.004 A 
BRANCH  20   4
ATOM      4  O   UNL     1      -5.448  -9.453  16.154  0.00  0.00    -0.495 OA
ATOM     26  C   UNL     1      -4.423 -10.439  16.054  0.00  0.00    +0.277 C 
ENDBRANCH  20   4
ENDBRANCH  16  18
ENDBRANCH   6  16
ENDBRANCH  13   6
ENDBRANCH   8  13
BRANCH  10  14
ATOM     14  C   UNL     1      -2.693 -10.781  12.694  0.00  0.00    +0.090 C 
BRANCH  14  15
ATOM      3  O   UNL     1      -0.213  -8.702  11.109  0.00  0.00    -0.357 OA
ATOM      7  N   UNL     1      -1.198  -9.681  11.079  0.00  0.00    -0.083 NA
ATOM     15  C   UNL     1      -1.611  -9.796  12.345  0.00  0.00    +0.086 A 
ATOM     17  C   UNL     1      -0.928  -8.923  13.210  0.00  0.00    +0.073 A 
ATOM     19  C   UNL     1      -0.061  -8.258  12.384  0.00  0.00    +0.163 A 
BRANCH  19  22
ATOM     22  C   UNL     1       0.948  -7.213  12.598  0.00  0.00    +0.236 C 
BRANCH  22   5
ATOM      5  O   UNL     1       2.049  -7.395  11.702  0.00  0.00    -0.375 OA
ATOM     27  C   UNL     1       3.097  -6.484  11.988  0.00  0.00    +0.194 C 
ENDBRANCH  22   5
ENDBRANCH  19  22
ENDBRANCH  14  15
ENDBRANCH  10  14
TORSDOF 10
ENDMDL
MODEL 9
REMARK VINA RESULT:      -2.4      1.720      6.232
REMARK  Name = 75536297
REMARK  12 active torsions:
REMARK  status: ('A' for Active; 'I' for Inactive)
REMARK    1  A    between atoms: O_2  and  C_9
REMARK    2  A    between atoms: O_4  and  C_20
REMARK    3  A    between atoms: O_4  and  C_26
REMARK    4  A    between atoms: O_5  and  C_22
REMARK    5  A    between atoms: O_5  and  C_27
REMARK    6  A    between atoms: N_6  and  C_13
REMARK    7  A    between atoms: N_6  and  C_16
REMARK    8  A    between atoms: C_8  and  C_13
REMARK    9  A    between atoms: C_10  and  C_14
REMARK   10  A    between atoms: C_14  and  C_15
REMARK   11  A    between atoms: C_16  and  C_18
REMARK   12  A    between atoms: C_19  and  C_22
REMARK                            x       y       z     vdW  Elec       q    Type
REMARK                         _______ _______ _______ _____ _____    ______ ____
ROOT
ATOM      1  O   UNL     1      -2.196   2.852  24.381  0.00  0.00    -0.369 OA
ATOM      8  C   UNL     1      -1.145   3.612  24.991  0.00  0.00    +0.161 C 
ATOM      9  C   UNL     1      -1.619   5.026  25.356  0.00  0.00    +0.145 C 
ATOM     10  C   UNL     1      -3.399   2.753  25.146  0.00  0.00    +0.125 C 
ATOM     11  C   UNL     1      -2.935   5.017  26.129  0.00  0.00    +0.036 C 
ATOM     12  C   UNL     1      -3.971   4.141  25.432  0.00  0.00    +0.034 C 
ENDROOT
BRANCH   9   2
ATOM      2  O   UNL     1      -1.826   5.766  24.151  0.00  0.00    -0.389 OA
ATOM     29  H   UNL     1      -2.370   5.218  23.558  0.00  0.00    +0.210 HD
ENDBRANCH   9   2
BRANCH   8  13
ATOM     13  C   UNL     1      -0.540   2.863  26.176  0.00  0.00    +0.115 C 
BRANCH  13   6
ATOM      6  N   UNL     1       0.195   1.690  25.727  0.00  0.00    -0.309 NA
ATOM     28  H   UNL     1       0.667   1.264  26.525  0.00  0.00    +0.122 HD
BRANCH   6  16
ATOM     16  C   UNL     1       1.172   2.045  24.706  0.00  0.00    +0.120 C 
BRANCH  16  18
ATOM     18  C   UNL     1       1.200   1.042  23.584  0.00  0.00    +0.008 A 
ATOM     20  C   UNL     1       2.384   0.773  22.897  0.00  0.00    +0.124 A 
ATOM     21  C   UNL     1       0.024   0.379  23.232  0.00  0.00    +0.008 A 
ATOM     23  C   UNL     1       2.392  -0.159  21.859  0.00  0.00    +0.046 A 
ATOM     24  C   UNL     1       0.032  -0.553  22.194  0.00  0.00    +0.001 A 
ATOM     25  C   UNL     1       1.216  -0.822  21.507  0.00  0.00    +0.004 A 
BRANCH  20   4
ATOM      4  O   UNL     1       3.541   1.412  23.226  0.00  0.00    -0.495 OA
ATOM     26  C   UNL     1       4.738   0.636  23.210  0.00  0.00    +0.277 C 
ENDBRANCH  20   4
ENDBRANCH  16  18
ENDBRANCH   6  16
ENDBRANCH  13   6
ENDBRANCH   8  13
BRANCH  10  14
ATOM     14  C   UNL     1      -4.386   1.914  24.342  0.00  0.00    +0.090 C 
BRANCH  14  15
ATOM      3  O   UNL     1      -4.099  -1.446  25.611  0.00  0.00    -0.357 OA
ATOM      7  N   UNL     1      -4.389  -0.096  25.761  0.00  0.00    -0.083 NA
ATOM     15  C   UNL     1      -4.169   0.441  24.557  0.00  0.00    +0.086 A 
ATOM     17  C   UNL     1      -3.744  -0.513  23.616  0.00  0.00    +0.073 A 
ATOM     19  C   UNL     1      -3.716  -1.682  24.329  0.00  0.00    +0.163 A 
BRANCH  19  22
ATOM     22  C   UNL     1      -3.371  -3.070  23.994  0.00  0.00    +0.236 C 
BRANCH  22   5
ATOM      5  O   UNL     1      -1.955  -3.206  23.844  0.00  0.00    -0.375 OA
ATOM     27  C   UNL     1      -1.264  -2.563  24.902  0.00  0.00    +0.194 C 
ENDBRANCH  22   5
ENDBRANCH  19  22
ENDBRANCH  14  15
ENDBRANCH  10  14
TORSDOF 10
ENDMDL
MODEL 10
REMARK VINA RESULT:      -2.1      1.849      5.789
REMARK  Name = 75536297
REMARK  12 active torsions:
REMARK  status: ('A' for Active; 'I' for Inactive)
REMARK    1  A    between atoms: O_2  and  C_9
REMARK    2  A    between atoms: O_4  and  C_20
REMARK    3  A    between atoms: O_4  and  C_26
REMARK    4  A    between atoms: O_5  and  C_22
REMARK    5  A    between atoms: O_5  and  C_27
REMARK    6  A    between atoms: N_6  and  C_13
REMARK    7  A    between atoms: N_6  and  C_16
REMARK    8  A    between atoms: C_8  and  C_13
REMARK    9  A    between atoms: C_10  and  C_14
REMARK   10  A    between atoms: C_14  and  C_15
REMARK   11  A    between atoms: C_16  and  C_18
REMARK   12  A    between atoms: C_19  and  C_22
REMARK                            x       y       z     vdW  Elec       q    Type
REMARK                         _______ _______ _______ _____ _____    ______ ____
ROOT
ATOM      1  O   UNL     1      -2.802   2.511  24.837  0.00  0.00    -0.369 OA
ATOM      8  C   UNL     1      -1.660   3.289  25.218  0.00  0.00    +0.161 C 
ATOM      9  C   UNL     1      -2.053   4.740  25.528  0.00  0.00    +0.145 C 
ATOM     10  C   UNL     1      -3.879   2.508  25.777  0.00  0.00    +0.125 C 
ATOM     11  C   UNL     1      -3.237   4.831  26.485  0.00  0.00    +0.036 C 
ATOM     12  C   UNL     1      -4.380   3.930  26.025  0.00  0.00    +0.034 C 
ENDROOT
BRANCH   9   2
ATOM      2  O   UNL     1      -2.427   5.386  24.308  0.00  0.00    -0.389 OA
ATOM     29  H   UNL     1      -1.620   5.499  23.776  0.00  0.00    +0.210 HD
ENDBRANCH   9   2
BRANCH   8  13
ATOM     13  C   UNL     1      -0.896   2.622  26.359  0.00  0.00    +0.115 C 
BRANCH  13   6
ATOM      6  N   UNL     1       0.320   1.992  25.870  0.00  0.00    -0.309 NA
ATOM     28  H   UNL     1       1.074   2.152  26.538  0.00  0.00    +0.122 HD
BRANCH   6  16
ATOM     16  C   UNL     1       0.695   2.521  24.565  0.00  0.00    +0.120 C 
BRANCH  16  18
ATOM     18  C   UNL     1       1.175   1.437  23.637  0.00  0.00    +0.008 A 
ATOM     20  C   UNL     1       0.276   0.532  23.073  0.00  0.00    +0.124 A 
ATOM     21  C   UNL     1       2.535   1.344  23.342  0.00  0.00    +0.008 A 
ATOM     23  C   UNL     1       0.737  -0.467  22.216  0.00  0.00    +0.046 A 
ATOM     24  C   UNL     1       2.997   0.345  22.484  0.00  0.00    +0.001 A 
ATOM     25  C   UNL     1       2.098  -0.560  21.922  0.00  0.00    +0.004 A 
BRANCH  20   4
ATOM      4  O   UNL     1      -1.056   0.607  23.351  0.00  0.00    -0.495 OA
ATOM     26  C   UNL     1      -1.896   1.177  22.349  0.00  0.00    +0.277 C 
ENDBRANCH  20   4
ENDBRANCH  16  18
ENDBRANCH   6  16
ENDBRANCH  13   6
ENDBRANCH   8  13
BRANCH  10  14
ATOM     14  C   UNL     1      -4.987   1.635  25.202  0.00  0.00    +0.090 C 
BRANCH  14  15
ATOM      3  O   UNL     1      -4.191  -1.539  23.693  0.00  0.00    -0.357 OA
ATOM      7  N   UNL     1      -4.799  -0.291  23.682  0.00  0.00    -0.083 NA
ATOM     15  C   UNL     1      -4.490   0.256  24.861  0.00  0.00    +0.086 A 
ATOM     17  C   UNL     1      -3.696  -0.594  25.651  0.00  0.00    +0.073 A 
ATOM     19  C   UNL     1      -3.537  -1.708  24.871  0.00  0.00    +0.163 A 
BRANCH  19  22
ATOM     22  C   UNL     1      -2.834  -2.984  25.052  0.00  0.00    +0.236 C 
BRANCH  22   5
ATOM      5  O   UNL     1      -1.502  -2.894  24.539  0.00  0.00    -0.375 OA
ATOM     27  C   UNL     1      -0.710  -2.015  25.320  0.00  0.00    +0.194 C 
ENDBRANCH  22   5
ENDBRANCH  19  22
ENDBRANCH  14  15
ENDBRANCH  10  14
TORSDOF 10
ENDMDL
