MODEL 1
REMARK VINA RESULT:       0.5      0.000      0.000
REMARK  Name = 75366943
REMARK  7 active torsions:
REMARK  status: ('A' for Active; 'I' for Inactive)
REMARK    1  A    between atoms: O_4  and  C_11
REMARK    2  A    between atoms: N_7  and  C_15
REMARK    3  A    between atoms: C_9  and  C_14
REMARK    4  A    between atoms: C_10  and  C_15
REMARK    5  A    between atoms: C_14  and  C_16
REMARK    6  A    between atoms: C_18  and  C_20
REMARK    7  A    between atoms: C_19  and  C_21
REMARK                            x       y       z     vdW  Elec       q    Type
REMARK                         _______ _______ _______ _____ _____    ______ ____
ROOT
ATOM      3  O   UNL     1      -4.576   3.100  26.537  0.00  0.00    -0.369 OA
ATOM      9  C   UNL     1      -3.476   3.444  25.690  0.00  0.00    +0.125 C 
ATOM     10  C   UNL     1      -5.822   2.886  25.862  0.00  0.00    +0.164 C 
ATOM     11  C   UNL     1      -6.212   4.102  25.012  0.00  0.00    +0.145 C 
ATOM     12  C   UNL     1      -3.777   4.722  24.909  0.00  0.00    +0.034 C 
ATOM     13  C   UNL     1      -5.072   4.574  24.114  0.00  0.00    +0.036 C 
ENDROOT
BRANCH  11   4
ATOM      4  O   UNL     1      -6.557   5.183  25.884  0.00  0.00    -0.389 OA
ATOM     32  H   UNL     1      -5.731   5.630  26.137  0.00  0.00    +0.210 HD
ENDBRANCH  11   4
BRANCH   9  14
ATOM     14  C   UNL     1      -2.252   3.628  26.578  0.00  0.00    +0.090 C 
BRANCH  14  16
ATOM      5  O   UNL     1       0.945   2.088  25.950  0.00  0.00    -0.354 OA
ATOM      8  N   UNL     1       0.030   2.726  26.777  0.00  0.00    -0.083 NA
ATOM     16  C   UNL     1      -1.040   2.943  26.006  0.00  0.00    +0.087 A 
ATOM     17  C   UNL     1      -0.859   2.468  24.695  0.00  0.00    +0.076 A 
ATOM     19  C   UNL     1       0.405   1.940  24.712  0.00  0.00    +0.167 A 
BRANCH  19  21
ATOM      2  F   UNL     1       3.641  -0.579  20.953  0.00  0.00    -0.205 F 
ATOM     21  C   UNL     1       1.239   1.292  23.743  0.00  0.00    +0.020 A 
ATOM     24  C   UNL     1       0.719   0.268  22.949  0.00  0.00    +0.014 A 
ATOM     25  C   UNL     1       2.569   1.682  23.593  0.00  0.00    +0.014 A 
ATOM     28  C   UNL     1       1.530  -0.363  22.007  0.00  0.00    +0.039 A 
ATOM     29  C   UNL     1       3.381   1.051  22.651  0.00  0.00    +0.039 A 
ATOM     31  C   UNL     1       2.861   0.028  21.858  0.00  0.00    +0.123 A 
ENDBRANCH  19  21
ENDBRANCH  14  16
ENDBRANCH   9  14
BRANCH  10  15
ATOM     15  C   UNL     1      -5.800   1.583  25.066  0.00  0.00    +0.138 C 
BRANCH  15   7
ATOM      6  O   UNL     1      -5.082  -0.969  23.964  0.00  0.00    -0.270 OA
ATOM      7  N   UNL     1      -4.554   0.900  25.234  0.00  0.00    -0.309 N 
ATOM     18  C   UNL     1      -4.289  -0.342  24.662  0.00  0.00    +0.244 C 
ATOM     33  H   UNL     1      -3.886   1.323  25.871  0.00  0.00    +0.149 HD
BRANCH  18  20
ATOM      1  F   UNL     1       0.747  -2.566  25.765  0.00  0.00    -0.205 F 
ATOM     20  C   UNL     1      -2.957  -0.931  24.954  0.00  0.00    +0.037 A 
ATOM     22  C   UNL     1      -2.505  -2.030  24.224  0.00  0.00    +0.016 A 
ATOM     23  C   UNL     1      -2.157  -0.384  25.958  0.00  0.00    +0.016 A 
ATOM     26  C   UNL     1      -1.254  -2.584  24.499  0.00  0.00    +0.039 A 
ATOM     27  C   UNL     1      -0.906  -0.937  26.231  0.00  0.00    +0.039 A 
ATOM     30  C   UNL     1      -0.455  -2.037  25.502  0.00  0.00    +0.123 A 
ENDBRANCH  18  20
ENDBRANCH  15   7
ENDBRANCH  10  15
TORSDOF 7
ENDMDL
MODEL 2
REMARK VINA RESULT:       0.9      2.531      5.077
REMARK  Name = 75366943
REMARK  7 active torsions:
REMARK  status: ('A' for Active; 'I' for Inactive)
REMARK    1  A    between atoms: O_4  and  C_11
REMARK    2  A    between atoms: N_7  and  C_15
REMARK    3  A    between atoms: C_9  and  C_14
REMARK    4  A    between atoms: C_10  and  C_15
REMARK    5  A    between atoms: C_14  and  C_16
REMARK    6  A    between atoms: C_18  and  C_20
REMARK    7  A    between atoms: C_19  and  C_21
REMARK                            x       y       z     vdW  Elec       q    Type
REMARK                         _______ _______ _______ _____ _____    ______ ____
ROOT
ATOM      3  O   UNL     1      -3.652  -0.554  23.395  0.00  0.00    -0.369 OA
ATOM      9  C   UNL     1      -2.324  -0.279  23.846  0.00  0.00    +0.125 C 
ATOM     10  C   UNL     1      -4.533  -1.099  24.387  0.00  0.00    +0.164 C 
ATOM     11  C   UNL     1      -3.948  -2.371  25.014  0.00  0.00    +0.145 C 
ATOM     12  C   UNL     1      -1.659  -1.550  24.371  0.00  0.00    +0.034 C 
ATOM     13  C   UNL     1      -2.505  -2.182  25.474  0.00  0.00    +0.036 C 
ENDROOT
BRANCH  11   4
ATOM      4  O   UNL     1      -3.962  -3.414  24.036  0.00  0.00    -0.389 OA
ATOM     32  H   UNL     1      -3.413  -4.142  24.376  0.00  0.00    +0.210 HD
ENDBRANCH  11   4
BRANCH   9  14
ATOM     14  C   UNL     1      -1.547   0.289  22.665  0.00  0.00    +0.090 C 
BRANCH  14  16
ATOM      5  O   UNL     1       1.645   1.502  23.819  0.00  0.00    -0.354 OA
ATOM      8  N   UNL     1       0.268   1.612  23.674  0.00  0.00    -0.083 NA
ATOM     16  C   UNL     1      -0.098   0.514  23.006  0.00  0.00    +0.087 A 
ATOM     17  C   UNL     1       0.995  -0.318  22.707  0.00  0.00    +0.076 A 
ATOM     19  C   UNL     1       2.067   0.349  23.240  0.00  0.00    +0.167 A 
BRANCH  19  21
ATOM      2  F   UNL     1       7.535  -0.637  23.517  0.00  0.00    -0.205 F 
ATOM     21  C   UNL     1       3.476   0.095  23.312  0.00  0.00    +0.020 A 
ATOM     24  C   UNL     1       4.384   1.093  22.955  0.00  0.00    +0.014 A 
ATOM     25  C   UNL     1       3.941  -1.149  23.737  0.00  0.00    +0.014 A 
ATOM     28  C   UNL     1       5.754   0.846  23.025  0.00  0.00    +0.039 A 
ATOM     29  C   UNL     1       5.311  -1.397  23.808  0.00  0.00    +0.039 A 
ATOM     31  C   UNL     1       6.218  -0.399  23.451  0.00  0.00    +0.123 A 
ENDBRANCH  19  21
ENDBRANCH  14  16
ENDBRANCH   9  14
BRANCH  10  15
ATOM     15  C   UNL     1      -4.913  -0.043  25.424  0.00  0.00    +0.138 C 
BRANCH  15   7
ATOM      6  O   UNL     1      -5.503   2.677  24.720  0.00  0.00    -0.270 OA
ATOM      7  N   UNL     1      -3.993   1.053  25.402  0.00  0.00    -0.309 N 
ATOM     18  C   UNL     1      -4.366   2.347  25.046  0.00  0.00    +0.244 C 
ATOM     33  H   UNL     1      -3.018   0.831  25.577  0.00  0.00    +0.149 HD
BRANCH  18  20
ATOM      1  F   UNL     1      -0.286   6.204  25.056  0.00  0.00    -0.205 F 
ATOM     20  C   UNL     1      -3.286   3.367  25.048  0.00  0.00    +0.037 A 
ATOM     22  C   UNL     1      -3.525   4.636  24.520  0.00  0.00    +0.016 A 
ATOM     23  C   UNL     1      -2.033   3.057  25.579  0.00  0.00    +0.016 A 
ATOM     26  C   UNL     1      -2.511   5.595  24.522  0.00  0.00    +0.039 A 
ATOM     27  C   UNL     1      -1.021   4.016  25.581  0.00  0.00    +0.039 A 
ATOM     30  C   UNL     1      -1.259   5.284  25.052  0.00  0.00    +0.123 A 
ENDBRANCH  18  20
ENDBRANCH  15   7
ENDBRANCH  10  15
TORSDOF 7
ENDMDL
MODEL 3
REMARK VINA RESULT:       2.4      2.406      3.364
REMARK  Name = 75366943
REMARK  7 active torsions:
REMARK  status: ('A' for Active; 'I' for Inactive)
REMARK    1  A    between atoms: O_4  and  C_11
REMARK    2  A    between atoms: N_7  and  C_15
REMARK    3  A    between atoms: C_9  and  C_14
REMARK    4  A    between atoms: C_10  and  C_15
REMARK    5  A    between atoms: C_14  and  C_16
REMARK    6  A    between atoms: C_18  and  C_20
REMARK    7  A    between atoms: C_19  and  C_21
REMARK                            x       y       z     vdW  Elec       q    Type
REMARK                         _______ _______ _______ _____ _____    ______ ____
ROOT
ATOM      3  O   UNL     1      -1.493   3.043  24.228  0.00  0.00    -0.369 OA
ATOM      9  C   UNL     1      -2.577   2.481  23.483  0.00  0.00    +0.125 C 
ATOM     10  C   UNL     1      -1.876   3.821  25.369  0.00  0.00    +0.164 C 
ATOM     11  C   UNL     1      -2.845   4.945  24.978  0.00  0.00    +0.145 C 
ATOM     12  C   UNL     1      -3.507   3.579  22.973  0.00  0.00    +0.034 C 
ATOM     13  C   UNL     1      -4.008   4.440  24.129  0.00  0.00    +0.036 C 
ENDROOT
BRANCH  11   4
ATOM      4  O   UNL     1      -2.135   5.920  24.210  0.00  0.00    -0.389 OA
ATOM     32  H   UNL     1      -2.150   6.755  24.709  0.00  0.00    +0.210 HD
ENDBRANCH  11   4
BRANCH   9  14
ATOM     14  C   UNL     1      -1.978   1.695  22.323  0.00  0.00    +0.090 C 
BRANCH  14  16
ATOM      5  O   UNL     1       0.484  -0.617  23.582  0.00  0.00    -0.354 OA
ATOM      8  N   UNL     1      -0.829  -0.222  23.353  0.00  0.00    -0.083 NA
ATOM     16  C   UNL     1      -0.732   0.957  22.733  0.00  0.00    +0.087 A 
ATOM     17  C   UNL     1       0.604   1.353  22.544  0.00  0.00    +0.076 A 
ATOM     19  C   UNL     1       1.328   0.329  23.096  0.00  0.00    +0.167 A 
BRANCH  19  21
ATOM      2  F   UNL     1       6.754  -0.725  23.722  0.00  0.00    -0.205 F 
ATOM     21  C   UNL     1       2.726   0.058  23.258  0.00  0.00    +0.020 A 
ATOM     24  C   UNL     1       3.666   1.056  22.996  0.00  0.00    +0.014 A 
ATOM     25  C   UNL     1       3.149  -1.204  23.677  0.00  0.00    +0.014 A 
ATOM     28  C   UNL     1       5.026   0.792  23.153  0.00  0.00    +0.039 A 
ATOM     29  C   UNL     1       4.509  -1.468  23.834  0.00  0.00    +0.039 A 
ATOM     31  C   UNL     1       5.448  -0.470  23.572  0.00  0.00    +0.123 A 
ENDBRANCH  19  21
ENDBRANCH  14  16
ENDBRANCH   9  14
BRANCH  10  15
ATOM     15  C   UNL     1      -2.414   2.931  26.487  0.00  0.00    +0.138 C 
BRANCH  15   7
ATOM      6  O   UNL     1      -4.856   1.683  25.638  0.00  0.00    -0.270 OA
ATOM      7  N   UNL     1      -2.573   1.581  26.037  0.00  0.00    -0.309 N 
ATOM     18  C   UNL     1      -3.801   1.055  25.642  0.00  0.00    +0.244 C 
ATOM     33  H   UNL     1      -1.755   0.983  26.098  0.00  0.00    +0.149 HD
BRANCH  18  20
ATOM      1  F   UNL     1      -3.809  -4.336  24.072  0.00  0.00    -0.205 F 
ATOM     20  C   UNL     1      -3.802  -0.371  25.226  0.00  0.00    +0.037 A 
ATOM     22  C   UNL     1      -3.223  -1.338  26.049  0.00  0.00    +0.016 A 
ATOM     23  C   UNL     1      -4.384  -0.744  24.014  0.00  0.00    +0.016 A 
ATOM     26  C   UNL     1      -3.224  -2.677  25.658  0.00  0.00    +0.039 A 
ATOM     27  C   UNL     1      -4.385  -2.083  23.625  0.00  0.00    +0.039 A 
ATOM     30  C   UNL     1      -3.805  -3.049  24.446  0.00  0.00    +0.123 A 
ENDBRANCH  18  20
ENDBRANCH  15   7
ENDBRANCH  10  15
TORSDOF 7
ENDMDL
MODEL 4
REMARK VINA RESULT:       3.1      3.071      5.823
REMARK  Name = 75366943
REMARK  7 active torsions:
REMARK  status: ('A' for Active; 'I' for Inactive)
REMARK    1  A    between atoms: O_4  and  C_11
REMARK    2  A    between atoms: N_7  and  C_15
REMARK    3  A    between atoms: C_9  and  C_14
REMARK    4  A    between atoms: C_10  and  C_15
REMARK    5  A    between atoms: C_14  and  C_16
REMARK    6  A    between atoms: C_18  and  C_20
REMARK    7  A    between atoms: C_19  and  C_21
REMARK                            x       y       z     vdW  Elec       q    Type
REMARK                         _______ _______ _______ _____ _____    ______ ____
ROOT
ATOM      3  O   UNL     1      -1.899   0.107  24.710  0.00  0.00    -0.369 OA
ATOM      9  C   UNL     1      -2.782   0.625  23.714  0.00  0.00    +0.125 C 
ATOM     10  C   UNL     1      -1.720  -1.316  24.687  0.00  0.00    +0.164 C 
ATOM     11  C   UNL     1      -3.064  -2.048  24.786  0.00  0.00    +0.145 C 
ATOM     12  C   UNL     1      -4.172   0.006  23.851  0.00  0.00    +0.034 C 
ATOM     13  C   UNL     1      -4.091  -1.517  23.790  0.00  0.00    +0.036 C 
ENDROOT
BRANCH  11   4
ATOM      4  O   UNL     1      -3.595  -1.863  26.101  0.00  0.00    -0.389 OA
ATOM     32  H   UNL     1      -3.182  -2.526  26.680  0.00  0.00    +0.210 HD
ENDBRANCH  11   4
BRANCH   9  14
ATOM     14  C   UNL     1      -2.843   2.137  23.895  0.00  0.00    +0.090 C 
BRANCH  14  16
ATOM      5  O   UNL     1      -0.472   3.998  25.872  0.00  0.00    -0.354 OA
ATOM      8  N   UNL     1      -1.402   3.892  24.845  0.00  0.00    -0.083 NA
ATOM     16  C   UNL     1      -1.814   2.622  24.882  0.00  0.00    +0.087 A 
ATOM     17  C   UNL     1      -1.187   1.885  25.901  0.00  0.00    +0.076 A 
ATOM     19  C   UNL     1      -0.353   2.797  26.494  0.00  0.00    +0.167 A 
BRANCH  19  21
ATOM      2  F   UNL     1       3.250   2.623  30.729  0.00  0.00    -0.205 F 
ATOM     21  C   UNL     1       0.576   2.751  27.586  0.00  0.00    +0.020 A 
ATOM     24  C   UNL     1       0.130   2.427  28.868  0.00  0.00    +0.014 A 
ATOM     25  C   UNL     1       1.924   3.031  27.367  0.00  0.00    +0.014 A 
ATOM     28  C   UNL     1       1.033   2.384  29.929  0.00  0.00    +0.039 A 
ATOM     29  C   UNL     1       2.828   2.988  28.428  0.00  0.00    +0.039 A 
ATOM     31  C   UNL     1       2.382   2.664  29.710  0.00  0.00    +0.123 A 
ENDBRANCH  19  21
ENDBRANCH  14  16
ENDBRANCH   9  14
BRANCH  10  15
ATOM     15  C   UNL     1      -0.893  -1.746  23.478  0.00  0.00    +0.138 C 
BRANCH  15   7
ATOM      6  O   UNL     1       0.736  -0.315  21.596  0.00  0.00    -0.270 OA
ATOM      7  N   UNL     1       0.482  -1.383  23.641  0.00  0.00    -0.309 N 
ATOM     18  C   UNL     1       1.200  -0.685  22.672  0.00  0.00    +0.244 C 
ATOM     33  H   UNL     1       0.950  -1.734  24.470  0.00  0.00    +0.149 HD
BRANCH  18  20
ATOM      1  F   UNL     1       6.590   0.365  23.842  0.00  0.00    -0.205 F 
ATOM     20  C   UNL     1       2.625  -0.407  22.982  0.00  0.00    +0.037 A 
ATOM     22  C   UNL     1       3.402  -1.375  23.620  0.00  0.00    +0.016 A 
ATOM     23  C   UNL     1       3.189   0.821  22.634  0.00  0.00    +0.016 A 
ATOM     26  C   UNL     1       4.741  -1.113  23.912  0.00  0.00    +0.039 A 
ATOM     27  C   UNL     1       4.528   1.081  22.926  0.00  0.00    +0.039 A 
ATOM     30  C   UNL     1       5.304   0.114  23.565  0.00  0.00    +0.123 A 
ENDBRANCH  18  20
ENDBRANCH  15   7
ENDBRANCH  10  15
TORSDOF 7
ENDMDL
MODEL 5
REMARK VINA RESULT:       3.7      2.535      4.355
REMARK  Name = 75366943
REMARK  7 active torsions:
REMARK  status: ('A' for Active; 'I' for Inactive)
REMARK    1  A    between atoms: O_4  and  C_11
REMARK    2  A    between atoms: N_7  and  C_15
REMARK    3  A    between atoms: C_9  and  C_14
REMARK    4  A    between atoms: C_10  and  C_15
REMARK    5  A    between atoms: C_14  and  C_16
REMARK    6  A    between atoms: C_18  and  C_20
REMARK    7  A    between atoms: C_19  and  C_21
REMARK                            x       y       z     vdW  Elec       q    Type
REMARK                         _______ _______ _______ _____ _____    ______ ____
ROOT
ATOM      3  O   UNL     1      -3.747   2.074  25.416  0.00  0.00    -0.369 OA
ATOM      9  C   UNL     1      -4.154   2.868  24.299  0.00  0.00    +0.125 C 
ATOM     10  C   UNL     1      -4.503   0.873  25.620  0.00  0.00    +0.164 C 
ATOM     11  C   UNL     1      -6.002   1.172  25.744  0.00  0.00    +0.145 C 
ATOM     12  C   UNL     1      -5.616   3.288  24.441  0.00  0.00    +0.034 C 
ATOM     13  C   UNL     1      -6.513   2.065  24.617  0.00  0.00    +0.036 C 
ENDROOT
BRANCH  11   4
ATOM      4  O   UNL     1      -6.236   1.852  26.980  0.00  0.00    -0.389 OA
ATOM     32  H   UNL     1      -7.171   1.721  27.215  0.00  0.00    +0.210 HD
ENDBRANCH  11   4
BRANCH   9  14
ATOM     14  C   UNL     1      -3.243   4.087  24.246  0.00  0.00    +0.090 C 
BRANCH  14  16
ATOM      5  O   UNL     1       0.147   3.873  25.452  0.00  0.00    -0.354 OA
ATOM      8  N   UNL     1      -0.795   4.198  24.484  0.00  0.00    -0.083 NA
ATOM     16  C   UNL     1      -1.973   3.869  25.024  0.00  0.00    +0.087 A 
ATOM     17  C   UNL     1      -1.838   3.338  26.318  0.00  0.00    +0.076 A 
ATOM     19  C   UNL     1      -0.486   3.361  26.540  0.00  0.00    +0.167 A 
BRANCH  19  21
ATOM      2  F   UNL     1       2.806   1.873  30.770  0.00  0.00    -0.205 F 
ATOM     21  C   UNL     1       0.363   2.979  27.631  0.00  0.00    +0.020 A 
ATOM     24  C   UNL     1       1.742   2.885  27.442  0.00  0.00    +0.014 A 
ATOM     25  C   UNL     1      -0.190   2.698  28.880  0.00  0.00    +0.014 A 
ATOM     28  C   UNL     1       2.567   2.512  28.502  0.00  0.00    +0.039 A 
ATOM     29  C   UNL     1       0.635   2.325  29.941  0.00  0.00    +0.039 A 
ATOM     31  C   UNL     1       2.014   2.232  29.752  0.00  0.00    +0.123 A 
ENDBRANCH  19  21
ENDBRANCH  14  16
ENDBRANCH   9  14
BRANCH  10  15
ATOM     15  C   UNL     1      -4.188  -0.164  24.543  0.00  0.00    +0.138 C 
BRANCH  15   7
ATOM      6  O   UNL     1      -1.721  -0.938  25.793  0.00  0.00    -0.270 OA
ATOM      7  N   UNL     1      -2.869   0.024  24.020  0.00  0.00    -0.309 N 
ATOM     18  C   UNL     1      -1.722  -0.384  24.697  0.00  0.00    +0.244 C 
ATOM     33  H   UNL     1      -2.793   0.554  23.158  0.00  0.00    +0.149 HD
BRANCH  18  20
ATOM      1  F   UNL     1       3.174   0.720  22.178  0.00  0.00    -0.205 F 
ATOM     20  C   UNL     1      -0.426  -0.092  24.031  0.00  0.00    +0.037 A 
ATOM     22  C   UNL     1       0.045  -0.934  23.023  0.00  0.00    +0.016 A 
ATOM     23  C   UNL     1       0.319   1.025  24.412  0.00  0.00    +0.016 A 
ATOM     26  C   UNL     1       1.262  -0.661  22.398  0.00  0.00    +0.039 A 
ATOM     27  C   UNL     1       1.535   1.298  23.785  0.00  0.00    +0.039 A 
ATOM     30  C   UNL     1       2.007   0.455  22.779  0.00  0.00    +0.123 A 
ENDBRANCH  18  20
ENDBRANCH  15   7
ENDBRANCH  10  15
TORSDOF 7
ENDMDL
MODEL 6
REMARK VINA RESULT:       4.1      2.911      6.406
REMARK  Name = 75366943
REMARK  7 active torsions:
REMARK  status: ('A' for Active; 'I' for Inactive)
REMARK    1  A    between atoms: O_4  and  C_11
REMARK    2  A    between atoms: N_7  and  C_15
REMARK    3  A    between atoms: C_9  and  C_14
REMARK    4  A    between atoms: C_10  and  C_15
REMARK    5  A    between atoms: C_14  and  C_16
REMARK    6  A    between atoms: C_18  and  C_20
REMARK    7  A    between atoms: C_19  and  C_21
REMARK                            x       y       z     vdW  Elec       q    Type
REMARK                         _______ _______ _______ _____ _____    ______ ____
ROOT
ATOM      3  O   UNL     1      -2.800  -0.947  24.817  0.00  0.00    -0.369 OA
ATOM      9  C   UNL     1      -3.903  -1.214  23.948  0.00  0.00    +0.125 C 
ATOM     10  C   UNL     1      -1.640  -1.761  24.598  0.00  0.00    +0.164 C 
ATOM     11  C   UNL     1      -1.983  -3.254  24.675  0.00  0.00    +0.145 C 
ATOM     12  C   UNL     1      -4.355  -2.668  24.080  0.00  0.00    +0.034 C 
ATOM     13  C   UNL     1      -3.190  -3.619  23.816  0.00  0.00    +0.036 C 
ENDROOT
BRANCH  11   4
ATOM      4  O   UNL     1      -2.295  -3.586  26.031  0.00  0.00    -0.389 OA
ATOM     32  H   UNL     1      -2.701  -4.470  26.031  0.00  0.00    +0.210 HD
ENDBRANCH  11   4
BRANCH   9  14
ATOM     14  C   UNL     1      -5.029  -0.261  24.328  0.00  0.00    +0.090 C 
BRANCH  14  16
ATOM      5  O   UNL     1      -4.579   3.235  25.080  0.00  0.00    -0.354 OA
ATOM      8  N   UNL     1      -5.363   2.094  24.961  0.00  0.00    -0.083 NA
ATOM     16  C   UNL     1      -4.521   1.137  24.563  0.00  0.00    +0.087 A 
ATOM     17  C   UNL     1      -3.205   1.609  24.416  0.00  0.00    +0.076 A 
ATOM     19  C   UNL     1      -3.296   2.934  24.753  0.00  0.00    +0.167 A 
BRANCH  19  21
ATOM      2  F   UNL     1       0.325   7.147  25.055  0.00  0.00    -0.205 F 
ATOM     21  C   UNL     1      -2.362   4.020  24.832  0.00  0.00    +0.020 A 
ATOM     24  C   UNL     1      -2.813   5.306  25.129  0.00  0.00    +0.014 A 
ATOM     25  C   UNL     1      -1.005   3.791  24.611  0.00  0.00    +0.014 A 
ATOM     28  C   UNL     1      -1.905   6.362  25.205  0.00  0.00    +0.039 A 
ATOM     29  C   UNL     1      -0.097   4.846  24.686  0.00  0.00    +0.039 A 
ATOM     31  C   UNL     1      -0.547   6.133  24.983  0.00  0.00    +0.123 A 
ENDBRANCH  19  21
ENDBRANCH  14  16
ENDBRANCH   9  14
BRANCH  10  15
ATOM     15  C   UNL     1      -0.936  -1.376  23.299  0.00  0.00    +0.138 C 
BRANCH  15   7
ATOM      6  O   UNL     1       0.946  -0.362  21.383  0.00  0.00    -0.270 OA
ATOM      7  N   UNL     1       0.446  -1.085  23.530  0.00  0.00    -0.309 N 
ATOM     18  C   UNL     1       1.292  -0.593  22.539  0.00  0.00    +0.244 C 
ATOM     33  H   UNL     1       0.817  -1.335  24.441  0.00  0.00    +0.149 HD
BRANCH  18  20
ATOM      1  F   UNL     1       6.638   0.260  24.026  0.00  0.00    -0.205 F 
ATOM     20  C   UNL     1       2.706  -0.367  22.932  0.00  0.00    +0.037 A 
ATOM     22  C   UNL     1       3.420  -1.376  23.581  0.00  0.00    +0.016 A 
ATOM     23  C   UNL     1       3.322   0.854  22.654  0.00  0.00    +0.016 A 
ATOM     26  C   UNL     1       4.748  -1.164  23.951  0.00  0.00    +0.039 A 
ATOM     27  C   UNL     1       4.650   1.065  23.023  0.00  0.00    +0.039 A 
ATOM     30  C   UNL     1       5.362   0.057  23.673  0.00  0.00    +0.123 A 
ENDBRANCH  18  20
ENDBRANCH  15   7
ENDBRANCH  10  15
TORSDOF 7
ENDMDL
MODEL 7
REMARK VINA RESULT:       4.5      3.152      5.472
REMARK  Name = 75366943
REMARK  7 active torsions:
REMARK  status: ('A' for Active; 'I' for Inactive)
REMARK    1  A    between atoms: O_4  and  C_11
REMARK    2  A    between atoms: N_7  and  C_15
REMARK    3  A    between atoms: C_9  and  C_14
REMARK    4  A    between atoms: C_10  and  C_15
REMARK    5  A    between atoms: C_14  and  C_16
REMARK    6  A    between atoms: C_18  and  C_20
REMARK    7  A    between atoms: C_19  and  C_21
REMARK                            x       y       z     vdW  Elec       q    Type
REMARK                         _______ _______ _______ _____ _____    ______ ____
ROOT
ATOM      3  O   UNL     1      -1.433  -1.608  23.956  0.00  0.00    -0.369 OA
ATOM      9  C   UNL     1      -1.575  -0.186  23.990  0.00  0.00    +0.125 C 
ATOM     10  C   UNL     1      -1.870  -2.294  25.137  0.00  0.00    +0.164 C 
ATOM     11  C   UNL     1      -1.164  -1.755  26.388  0.00  0.00    +0.145 C 
ATOM     12  C   UNL     1      -0.787   0.406  25.158  0.00  0.00    +0.034 C 
ATOM     13  C   UNL     1      -1.218  -0.232  26.476  0.00  0.00    +0.036 C 
ENDROOT
BRANCH  11   4
ATOM      4  O   UNL     1       0.212  -2.141  26.343  0.00  0.00    -0.389 OA
ATOM     32  H   UNL     1       0.597  -1.760  25.535  0.00  0.00    +0.210 HD
ENDBRANCH  11   4
BRANCH   9  14
ATOM     14  C   UNL     1      -1.065   0.359  22.662  0.00  0.00    +0.090 C 
BRANCH  14  16
ATOM      5  O   UNL     1       2.271  -0.365  21.505  0.00  0.00    -0.354 OA
ATOM      8  N   UNL     1       0.901  -0.246  21.310  0.00  0.00    -0.083 NA
ATOM     16  C   UNL     1       0.413   0.129  22.496  0.00  0.00    +0.087 A 
ATOM     17  C   UNL     1       1.419   0.264  23.469  0.00  0.00    +0.076 A 
ATOM     19  C   UNL     1       2.568  -0.058  22.795  0.00  0.00    +0.167 A 
BRANCH  19  21
ATOM      2  F   UNL     1       7.952  -0.356  24.164  0.00  0.00    -0.205 F 
ATOM     21  C   UNL     1       3.955  -0.135  23.149  0.00  0.00    +0.020 A 
ATOM     24  C   UNL     1       4.769   0.992  23.028  0.00  0.00    +0.014 A 
ATOM     25  C   UNL     1       4.493  -1.335  23.613  0.00  0.00    +0.014 A 
ATOM     28  C   UNL     1       6.118   0.918  23.372  0.00  0.00    +0.039 A 
ATOM     29  C   UNL     1       5.842  -1.410  23.956  0.00  0.00    +0.039 A 
ATOM     31  C   UNL     1       6.655  -0.283  23.835  0.00  0.00    +0.123 A 
ENDBRANCH  19  21
ENDBRANCH  14  16
ENDBRANCH   9  14
BRANCH  10  15
ATOM     15  C   UNL     1      -3.392  -2.272  25.254  0.00  0.00    +0.138 C 
BRANCH  15   7
ATOM      6  O   UNL     1      -4.488  -0.530  23.252  0.00  0.00    -0.270 OA
ATOM      7  N   UNL     1      -3.873  -0.938  25.452  0.00  0.00    -0.309 N 
ATOM     18  C   UNL     1      -4.391  -0.160  24.419  0.00  0.00    +0.244 C 
ATOM     33  H   UNL     1      -3.741  -0.540  26.376  0.00  0.00    +0.149 HD
BRANCH  18  20
ATOM      1  F   UNL     1      -6.025   5.033  25.795  0.00  0.00    -0.205 F 
ATOM     20  C   UNL     1      -4.823   1.214  24.784  0.00  0.00    +0.037 A 
ATOM     22  C   UNL     1      -4.186   2.319  24.218  0.00  0.00    +0.016 A 
ATOM     23  C   UNL     1      -5.867   1.400  25.691  0.00  0.00    +0.016 A 
ATOM     26  C   UNL     1      -4.591   3.609  24.560  0.00  0.00    +0.039 A 
ATOM     27  C   UNL     1      -6.272   2.690  26.032  0.00  0.00    +0.039 A 
ATOM     30  C   UNL     1      -5.634   3.794  25.467  0.00  0.00    +0.123 A 
ENDBRANCH  18  20
ENDBRANCH  15   7
ENDBRANCH  10  15
TORSDOF 7
ENDMDL
