MODEL 1
REMARK VINA RESULT:       3.9      0.000      0.000
REMARK  Name = 11912970
REMARK  5 active torsions:
REMARK  status: ('A' for Active; 'I' for Inactive)
REMARK    1  A    between atoms: N_5  and  C_11
REMARK    2  A    between atoms: N_6  and  C_12
REMARK    3  A    between atoms: C_15  and  C_17
REMARK    4  A    between atoms: C_20  and  C_26
REMARK    5  A    between atoms: C_25  and  C_27
REMARK                            x       y       z     vdW  Elec       q    Type
REMARK                         _______ _______ _______ _____ _____    ______ ____
ROOT
ATOM      1  O   UNL     1      -2.261  -1.226  26.103  0.00  0.00    -0.370 OA
ATOM      2  O   UNL     1      -3.523  -1.128  23.251  0.00  0.00    -0.370 OA
ATOM      9  C   UNL     1      -2.259  -0.698  23.783  0.00  0.00    +0.171 C 
ATOM     10  C   UNL     1      -2.517  -0.157  25.176  0.00  0.00    +0.171 C 
ATOM     11  C   UNL     1      -1.354  -1.887  24.013  0.00  0.00    +0.130 C 
ATOM     12  C   UNL     1      -3.986   0.192  25.171  0.00  0.00    +0.130 C 
ATOM     13  C   UNL     1      -1.798  -2.376  25.379  0.00  0.00    +0.185 C 
ATOM     14  C   UNL     1      -4.563  -0.811  24.188  0.00  0.00    +0.185 C 
ENDROOT
BRANCH  12   6
ATOM      6  N   UNL     1      -4.174   1.539  24.679  0.00  0.00    -0.306 N 
ATOM      7  N   UNL     1      -2.200   2.302  25.694  0.00  0.00    -0.211 NA
ATOM      8  N   UNL     1      -3.590   3.796  24.412  0.00  0.00    -0.223 NA
ATOM     16  C   UNL     1      -3.295   2.576  24.936  0.00  0.00    +0.216 A 
ATOM     20  C   UNL     1      -1.365   3.336  25.924  0.00  0.00    +0.111 A 
ATOM     21  C   UNL     1      -2.712   4.784  24.681  0.00  0.00    +0.116 A 
ATOM     22  C   UNL     1      -1.571   4.611  25.438  0.00  0.00    +0.051 A 
ATOM     32  H   UNL     1      -4.958   1.743  24.071  0.00  0.00    +0.149 HD
BRANCH  20  26
ATOM      4  O   UNL     1      -0.490   2.618  27.998  0.00  0.00    -0.461 OA
ATOM     26  C   UNL     1      -0.216   3.015  26.729  0.00  0.00    +0.153 A 
ATOM     28  C   UNL     1       1.139   3.019  26.501  0.00  0.00    +0.051 A 
ATOM     29  C   UNL     1       1.739   2.596  27.711  0.00  0.00    +0.042 A 
ATOM     30  C   UNL     1       0.706   2.365  28.590  0.00  0.00    +0.196 A 
ENDBRANCH  20  26
ENDBRANCH  12   6
BRANCH  11   5
ATOM      3  O   UNL     1      -0.016  -0.266  22.055  0.00  0.00    -0.270 OA
ATOM      5  N   UNL     1       0.034  -1.492  24.024  0.00  0.00    -0.304 N 
ATOM     15  C   UNL     1       0.593  -0.703  23.029  0.00  0.00    +0.244 C 
ATOM     31  H   UNL     1       0.623  -1.909  24.736  0.00  0.00    +0.149 HD
BRANCH  15  17
ATOM     17  C   UNL     1       2.041  -0.405  23.172  0.00  0.00    +0.037 A 
ATOM     18  C   UNL     1       2.882  -1.394  23.640  0.00  0.00    +0.013 A 
ATOM     19  C   UNL     1       2.500   0.851  22.831  0.00  0.00    +0.013 A 
ATOM     23  C   UNL     1       4.242  -1.114  23.774  0.00  0.00    +0.004 A 
ATOM     24  C   UNL     1       3.860   1.130  22.964  0.00  0.00    +0.004 A 
ATOM     25  C   UNL     1       4.731   0.148  23.435  0.00  0.00    -0.050 A 
ATOM     27  C   UNL     1       6.185   0.447  23.579  0.00  0.00    +0.044 C 
ENDBRANCH  15  17
ENDBRANCH  11   5
TORSDOF 4
ENDMDL
MODEL 2
REMARK VINA RESULT:       6.4     14.658     18.507
REMARK  Name = 11912970
REMARK  5 active torsions:
REMARK  status: ('A' for Active; 'I' for Inactive)
REMARK    1  A    between atoms: N_5  and  C_11
REMARK    2  A    between atoms: N_6  and  C_12
REMARK    3  A    between atoms: C_15  and  C_17
REMARK    4  A    between atoms: C_20  and  C_26
REMARK    5  A    between atoms: C_25  and  C_27
REMARK                            x       y       z     vdW  Elec       q    Type
REMARK                         _______ _______ _______ _____ _____    ______ ____
ROOT
ATOM      1  O   UNL     1      12.500  -4.552  32.276  0.00  0.00    -0.370 OA
ATOM      2  O   UNL     1      14.164  -6.085  30.128  0.00  0.00    -0.370 OA
ATOM      9  C   UNL     1      13.091  -6.472  31.003  0.00  0.00    +0.171 C 
ATOM     10  C   UNL     1      13.298  -5.746  32.318  0.00  0.00    +0.171 C 
ATOM     11  C   UNL     1      11.775  -5.933  30.489  0.00  0.00    +0.130 C 
ATOM     12  C   UNL     1      14.767  -5.397  32.320  0.00  0.00    +0.130 C 
ATOM     13  C   UNL     1      11.762  -4.521  31.046  0.00  0.00    +0.185 C 
ATOM     14  C   UNL     1      15.072  -5.234  30.842  0.00  0.00    +0.185 C 
ENDROOT
BRANCH  12   6
ATOM      6  N   UNL     1      15.536  -6.491  32.873  0.00  0.00    -0.306 N 
ATOM      7  N   UNL     1      15.985  -7.391  30.753  0.00  0.00    -0.211 NA
ATOM      8  N   UNL     1      16.831  -8.443  32.749  0.00  0.00    -0.223 NA
ATOM     16  C   UNL     1      16.135  -7.470  32.102  0.00  0.00    +0.216 A 
ATOM     20  C   UNL     1      16.583  -8.362  30.033  0.00  0.00    +0.111 A 
ATOM     21  C   UNL     1      17.403  -9.381  31.968  0.00  0.00    +0.116 A 
ATOM     22  C   UNL     1      17.312  -9.392  30.591  0.00  0.00    +0.051 A 
ATOM     32  H   UNL     1      15.697  -6.530  33.873  0.00  0.00    +0.149 HD
BRANCH  20  26
ATOM      4  O   UNL     1      15.252  -8.777  28.126  0.00  0.00    -0.461 OA
ATOM     26  C   UNL     1      16.407  -8.252  28.609  0.00  0.00    +0.153 A 
ATOM     28  C   UNL     1      17.163  -7.720  27.593  0.00  0.00    +0.051 A 
ATOM     29  C   UNL     1      16.425  -7.932  26.404  0.00  0.00    +0.042 A 
ATOM     30  C   UNL     1      15.271  -8.579  26.782  0.00  0.00    +0.196 A 
ENDBRANCH  20  26
ENDBRANCH  12   6
BRANCH  11   5
ATOM      3  O   UNL     1      11.130  -8.650  29.818  0.00  0.00    -0.270 OA
ATOM      5  N   UNL     1      10.664  -6.704  30.992  0.00  0.00    -0.304 N 
ATOM     15  C   UNL     1      10.433  -8.017  30.608  0.00  0.00    +0.244 C 
ATOM     31  H   UNL     1       9.982  -6.211  31.558  0.00  0.00    +0.149 HD
BRANCH  15  17
ATOM     17  C   UNL     1       9.232  -8.665  31.195  0.00  0.00    +0.037 A 
ATOM     18  C   UNL     1       8.044  -7.963  31.227  0.00  0.00    +0.013 A 
ATOM     19  C   UNL     1       9.341  -9.949  31.689  0.00  0.00    +0.013 A 
ATOM     23  C   UNL     1       6.917  -8.572  31.778  0.00  0.00    +0.004 A 
ATOM     24  C   UNL     1       8.213 -10.557  32.239  0.00  0.00    +0.004 A 
ATOM     25  C   UNL     1       7.001  -9.869  32.284  0.00  0.00    -0.050 A 
ATOM     27  C   UNL     1       5.795 -10.519  32.873  0.00  0.00    +0.044 C 
ENDBRANCH  15  17
ENDBRANCH  11   5
TORSDOF 4
ENDMDL
MODEL 3
REMARK VINA RESULT:       6.6      0.605      1.137
REMARK  Name = 11912970
REMARK  5 active torsions:
REMARK  status: ('A' for Active; 'I' for Inactive)
REMARK    1  A    between atoms: N_5  and  C_11
REMARK    2  A    between atoms: N_6  and  C_12
REMARK    3  A    between atoms: C_15  and  C_17
REMARK    4  A    between atoms: C_20  and  C_26
REMARK    5  A    between atoms: C_25  and  C_27
REMARK                            x       y       z     vdW  Elec       q    Type
REMARK                         _______ _______ _______ _____ _____    ______ ____
ROOT
ATOM      1  O   UNL     1      -2.565  -1.225  25.951  0.00  0.00    -0.370 OA
ATOM      2  O   UNL     1      -3.724  -0.918  23.071  0.00  0.00    -0.370 OA
ATOM      9  C   UNL     1      -2.501  -0.488  23.690  0.00  0.00    +0.171 C 
ATOM     10  C   UNL     1      -2.833  -0.088  25.115  0.00  0.00    +0.171 C 
ATOM     11  C   UNL     1      -1.555  -1.657  23.849  0.00  0.00    +0.130 C 
ATOM     12  C   UNL     1      -4.314   0.203  25.081  0.00  0.00    +0.130 C 
ATOM     13  C   UNL     1      -2.028  -2.286  25.147  0.00  0.00    +0.185 C 
ATOM     14  C   UNL     1      -4.811  -0.728  23.990  0.00  0.00    +0.185 C 
ENDROOT
BRANCH  12   6
ATOM      6  N   UNL     1      -4.540   1.581  24.706  0.00  0.00    -0.306 N 
ATOM      7  N   UNL     1      -2.513   2.288  25.653  0.00  0.00    -0.211 NA
ATOM      8  N   UNL     1      -3.989   3.858  24.574  0.00  0.00    -0.223 NA
ATOM     16  C   UNL     1      -3.655   2.605  24.986  0.00  0.00    +0.216 A 
ATOM     20  C   UNL     1      -1.672   3.311  25.908  0.00  0.00    +0.111 A 
ATOM     21  C   UNL     1      -3.103   4.833  24.863  0.00  0.00    +0.116 A 
ATOM     22  C   UNL     1      -1.917   4.616  25.534  0.00  0.00    +0.051 A 
ATOM     32  H   UNL     1      -5.363   1.821  24.164  0.00  0.00    +0.149 HD
BRANCH  20  26
ATOM      4  O   UNL     1       0.554   3.824  26.509  0.00  0.00    -0.461 OA
ATOM     26  C   UNL     1      -0.473   2.943  26.615  0.00  0.00    +0.153 A 
ATOM     28  C   UNL     1      -0.119   1.872  27.397  0.00  0.00    +0.051 A 
ATOM     29  C   UNL     1       1.217   2.108  27.800  0.00  0.00    +0.042 A 
ATOM     30  C   UNL     1       1.581   3.307  27.233  0.00  0.00    +0.196 A 
ENDBRANCH  20  26
ENDBRANCH  12   6
BRANCH  11   5
ATOM      3  O   UNL     1       0.130  -0.779  21.694  0.00  0.00    -0.270 OA
ATOM      5  N   UNL     1      -0.186  -1.210  23.952  0.00  0.00    -0.304 N 
ATOM     15  C   UNL     1       0.550  -0.804  22.849  0.00  0.00    +0.244 C 
ATOM     31  H   UNL     1       0.262  -1.312  24.855  0.00  0.00    +0.149 HD
BRANCH  15  17
ATOM     17  C   UNL     1       1.954  -0.397  23.118  0.00  0.00    +0.037 A 
ATOM     18  C   UNL     1       2.307   0.927  22.955  0.00  0.00    +0.013 A 
ATOM     19  C   UNL     1       2.860  -1.356  23.522  0.00  0.00    +0.013 A 
ATOM     23  C   UNL     1       3.624   1.309  23.208  0.00  0.00    +0.004 A 
ATOM     24  C   UNL     1       4.177  -0.973  23.776  0.00  0.00    +0.004 A 
ATOM     25  C   UNL     1       4.559   0.359  23.619  0.00  0.00    -0.050 A 
ATOM     27  C   UNL     1       5.968   0.767  23.889  0.00  0.00    +0.044 C 
ENDBRANCH  15  17
ENDBRANCH  11   5
TORSDOF 4
ENDMDL
MODEL 4
REMARK VINA RESULT:       7.1      2.016      5.399
REMARK  Name = 11912970
REMARK  5 active torsions:
REMARK  status: ('A' for Active; 'I' for Inactive)
REMARK    1  A    between atoms: N_5  and  C_11
REMARK    2  A    between atoms: N_6  and  C_12
REMARK    3  A    between atoms: C_15  and  C_17
REMARK    4  A    between atoms: C_20  and  C_26
REMARK    5  A    between atoms: C_25  and  C_27
REMARK                            x       y       z     vdW  Elec       q    Type
REMARK                         _______ _______ _______ _____ _____    ______ ____
ROOT
ATOM      1  O   UNL     1      -3.323   3.348  23.940  0.00  0.00    -0.370 OA
ATOM      2  O   UNL     1      -5.597   2.558  25.925  0.00  0.00    -0.370 OA
ATOM      9  C   UNL     1      -4.163   2.502  25.999  0.00  0.00    +0.171 C 
ATOM     10  C   UNL     1      -3.655   2.126  24.621  0.00  0.00    +0.171 C 
ATOM     11  C   UNL     1      -3.596   3.884  26.235  0.00  0.00    +0.130 C 
ATOM     12  C   UNL     1      -4.838   1.461  23.959  0.00  0.00    +0.130 C 
ATOM     13  C   UNL     1      -3.532   4.454  24.830  0.00  0.00    +0.185 C 
ATOM     14  C   UNL     1      -6.018   2.156  24.613  0.00  0.00    +0.185 C 
ENDROOT
BRANCH  12   6
ATOM      6  N   UNL     1      -4.852   0.049  24.272  0.00  0.00    -0.306 N 
ATOM      7  N   UNL     1      -2.528  -0.146  24.005  0.00  0.00    -0.211 NA
ATOM      8  N   UNL     1      -3.870  -2.055  24.607  0.00  0.00    -0.223 NA
ATOM     16  C   UNL     1      -3.717  -0.740  24.295  0.00  0.00    +0.216 A 
ATOM     20  C   UNL     1      -1.443  -0.945  24.037  0.00  0.00    +0.111 A 
ATOM     21  C   UNL     1      -2.743  -2.796  24.622  0.00  0.00    +0.116 A 
ATOM     22  C   UNL     1      -1.489  -2.290  24.342  0.00  0.00    +0.051 A 
ATOM     32  H   UNL     1      -5.723  -0.393  24.541  0.00  0.00    +0.149 HD
BRANCH  20  26
ATOM      4  O   UNL     1       0.651  -1.001  22.944  0.00  0.00    -0.461 OA
ATOM     26  C   UNL     1      -0.201  -0.288  23.725  0.00  0.00    +0.153 A 
ATOM     28  C   UNL     1       0.338   0.933  24.047  0.00  0.00    +0.051 A 
ATOM     29  C   UNL     1       1.607   0.977  23.421  0.00  0.00    +0.042 A 
ATOM     30  C   UNL     1       1.750  -0.223  22.764  0.00  0.00    +0.196 A 
ENDBRANCH  20  26
ENDBRANCH  12   6
BRANCH  11   5
ATOM      3  O   UNL     1      -1.770   1.670  26.108  0.00  0.00    -0.270 OA
ATOM      5  N   UNL     1      -2.283   3.814  26.832  0.00  0.00    -0.304 N 
ATOM     15  C   UNL     1      -1.470   2.696  26.716  0.00  0.00    +0.244 C 
ATOM     31  H   UNL     1      -2.017   4.577  27.443  0.00  0.00    +0.149 HD
BRANCH  15  17
ATOM     17  C   UNL     1      -0.158   2.770  27.409  0.00  0.00    +0.037 A 
ATOM     18  C   UNL     1      -0.113   2.564  28.773  0.00  0.00    +0.013 A 
ATOM     19  C   UNL     1       0.973   3.043  26.668  0.00  0.00    +0.013 A 
ATOM     23  C   UNL     1       1.119   2.634  29.424  0.00  0.00    +0.004 A 
ATOM     24  C   UNL     1       2.204   3.112  27.319  0.00  0.00    +0.004 A 
ATOM     25  C   UNL     1       2.277   2.907  28.697  0.00  0.00    -0.050 A 
ATOM     27  C   UNL     1       3.594   2.982  29.393  0.00  0.00    +0.044 C 
ENDBRANCH  15  17
ENDBRANCH  11   5
TORSDOF 4
ENDMDL
