MODEL 1
REMARK VINA RESULT:      12.6      0.000      0.000
REMARK  Name = 7155596
REMARK  5 active torsions:
REMARK  status: ('A' for Active; 'I' for Inactive)
REMARK    1  A    between atoms: O_5  and  C_29
REMARK    2  A    between atoms: O_5  and  C_35
REMARK    3  A    between atoms: N_8  and  C_22
REMARK    4  A    between atoms: N_9  and  C_20
REMARK    5  A    between atoms: C_23  and  C_26
REMARK                            x       y       z     vdW  Elec       q    Type
REMARK                         _______ _______ _______ _____ _____    ______ ____
ROOT
ATOM      2  O   UNL     1       0.436   2.136  26.400  0.00  0.00    -0.266 OA
ATOM      3  O   UNL     1      -4.486   1.871  23.126  0.00  0.00    -0.252 OA
ATOM      6  N   UNL     1      -4.311   3.153  25.044  0.00  0.00    -0.284 N 
ATOM      7  N   UNL     1      -1.193   3.634  25.651  0.00  0.00    -0.310 N 
ATOM      8  N   UNL     1      -4.689   0.829  25.189  0.00  0.00    -0.269 N 
ATOM     10  C   UNL     1      -3.252   4.251  27.038  0.00  0.00    +0.027 C 
ATOM     11  C   UNL     1      -2.951   5.230  24.807  0.00  0.00    +0.054 C 
ATOM     12  C   UNL     1      -3.209   5.566  26.273  0.00  0.00    +0.018 C 
ATOM     13  C   UNL     1      -4.369   3.333  26.504  0.00  0.00    +0.114 C 
ATOM     14  C   UNL     1      -1.874   3.584  26.951  0.00  0.00    +0.130 C 
ATOM     15  C   UNL     1      -4.118   4.385  24.269  0.00  0.00    +0.119 C 
ATOM     16  C   UNL     1      -1.644   4.478  24.632  0.00  0.00    +0.027 A 
ATOM     17  C   UNL     1      -0.941   4.599  23.494  0.00  0.00    +0.024 A 
ATOM     18  C   UNL     1      -0.011   2.878  25.524  0.00  0.00    +0.273 A 
ATOM     19  C   UNL     1      -4.489   1.931  24.358  0.00  0.00    +0.306 C 
ATOM     20  C   UNL     1       0.730   3.020  24.230  0.00  0.00    +0.099 A 
ATOM     21  C   UNL     1       0.269   3.853  23.292  0.00  0.00    +0.030 A 
ATOM     36  H   UNL     1      -5.110   0.982  26.098  0.00  0.00    +0.156 HD
ENDROOT
BRANCH   8  22
ATOM     22  C   UNL     1      -4.412  -0.530  24.894  0.00  0.00    +0.035 A 
ATOM     24  C   UNL     1      -4.927  -1.106  23.736  0.00  0.00    +0.027 A 
ATOM     25  C   UNL     1      -3.625  -1.279  25.765  0.00  0.00    +0.027 A 
ATOM     27  C   UNL     1      -4.653  -2.442  23.446  0.00  0.00    +0.047 A 
ATOM     28  C   UNL     1      -3.353  -2.616  25.474  0.00  0.00    +0.047 A 
ATOM     29  C   UNL     1      -3.866  -3.198  24.315  0.00  0.00    +0.120 A 
BRANCH  29   5
ATOM      5  O   UNL     1      -3.597  -4.501  24.031  0.00  0.00    -0.495 OA
ATOM     35  C   UNL     1      -2.702  -4.760  22.950  0.00  0.00    +0.277 C 
ENDBRANCH  29   5
ENDBRANCH   8  22
BRANCH  20   9
ATOM      4  O   UNL     1       0.905   0.403  23.109  0.00  0.00    -0.270 OA
ATOM      9  N   UNL     1       1.870   2.292  24.062  0.00  0.00    -0.277 N 
ATOM     23  C   UNL     1       1.890   1.019  23.507  0.00  0.00    +0.248 C 
ATOM     37  H   UNL     1       2.742   2.812  24.123  0.00  0.00    +0.155 HD
BRANCH  23  26
ATOM      1  F   UNL     1       6.929  -1.340  23.047  0.00  0.00    -0.205 F 
ATOM     26  C   UNL     1       3.231   0.390  23.383  0.00  0.00    +0.037 A 
ATOM     30  C   UNL     1       4.287   1.159  22.941  0.00  0.00    +0.016 A 
ATOM     31  C   UNL     1       3.376  -0.939  23.716  0.00  0.00    +0.016 A 
ATOM     32  C   UNL     1       5.546   0.571  22.827  0.00  0.00    +0.039 A 
ATOM     33  C   UNL     1       4.635  -1.528  23.603  0.00  0.00    +0.039 A 
ATOM     34  C   UNL     1       5.721  -0.774  23.158  0.00  0.00    +0.123 A 
ENDBRANCH  23  26
ENDBRANCH  20   9
TORSDOF 4
ENDMDL
