MODEL 1
REMARK VINA RESULT:      -1.9      0.000      0.000
REMARK  Name = 28959922
REMARK  8 active torsions:
REMARK  status: ('A' for Active; 'I' for Inactive)
REMARK    1  A    between atoms: O_3  and  C_24
REMARK    2  A    between atoms: N_6  and  C_19
REMARK    3  A    between atoms: N_7  and  C_25
REMARK    4  A    between atoms: C_8  and  C_16
REMARK    5  A    between atoms: C_9  and  C_18
REMARK    6  A    between atoms: C_10  and  C_17
REMARK    7  A    between atoms: C_16  and  C_19
REMARK    8  A    between atoms: C_18  and  C_24
REMARK                            x       y       z     vdW  Elec       q    Type
REMARK                         _______ _______ _______ _____ _____    ______ ____
ROOT
ATOM      2  O   UNL     1      -5.810  -7.403  10.330  0.00  0.00    -0.275 OA
ATOM      5  N   UNL     1      -4.481  -9.269  10.742  0.00  0.00    -0.301 N 
ATOM      8  C   UNL     1      -2.850 -10.517  12.139  0.00  0.00    +0.011 C 
ATOM      9  C   UNL     1      -1.748 -10.153  11.111  0.00  0.00    +0.006 C 
ATOM     11  C   UNL     1      -4.225 -10.530  11.448  0.00  0.00    +0.111 C 
ATOM     12  C   UNL     1      -2.081  -8.851  10.361  0.00  0.00    +0.023 C 
ATOM     15  C   UNL     1      -3.476  -8.909   9.742  0.00  0.00    +0.108 C 
ATOM     17  C   UNL     1      -5.592  -8.445  10.942  0.00  0.00    +0.219 C 
ENDROOT
BRANCH  17  10
ATOM     10  C   UNL     1      -6.581  -8.868  11.979  0.00  0.00    +0.075 C 
ATOM     13  C   UNL     1      -7.165 -10.248  11.912  0.00  0.00    +0.013 C 
ATOM     14  C   UNL     1      -8.017  -9.056  11.585  0.00  0.00    +0.013 C 
ENDBRANCH  17  10
BRANCH   8  16
ATOM     16  C   UNL     1      -2.881  -9.602  13.370  0.00  0.00    +0.020 C 
BRANCH  16  19
ATOM     19  C   UNL     1      -2.458 -10.359  14.620  0.00  0.00    +0.085 C 
BRANCH  19   6
ATOM      6  N   UNL     1      -3.640 -10.781  15.371  0.00  0.00    -0.299 NA
ATOM      7  N   UNL     1      -6.033 -10.416  16.885  0.00  0.00    -0.327 N 
ATOM     20  C   UNL     1      -4.863 -10.295  14.721  0.00  0.00    +0.103 C 
ATOM     21  C   UNL     1      -3.576 -10.285  16.751  0.00  0.00    +0.103 C 
ATOM     22  C   UNL     1      -6.110 -10.778  15.467  0.00  0.00    +0.120 C 
ATOM     23  C   UNL     1      -4.780 -10.768  17.564  0.00  0.00    +0.120 C 
BRANCH   7  25
ATOM      1  F   UNL     1     -10.655 -10.204  19.912  0.00  0.00    -0.205 F 
ATOM     25  C   UNL     1      -7.203 -10.363  17.652  0.00  0.00    +0.030 A 
ATOM     26  C   UNL     1      -8.394  -9.919  17.076  0.00  0.00    +0.026 A 
ATOM     27  C   UNL     1      -7.179 -10.753  18.990  0.00  0.00    +0.026 A 
ATOM     28  C   UNL     1      -9.560  -9.865  17.840  0.00  0.00    +0.040 A 
ATOM     29  C   UNL     1      -8.345 -10.700  19.754  0.00  0.00    +0.040 A 
ATOM     30  C   UNL     1      -9.536 -10.256  19.179  0.00  0.00    +0.124 A 
ENDBRANCH   7  25
ENDBRANCH  19   6
ENDBRANCH  16  19
ENDBRANCH   8  16
BRANCH   9  18
ATOM     18  C   UNL     1      -0.352 -10.076  11.729  0.00  0.00    +0.124 C 
BRANCH  18  24
ATOM      4  O   UNL     1      -0.105  -7.685  12.134  0.00  0.00    -0.251 OA
ATOM     24  C   UNL     1       0.251  -8.708  11.569  0.00  0.00    +0.305 C 
BRANCH  24   3
ATOM      3  O   UNL     1       1.278  -8.762  10.683  0.00  0.00    -0.481 OA
ATOM     31  H   UNL     1       1.842  -9.553  10.823  0.00  0.00    +0.295 HD
ENDBRANCH  24   3
ENDBRANCH  18  24
ENDBRANCH   9  18
TORSDOF 8
ENDMDL
MODEL 2
REMARK VINA RESULT:      -1.6      1.713      2.524
REMARK  Name = 28959922
REMARK  8 active torsions:
REMARK  status: ('A' for Active; 'I' for Inactive)
REMARK    1  A    between atoms: O_3  and  C_24
REMARK    2  A    between atoms: N_6  and  C_19
REMARK    3  A    between atoms: N_7  and  C_25
REMARK    4  A    between atoms: C_8  and  C_16
REMARK    5  A    between atoms: C_9  and  C_18
REMARK    6  A    between atoms: C_10  and  C_17
REMARK    7  A    between atoms: C_16  and  C_19
REMARK    8  A    between atoms: C_18  and  C_24
REMARK                            x       y       z     vdW  Elec       q    Type
REMARK                         _______ _______ _______ _____ _____    ______ ____
ROOT
ATOM      2  O   UNL     1      -6.370  -7.032   9.374  0.00  0.00    -0.275 OA
ATOM      5  N   UNL     1      -4.994  -8.902   9.542  0.00  0.00    -0.301 N 
ATOM      8  C   UNL     1      -4.017 -10.779  10.842  0.00  0.00    +0.011 C 
ATOM      9  C   UNL     1      -2.687  -9.986  10.915  0.00  0.00    +0.006 C 
ATOM     11  C   UNL     1      -4.808 -10.357   9.591  0.00  0.00    +0.111 C 
ATOM     12  C   UNL     1      -2.925  -8.470  10.811  0.00  0.00    +0.023 C 
ATOM     15  C   UNL     1      -3.757  -8.123   9.578  0.00  0.00    +0.108 C 
ATOM     17  C   UNL     1      -6.226  -8.250   9.439  0.00  0.00    +0.219 C 
ENDROOT
BRANCH  17  10
ATOM     10  C   UNL     1      -7.452  -9.104   9.408  0.00  0.00    +0.075 C 
ATOM     13  C   UNL     1      -8.357  -9.039   8.214  0.00  0.00    +0.013 C 
ATOM     14  C   UNL     1      -8.799  -8.451   9.522  0.00  0.00    +0.013 C 
ENDBRANCH  17  10
BRANCH   8  16
ATOM     16  C   UNL     1      -4.891 -10.647  12.095  0.00  0.00    +0.020 C 
BRANCH  16  19
ATOM     19  C   UNL     1      -6.200  -9.941  11.774  0.00  0.00    +0.085 C 
BRANCH  19   6
ATOM      6  N   UNL     1      -6.918  -9.636  13.011  0.00  0.00    -0.299 NA
ATOM      7  N   UNL     1      -7.971 -10.164  15.612  0.00  0.00    -0.327 N 
ATOM     20  C   UNL     1      -6.021  -9.744  14.167  0.00  0.00    +0.103 C 
ATOM     21  C   UNL     1      -8.061 -10.542  13.179  0.00  0.00    +0.103 C 
ATOM     22  C   UNL     1      -6.747  -9.372  15.462  0.00  0.00    +0.120 C 
ATOM     23  C   UNL     1      -8.855 -10.195  14.440  0.00  0.00    +0.120 C 
BRANCH   7  25
ATOM      1  F   UNL     1     -10.264 -10.754  20.608  0.00  0.00    -0.205 F 
ATOM     25  C   UNL     1      -8.551 -10.313  16.877  0.00  0.00    +0.030 A 
ATOM     26  C   UNL     1      -9.930 -10.173  17.032  0.00  0.00    +0.026 A 
ATOM     27  C   UNL     1      -7.751 -10.603  17.982  0.00  0.00    +0.026 A 
ATOM     28  C   UNL     1     -10.509 -10.322  18.292  0.00  0.00    +0.040 A 
ATOM     29  C   UNL     1      -8.330 -10.752  19.243  0.00  0.00    +0.040 A 
ATOM     30  C   UNL     1      -9.709 -10.612  19.398  0.00  0.00    +0.124 A 
ENDBRANCH   7  25
ENDBRANCH  19   6
ENDBRANCH  16  19
ENDBRANCH   8  16
BRANCH   9  18
ATOM     18  C   UNL     1      -1.858 -10.317  12.156  0.00  0.00    +0.124 C 
BRANCH  18  24
ATOM      4  O   UNL     1      -0.193  -8.582  11.758  0.00  0.00    -0.251 OA
ATOM     24  C   UNL     1      -0.929  -9.192  12.519  0.00  0.00    +0.305 C 
BRANCH  24   3
ATOM      3  O   UNL     1      -1.018  -8.936  13.850  0.00  0.00    -0.481 OA
ATOM     31  H   UNL     1      -0.559  -8.104  14.093  0.00  0.00    +0.295 HD
ENDBRANCH  24   3
ENDBRANCH  18  24
ENDBRANCH   9  18
TORSDOF 8
ENDMDL
MODEL 3
REMARK VINA RESULT:       0.4     14.729     17.122
REMARK  Name = 28959922
REMARK  8 active torsions:
REMARK  status: ('A' for Active; 'I' for Inactive)
REMARK    1  A    between atoms: O_3  and  C_24
REMARK    2  A    between atoms: N_6  and  C_19
REMARK    3  A    between atoms: N_7  and  C_25
REMARK    4  A    between atoms: C_8  and  C_16
REMARK    5  A    between atoms: C_9  and  C_18
REMARK    6  A    between atoms: C_10  and  C_17
REMARK    7  A    between atoms: C_16  and  C_19
REMARK    8  A    between atoms: C_18  and  C_24
REMARK                            x       y       z     vdW  Elec       q    Type
REMARK                         _______ _______ _______ _____ _____    ______ ____
ROOT
ATOM      2  O   UNL     1      -5.326   4.598  25.240  0.00  0.00    -0.275 OA
ATOM      5  N   UNL     1      -4.229   2.561  25.497  0.00  0.00    -0.301 N 
ATOM      8  C   UNL     1      -3.227   0.491  24.560  0.00  0.00    +0.011 C 
ATOM      9  C   UNL     1      -4.469  -0.291  25.061  0.00  0.00    +0.006 C 
ATOM     11  C   UNL     1      -3.012   1.743  25.429  0.00  0.00    +0.111 C 
ATOM     12  C   UNL     1      -5.706   0.617  25.164  0.00  0.00    +0.023 C 
ATOM     15  C   UNL     1      -5.413   1.863  25.996  0.00  0.00    +0.108 C 
ATOM     17  C   UNL     1      -4.309   3.915  25.156  0.00  0.00    +0.219 C 
ENDROOT
BRANCH  17  10
ATOM     10  C   UNL     1      -3.064   4.569  24.653  0.00  0.00    +0.075 C 
ATOM     13  C   UNL     1      -1.780   4.372  25.402  0.00  0.00    +0.013 C 
ATOM     14  C   UNL     1      -2.470   5.705  25.433  0.00  0.00    +0.013 C 
ENDBRANCH  17  10
BRANCH   8  16
ATOM     16  C   UNL     1      -3.292   0.878  23.076  0.00  0.00    +0.020 C 
BRANCH  16  19
ATOM     19  C   UNL     1      -2.103   1.744  22.688  0.00  0.00    +0.085 C 
BRANCH  19   6
ATOM      6  N   UNL     1      -0.866   1.147  23.193  0.00  0.00    -0.299 NA
ATOM      7  N   UNL     1       1.933   0.582  23.223  0.00  0.00    -0.327 N 
ATOM     20  C   UNL     1       0.098   2.191  23.558  0.00  0.00    +0.103 C 
ATOM     21  C   UNL     1      -0.278   0.253  22.187  0.00  0.00    +0.103 C 
ATOM     22  C   UNL     1       1.375   1.580  24.140  0.00  0.00    +0.120 C 
ATOM     23  C   UNL     1       0.985  -0.422  22.724  0.00  0.00    +0.120 C 
BRANCH   7  25
ATOM      1  F   UNL     1       7.256  -0.853  23.637  0.00  0.00    -0.205 F 
ATOM     25  C   UNL     1       3.281   0.219  23.328  0.00  0.00    +0.030 A 
ATOM     26  C   UNL     1       3.625  -1.081  23.696  0.00  0.00    +0.026 A 
ATOM     27  C   UNL     1       4.278   1.157  23.063  0.00  0.00    +0.026 A 
ATOM     28  C   UNL     1       4.968  -1.443  23.801  0.00  0.00    +0.040 A 
ATOM     29  C   UNL     1       5.622   0.794  23.168  0.00  0.00    +0.040 A 
ATOM     30  C   UNL     1       5.967  -0.506  23.536  0.00  0.00    +0.124 A 
ENDBRANCH   7  25
ENDBRANCH  19   6
ENDBRANCH  16  19
ENDBRANCH   8  16
BRANCH   9  18
ATOM     18  C   UNL     1      -4.777  -1.530  24.221  0.00  0.00    +0.124 C 
BRANCH  18  24
ATOM      4  O   UNL     1      -3.252  -3.308  23.548  0.00  0.00    -0.251 OA
ATOM     24  C   UNL     1      -3.745  -2.605  24.418  0.00  0.00    +0.305 C 
BRANCH  24   3
ATOM      3  O   UNL     1      -3.423  -2.695  25.733  0.00  0.00    -0.481 OA
ATOM     31  H   UNL     1      -3.263  -3.624  26.008  0.00  0.00    +0.295 HD
ENDBRANCH  24   3
ENDBRANCH  18  24
ENDBRANCH   9  18
TORSDOF 8
ENDMDL
MODEL 4
REMARK VINA RESULT:       0.8     14.772     17.183
REMARK  Name = 28959922
REMARK  8 active torsions:
REMARK  status: ('A' for Active; 'I' for Inactive)
REMARK    1  A    between atoms: O_3  and  C_24
REMARK    2  A    between atoms: N_6  and  C_19
REMARK    3  A    between atoms: N_7  and  C_25
REMARK    4  A    between atoms: C_8  and  C_16
REMARK    5  A    between atoms: C_9  and  C_18
REMARK    6  A    between atoms: C_10  and  C_17
REMARK    7  A    between atoms: C_16  and  C_19
REMARK    8  A    between atoms: C_18  and  C_24
REMARK                            x       y       z     vdW  Elec       q    Type
REMARK                         _______ _______ _______ _____ _____    ______ ____
ROOT
ATOM      2  O   UNL     1      -3.946  -1.184  26.438  0.00  0.00    -0.275 OA
ATOM      5  N   UNL     1      -4.703   0.604  25.156  0.00  0.00    -0.301 N 
ATOM      8  C   UNL     1      -4.290   2.652  23.813  0.00  0.00    +0.011 C 
ATOM      9  C   UNL     1      -4.803   3.494  25.009  0.00  0.00    +0.006 C 
ATOM     11  C   UNL     1      -4.919   1.248  23.854  0.00  0.00    +0.111 C 
ATOM     12  C   UNL     1      -4.601   2.760  26.346  0.00  0.00    +0.023 C 
ATOM     15  C   UNL     1      -5.203   1.358  26.305  0.00  0.00    +0.108 C 
ATOM     17  C   UNL     1      -4.100  -0.643  25.347  0.00  0.00    +0.219 C 
ENDROOT
BRANCH  17  10
ATOM     10  C   UNL     1      -3.610  -1.361  24.132  0.00  0.00    +0.075 C 
ATOM     13  C   UNL     1      -3.975  -2.803  23.939  0.00  0.00    +0.013 C 
ATOM     14  C   UNL     1      -2.564  -2.426  24.285  0.00  0.00    +0.013 C 
ENDBRANCH  17  10
BRANCH   8  16
ATOM     16  C   UNL     1      -2.762   2.549  23.733  0.00  0.00    +0.020 C 
BRANCH  16  19
ATOM     19  C   UNL     1      -2.341   1.368  22.871  0.00  0.00    +0.085 C 
BRANCH  19   6
ATOM      6  N   UNL     1      -1.051   0.852  23.329  0.00  0.00    -0.299 NA
ATOM      7  N   UNL     1       1.778   0.468  23.257  0.00  0.00    -0.327 N 
ATOM     20  C   UNL     1      -0.143   1.956  23.661  0.00  0.00    +0.103 C 
ATOM     21  C   UNL     1      -0.444  -0.002  22.301  0.00  0.00    +0.103 C 
ATOM     22  C   UNL     1       1.191   1.429  24.195  0.00  0.00    +0.120 C 
ATOM     23  C   UNL     1       0.879  -0.595  22.791  0.00  0.00    +0.120 C 
BRANCH   7  25
ATOM      1  F   UNL     1       7.193  -0.623  23.475  0.00  0.00    -0.205 F 
ATOM     25  C   UNL     1       3.149   0.193  23.312  0.00  0.00    +0.030 A 
ATOM     26  C   UNL     1       3.590  -1.069  23.710  0.00  0.00    +0.026 A 
ATOM     27  C   UNL     1       4.074   1.179  22.969  0.00  0.00    +0.026 A 
ATOM     28  C   UNL     1       4.956  -1.345  23.765  0.00  0.00    +0.040 A 
ATOM     29  C   UNL     1       5.440   0.903  23.024  0.00  0.00    +0.040 A 
ATOM     30  C   UNL     1       5.882  -0.359  23.422  0.00  0.00    +0.124 A 
ENDBRANCH   7  25
ENDBRANCH  19   6
ENDBRANCH  16  19
ENDBRANCH   8  16
BRANCH   9  18
ATOM     18  C   UNL     1      -4.190   4.893  25.064  0.00  0.00    +0.124 C 
BRANCH  18  24
ATOM      4  O   UNL     1      -2.460   4.231  26.648  0.00  0.00    -0.251 OA
ATOM     24  C   UNL     1      -2.814   4.873  25.670  0.00  0.00    +0.305 C 
BRANCH  24   3
ATOM      3  O   UNL     1      -1.991   5.691  24.965  0.00  0.00    -0.481 OA
ATOM     31  H   UNL     1      -1.166   5.234  24.694  0.00  0.00    +0.295 HD
ENDBRANCH  24   3
ENDBRANCH  18  24
ENDBRANCH   9  18
TORSDOF 8
ENDMDL
MODEL 5
REMARK VINA RESULT:       1.0     15.283     17.739
REMARK  Name = 28959922
REMARK  8 active torsions:
REMARK  status: ('A' for Active; 'I' for Inactive)
REMARK    1  A    between atoms: O_3  and  C_24
REMARK    2  A    between atoms: N_6  and  C_19
REMARK    3  A    between atoms: N_7  and  C_25
REMARK    4  A    between atoms: C_8  and  C_16
REMARK    5  A    between atoms: C_9  and  C_18
REMARK    6  A    between atoms: C_10  and  C_17
REMARK    7  A    between atoms: C_16  and  C_19
REMARK    8  A    between atoms: C_18  and  C_24
REMARK                            x       y       z     vdW  Elec       q    Type
REMARK                         _______ _______ _______ _____ _____    ______ ____
ROOT
ATOM      2  O   UNL     1      -0.359   5.250  24.626  0.00  0.00    -0.275 OA
ATOM      5  N   UNL     1      -2.067   4.022  25.623  0.00  0.00    -0.301 N 
ATOM      8  C   UNL     1      -3.791   2.236  25.558  0.00  0.00    +0.011 C 
ATOM      9  C   UNL     1      -4.873   3.337  25.423  0.00  0.00    +0.006 C 
ATOM     11  C   UNL     1      -2.555   2.803  26.279  0.00  0.00    +0.111 C 
ATOM     12  C   UNL     1      -4.305   4.612  24.776  0.00  0.00    +0.023 C 
ATOM     15  C   UNL     1      -3.054   5.095  25.506  0.00  0.00    +0.108 C 
ATOM     17  C   UNL     1      -0.765   4.217  25.152  0.00  0.00    +0.219 C 
ENDROOT
BRANCH  17  10
ATOM     10  C   UNL     1       0.195   3.082  25.300  0.00  0.00    +0.075 C 
ATOM     13  C   UNL     1      -0.140   1.959  26.237  0.00  0.00    +0.013 C 
ATOM     14  C   UNL     1       0.950   2.928  26.588  0.00  0.00    +0.013 C 
ENDBRANCH  17  10
BRANCH   8  16
ATOM     16  C   UNL     1      -3.383   1.595  24.225  0.00  0.00    +0.020 C 
BRANCH  16  19
ATOM     19  C   UNL     1      -3.169   0.098  24.384  0.00  0.00    +0.085 C 
BRANCH  19   6
ATOM      6  N   UNL     1      -1.850  -0.274  23.875  0.00  0.00    -0.299 NA
ATOM      7  N   UNL     1       0.997  -0.157  23.678  0.00  0.00    -0.327 N 
ATOM     20  C   UNL     1      -1.009  -0.797  24.957  0.00  0.00    +0.103 C 
ATOM     21  C   UNL     1      -1.196   0.882  23.248  0.00  0.00    +0.103 C 
ATOM     22  C   UNL     1       0.356  -1.243  24.426  0.00  0.00    +0.120 C 
ATOM     23  C   UNL     1       0.162   0.491  22.659  0.00  0.00    +0.120 C 
BRANCH   7  25
ATOM      1  F   UNL     1       6.469  -0.222  22.892  0.00  0.00    -0.205 F 
ATOM     25  C   UNL     1       2.382  -0.174  23.479  0.00  0.00    +0.030 A 
ATOM     26  C   UNL     1       3.019   0.933  22.918  0.00  0.00    +0.026 A 
ATOM     27  C   UNL     1       3.126  -1.296  23.843  0.00  0.00    +0.026 A 
ATOM     28  C   UNL     1       4.399   0.916  22.720  0.00  0.00    +0.040 A 
ATOM     29  C   UNL     1       4.507  -1.313  23.644  0.00  0.00    +0.040 A 
ATOM     30  C   UNL     1       5.144  -0.206  23.083  0.00  0.00    +0.124 A 
ENDBRANCH   7  25
ENDBRANCH  19   6
ENDBRANCH  16  19
ENDBRANCH   8  16
BRANCH   9  18
ATOM     18  C   UNL     1      -6.121   2.865  24.678  0.00  0.00    +0.124 C 
BRANCH  18  24
ATOM      4  O   UNL     1      -6.572   0.482  24.427  0.00  0.00    -0.251 OA
ATOM     24  C   UNL     1      -6.543   1.490  25.118  0.00  0.00    +0.305 C 
BRANCH  24   3
ATOM      3  O   UNL     1      -6.899   1.518  26.427  0.00  0.00    -0.481 OA
ATOM     31  H   UNL     1      -6.161   1.243  27.013  0.00  0.00    +0.295 HD
ENDBRANCH  24   3
ENDBRANCH  18  24
ENDBRANCH   9  18
TORSDOF 8
ENDMDL
MODEL 6
REMARK VINA RESULT:       1.0     15.094     17.257
REMARK  Name = 28959922
REMARK  8 active torsions:
REMARK  status: ('A' for Active; 'I' for Inactive)
REMARK    1  A    between atoms: O_3  and  C_24
REMARK    2  A    between atoms: N_6  and  C_19
REMARK    3  A    between atoms: N_7  and  C_25
REMARK    4  A    between atoms: C_8  and  C_16
REMARK    5  A    between atoms: C_9  and  C_18
REMARK    6  A    between atoms: C_10  and  C_17
REMARK    7  A    between atoms: C_16  and  C_19
REMARK    8  A    between atoms: C_18  and  C_24
REMARK                            x       y       z     vdW  Elec       q    Type
REMARK                         _______ _______ _______ _____ _____    ______ ____
ROOT
ATOM      2  O   UNL     1      -5.721   4.114  26.516  0.00  0.00    -0.275 OA
ATOM      5  N   UNL     1      -4.152   3.622  24.869  0.00  0.00    -0.301 N 
ATOM      8  C   UNL     1      -2.388   2.164  23.904  0.00  0.00    +0.011 C 
ATOM      9  C   UNL     1      -1.330   3.188  24.388  0.00  0.00    +0.006 C 
ATOM     11  C   UNL     1      -3.735   2.872  23.677  0.00  0.00    +0.111 C 
ATOM     12  C   UNL     1      -1.828   3.985  25.606  0.00  0.00    +0.023 C 
ATOM     15  C   UNL     1      -3.190   4.620  25.334  0.00  0.00    +0.108 C 
ATOM     17  C   UNL     1      -5.371   3.464  25.534  0.00  0.00    +0.219 C 
ENDROOT
BRANCH  17  10
ATOM     10  C   UNL     1      -6.310   2.427  25.009  0.00  0.00    +0.075 C 
ATOM     13  C   UNL     1      -6.703   1.282  25.893  0.00  0.00    +0.013 C 
ATOM     14  C   UNL     1      -5.790   1.048  24.725  0.00  0.00    +0.013 C 
ENDBRANCH  17  10
BRANCH   8  16
ATOM     16  C   UNL     1      -2.568   0.964  24.843  0.00  0.00    +0.020 C 
BRANCH  16  19
ATOM     19  C   UNL     1      -2.584  -0.341  24.061  0.00  0.00    +0.085 C 
BRANCH  19   6
ATOM      6  N   UNL     1      -1.221  -0.709  23.679  0.00  0.00    -0.299 NA
ATOM      7  N   UNL     1       1.621  -0.443  23.581  0.00  0.00    -0.327 N 
ATOM     20  C   UNL     1      -0.408  -0.978  24.871  0.00  0.00    +0.103 C 
ATOM     21  C   UNL     1      -0.603   0.359  22.883  0.00  0.00    +0.103 C 
ATOM     22  C   UNL     1       1.006  -1.420  24.484  0.00  0.00    +0.120 C 
ATOM     23  C   UNL     1       0.804  -0.040  22.430  0.00  0.00    +0.120 C 
BRANCH   7  25
ATOM      1  F   UNL     1       7.121  -0.292  23.041  0.00  0.00    -0.205 F 
ATOM     25  C   UNL     1       3.013  -0.404  23.444  0.00  0.00    +0.030 A 
ATOM     26  C   UNL     1       3.790  -1.461  23.920  0.00  0.00    +0.026 A 
ATOM     27  C   UNL     1       3.624   0.690  22.832  0.00  0.00    +0.026 A 
ATOM     28  C   UNL     1       5.177  -1.423  23.784  0.00  0.00    +0.040 A 
ATOM     29  C   UNL     1       5.012   0.728  22.696  0.00  0.00    +0.040 A 
ATOM     30  C   UNL     1       5.789  -0.329  23.171  0.00  0.00    +0.124 A 
ENDBRANCH   7  25
ENDBRANCH  19   6
ENDBRANCH  16  19
ENDBRANCH   8  16
BRANCH   9  18
ATOM     18  C   UNL     1       0.031   2.554  24.678  0.00  0.00    +0.124 C 
BRANCH  18  24
ATOM      4  O   UNL     1       0.964   3.063  26.872  0.00  0.00    -0.251 OA
ATOM     24  C   UNL     1       0.255   2.373  26.154  0.00  0.00    +0.305 C 
BRANCH  24   3
ATOM      3  O   UNL     1      -0.457   1.306  26.597  0.00  0.00    -0.481 OA
ATOM     31  H   UNL     1      -0.285   0.502  26.062  0.00  0.00    +0.295 HD
ENDBRANCH  24   3
ENDBRANCH  18  24
ENDBRANCH   9  18
TORSDOF 8
ENDMDL
