MODEL 1
REMARK VINA RESULT:      -3.0      0.000      0.000
REMARK  Name = 45783678
REMARK  5 active torsions:
REMARK  status: ('A' for Active; 'I' for Inactive)
REMARK    1  A    between atoms: N_2  and  C_14
REMARK    2  A    between atoms: N_8  and  C_24
REMARK    3  A    between atoms: C_10  and  C_15
REMARK    4  A    between atoms: C_14  and  C_16
REMARK    5  A    between atoms: C_17  and  C_19
REMARK                            x       y       z     vdW  Elec       q    Type
REMARK                         _______ _______ _______ _____ _____    ______ ____
ROOT
ATOM      1  O   UNL     1      16.902  -7.287  30.638  0.00  0.00    -0.336 OA
ATOM      3  N   UNL     1      15.733  -7.331  28.727  0.00  0.00    -0.190 NA
ATOM      6  N   UNL     1      17.383  -6.224  29.861  0.00  0.00    -0.056 NA
ATOM     15  C   UNL     1      15.934  -7.886  29.896  0.00  0.00    +0.245 A 
ATOM     17  C   UNL     1      16.645  -6.316  28.751  0.00  0.00    +0.204 A 
ENDROOT
BRANCH  17  19
ATOM      7  N   UNL     1      16.620  -5.012  25.270  0.00  0.00    -0.237 NA
ATOM     19  C   UNL     1      16.794  -5.413  27.647  0.00  0.00    +0.041 A 
ATOM     21  C   UNL     1      17.242  -4.111  27.842  0.00  0.00    +0.017 A 
ATOM     22  C   UNL     1      16.499  -5.811  26.353  0.00  0.00    +0.124 A 
ATOM     23  C   UNL     1      17.378  -3.259  26.752  0.00  0.00    +0.047 A 
ATOM     24  C   UNL     1      17.057  -3.754  25.497  0.00  0.00    +0.139 A 
BRANCH  24   8
ATOM      8  N   UNL     1      17.191  -2.907  24.408  0.00  0.00    -0.290 N 
ATOM      9  N   UNL     1      17.396  -1.023  23.249  0.00  0.00    -0.244 NA
ATOM     25  C   UNL     1      17.262  -3.280  23.095  0.00  0.00    +0.114 A 
ATOM     26  C   UNL     1      17.275  -1.543  24.451  0.00  0.00    +0.205 A 
ATOM     27  C   UNL     1      17.388  -2.100  22.400  0.00  0.00    +0.130 A 
ENDBRANCH  24   8
ENDBRANCH  17  19
BRANCH  15  10
ATOM      2  N   UNL     1      13.835  -8.807  30.868  0.00  0.00    -0.284 NA
ATOM     10  C   UNL     1      15.245  -9.080  30.524  0.00  0.00    +0.146 C 
ATOM     11  C   UNL     1      15.189 -10.296  29.582  0.00  0.00    +0.030 C 
ATOM     12  C   UNL     1      13.716 -10.673  29.505  0.00  0.00    +0.017 C 
ATOM     13  C   UNL     1      13.132 -10.086  30.773  0.00  0.00    +0.085 C 
BRANCH   2  14
ATOM     14  C   UNL     1      13.673  -8.187  32.177  0.00  0.00    +0.159 C 
BRANCH  14  16
ATOM      4  N   UNL     1      14.252  -5.758  31.971  0.00  0.00    -0.347 N 
ATOM      5  N   UNL     1      12.085  -6.231  32.049  0.00  0.00    -0.239 NA
ATOM     16  C   UNL     1      13.299  -6.733  32.066  0.00  0.00    +0.121 A 
ATOM     18  C   UNL     1      13.605  -4.558  31.887  0.00  0.00    +0.104 A 
ATOM     20  C   UNL     1      12.268  -4.875  31.937  0.00  0.00    +0.130 A 
ATOM     28  H   UNL     1      15.255  -5.897  31.965  0.00  0.00    +0.167 HD
ENDBRANCH  14  16
ENDBRANCH   2  14
ENDBRANCH  15  10
TORSDOF 5
ENDMDL
MODEL 2
REMARK VINA RESULT:      -1.2     17.352     19.283
REMARK  Name = 45783678
REMARK  5 active torsions:
REMARK  status: ('A' for Active; 'I' for Inactive)
REMARK    1  A    between atoms: N_2  and  C_14
REMARK    2  A    between atoms: N_8  and  C_24
REMARK    3  A    between atoms: C_10  and  C_15
REMARK    4  A    between atoms: C_14  and  C_16
REMARK    5  A    between atoms: C_17  and  C_19
REMARK                            x       y       z     vdW  Elec       q    Type
REMARK                         _______ _______ _______ _____ _____    ______ ____
ROOT
ATOM      1  O   UNL     1      -3.281   2.385  22.200  0.00  0.00    -0.336 OA
ATOM      3  N   UNL     1      -2.265   1.659  24.060  0.00  0.00    -0.190 NA
ATOM      6  N   UNL     1      -1.980   2.031  21.820  0.00  0.00    -0.056 NA
ATOM     15  C   UNL     1      -3.364   2.136  23.533  0.00  0.00    +0.245 A 
ATOM     17  C   UNL     1      -1.444   1.613  22.971  0.00  0.00    +0.204 A 
ENDROOT
BRANCH  17  19
ATOM      7  N   UNL     1       2.167   1.505  23.848  0.00  0.00    -0.237 NA
ATOM     19  C   UNL     1      -0.092   1.144  23.067  0.00  0.00    +0.041 A 
ATOM     21  C   UNL     1       0.289  -0.069  22.503  0.00  0.00    +0.017 A 
ATOM     22  C   UNL     1       0.877   1.887  23.723  0.00  0.00    +0.124 A 
ATOM     23  C   UNL     1       1.608  -0.495  22.612  0.00  0.00    +0.047 A 
ATOM     24  C   UNL     1       2.500   0.321  23.288  0.00  0.00    +0.139 A 
BRANCH  24   8
ATOM      8  N   UNL     1       3.816  -0.101  23.399  0.00  0.00    -0.290 N 
ATOM      9  N   UNL     1       5.547  -1.427  23.821  0.00  0.00    -0.244 NA
ATOM     25  C   UNL     1       4.931   0.633  23.105  0.00  0.00    +0.114 A 
ATOM     26  C   UNL     1       4.237  -1.331  23.825  0.00  0.00    +0.205 A 
ATOM     27  C   UNL     1       5.986  -0.207  23.373  0.00  0.00    +0.130 A 
ENDBRANCH  24   8
ENDBRANCH  17  19
BRANCH  15  10
ATOM      2  N   UNL     1      -4.917   1.637  25.414  0.00  0.00    -0.284 NA
ATOM     10  C   UNL     1      -4.694   2.439  24.194  0.00  0.00    +0.146 C 
ATOM     11  C   UNL     1      -4.804   3.901  24.662  0.00  0.00    +0.030 C 
ATOM     12  C   UNL     1      -5.152   3.820  26.142  0.00  0.00    +0.017 C 
ATOM     13  C   UNL     1      -5.767   2.444  26.288  0.00  0.00    +0.085 C 
BRANCH   2  14
ATOM     14  C   UNL     1      -5.497   0.328  25.142  0.00  0.00    +0.159 C 
BRANCH  14  16
ATOM      4  N   UNL     1      -3.312  -0.777  25.674  0.00  0.00    -0.347 N 
ATOM      5  N   UNL     1      -4.446  -1.649  23.977  0.00  0.00    -0.239 NA
ATOM     16  C   UNL     1      -4.437  -0.716  24.902  0.00  0.00    +0.121 A 
ATOM     18  C   UNL     1      -2.554  -1.816  25.213  0.00  0.00    +0.104 A 
ATOM     20  C   UNL     1      -3.275  -2.339  24.166  0.00  0.00    +0.130 A 
ATOM     28  H   UNL     1      -3.078  -0.164  26.445  0.00  0.00    +0.167 HD
ENDBRANCH  14  16
ENDBRANCH   2  14
ENDBRANCH  15  10
TORSDOF 5
ENDMDL
MODEL 3
REMARK VINA RESULT:       0.5     17.270     19.187
REMARK  Name = 45783678
REMARK  5 active torsions:
REMARK  status: ('A' for Active; 'I' for Inactive)
REMARK    1  A    between atoms: N_2  and  C_14
REMARK    2  A    between atoms: N_8  and  C_24
REMARK    3  A    between atoms: C_10  and  C_15
REMARK    4  A    between atoms: C_14  and  C_16
REMARK    5  A    between atoms: C_17  and  C_19
REMARK                            x       y       z     vdW  Elec       q    Type
REMARK                         _______ _______ _______ _____ _____    ______ ____
ROOT
ATOM      1  O   UNL     1      -3.417   1.516  23.163  0.00  0.00    -0.336 OA
ATOM      3  N   UNL     1      -2.040   1.089  24.877  0.00  0.00    -0.190 NA
ATOM      6  N   UNL     1      -2.165   1.242  22.597  0.00  0.00    -0.056 NA
ATOM     15  C   UNL     1      -3.255   1.405  24.507  0.00  0.00    +0.245 A 
ATOM     17  C   UNL     1      -1.406   1.000  23.671  0.00  0.00    +0.204 A 
ENDROOT
BRANCH  17  19
ATOM      7  N   UNL     1       2.292   1.362  23.782  0.00  0.00    -0.237 NA
ATOM     19  C   UNL     1      -0.015   0.669  23.574  0.00  0.00    +0.041 A 
ATOM     21  C   UNL     1       0.395  -0.604  23.193  0.00  0.00    +0.017 A 
ATOM     22  C   UNL     1       0.964   1.608  23.855  0.00  0.00    +0.124 A 
ATOM     23  C   UNL     1       1.752  -0.895  23.106  0.00  0.00    +0.047 A 
ATOM     24  C   UNL     1       2.652   0.115  23.409  0.00  0.00    +0.139 A 
BRANCH  24   8
ATOM      8  N   UNL     1       4.006  -0.171  23.324  0.00  0.00    -0.290 N 
ATOM      9  N   UNL     1       5.923  -1.261  23.590  0.00  0.00    -0.244 NA
ATOM     25  C   UNL     1       4.961   0.599  22.721  0.00  0.00    +0.114 A 
ATOM     26  C   UNL     1       4.631  -1.277  23.831  0.00  0.00    +0.205 A 
ATOM     27  C   UNL     1       6.135  -0.095  22.899  0.00  0.00    +0.130 A 
ENDBRANCH  24   8
ENDBRANCH  17  19
BRANCH  15  10
ATOM      2  N   UNL     1      -4.922   3.065  25.321  0.00  0.00    -0.284 NA
ATOM     10  C   UNL     1      -4.483   1.655  25.357  0.00  0.00    +0.146 C 
ATOM     11  C   UNL     1      -5.708   0.853  24.882  0.00  0.00    +0.030 C 
ATOM     12  C   UNL     1      -6.802   1.890  24.662  0.00  0.00    +0.017 C 
ATOM     13  C   UNL     1      -6.369   3.054  25.529  0.00  0.00    +0.085 C 
BRANCH   2  14
ATOM     14  C   UNL     1      -4.234   3.906  26.293  0.00  0.00    +0.159 C 
BRANCH  14  16
ATOM      4  N   UNL     1      -1.754   3.557  26.372  0.00  0.00    -0.347 N 
ATOM      5  N   UNL     1      -2.462   5.144  24.991  0.00  0.00    -0.239 NA
ATOM     16  C   UNL     1      -2.828   4.229  25.861  0.00  0.00    +0.121 A 
ATOM     18  C   UNL     1      -0.631   4.074  25.791  0.00  0.00    +0.104 A 
ATOM     20  C   UNL     1      -1.094   5.053  24.942  0.00  0.00    +0.130 A 
ATOM     28  H   UNL     1      -1.782   2.812  27.057  0.00  0.00    +0.167 HD
ENDBRANCH  14  16
ENDBRANCH   2  14
ENDBRANCH  15  10
TORSDOF 5
ENDMDL
