MODEL 1
REMARK VINA RESULT:      -4.0      0.000      0.000
REMARK  Name = 75536761
REMARK  7 active torsions:
REMARK  status: ('A' for Active; 'I' for Inactive)
REMARK    1  A    between atoms: O_2  and  C_11
REMARK    2  A    between atoms: N_5  and  C_10
REMARK    3  A    between atoms: N_5  and  C_15
REMARK    4  A    between atoms: N_6  and  C_14
REMARK    5  A    between atoms: N_8  and  C_23
REMARK    6  A    between atoms: C_12  and  C_14
REMARK    7  A    between atoms: C_15  and  C_17
REMARK                            x       y       z     vdW  Elec       q    Type
REMARK                         _______ _______ _______ _____ _____    ______ ____
ROOT
ATOM      1  O   UNL     1      -0.167   3.841  23.935  0.00  0.00    -0.371 OA
ATOM     10  C   UNL     1      -1.212   3.909  26.068  0.00  0.00    +0.111 C 
ATOM     11  C   UNL     1      -0.765   2.487  25.780  0.00  0.00    +0.164 C 
ATOM     12  C   UNL     1       0.294   2.723  24.711  0.00  0.00    +0.165 C 
ATOM     13  C   UNL     1      -1.202   4.515  24.673  0.00  0.00    +0.181 C 
ENDROOT
BRANCH  11   2
ATOM      2  O   UNL     1      -0.230   1.843  26.919  0.00  0.00    -0.388 OA
ATOM     27  H   UNL     1       0.146   2.519  27.506  0.00  0.00    +0.210 HD
ENDBRANCH  11   2
BRANCH  10   5
ATOM      5  N   UNL     1      -2.512   3.993  26.711  0.00  0.00    -0.302 NA
ATOM     25  H   UNL     1      -2.466   4.672  27.472  0.00  0.00    +0.123 HD
BRANCH   5  15
ATOM     15  C   UNL     1      -3.539   4.413  25.765  0.00  0.00    +0.156 C 
BRANCH  15  17
ATOM      8  N   UNL     1      -4.682   2.595  24.453  0.00  0.00    -0.336 N 
ATOM      9  N   UNL     1      -5.537   3.048  26.452  0.00  0.00    -0.239 NA
ATOM     17  C   UNL     1      -4.599   3.358  25.584  0.00  0.00    +0.123 A 
ATOM     22  C   UNL     1      -5.742   1.745  24.609  0.00  0.00    +0.106 A 
ATOM     23  C   UNL     1      -3.820   2.661  23.297  0.00  0.00    +0.150 C 
ATOM     24  C   UNL     1      -6.253   2.045  25.850  0.00  0.00    +0.130 A 
ENDBRANCH  15  17
ENDBRANCH   5  15
ENDBRANCH  10   5
BRANCH  12  14
ATOM     14  C   UNL     1       0.510   1.524  23.805  0.00  0.00    +0.140 C 
BRANCH  14   6
ATOM      3  O   UNL     1      -4.398  -2.570  24.384  0.00  0.00    -0.377 OA
ATOM      4  O   UNL     1       0.339  -1.162  24.627  0.00  0.00    -0.253 OA
ATOM      6  N   UNL     1      -0.672   0.694  23.734  0.00  0.00    -0.297 N 
ATOM      7  N   UNL     1      -1.896  -1.308  24.022  0.00  0.00    -0.281 N 
ATOM     16  C   UNL     1      -0.674  -0.629  24.162  0.00  0.00    +0.302 C 
ATOM     18  C   UNL     1      -1.988  -2.708  24.442  0.00  0.00    +0.137 C 
ATOM     19  C   UNL     1      -3.098  -0.799  23.344  0.00  0.00    +0.137 C 
ATOM     20  C   UNL     1      -3.287  -2.970  25.187  0.00  0.00    +0.179 C 
ATOM     21  C   UNL     1      -4.356  -1.167  24.123  0.00  0.00    +0.179 C 
ATOM     26  H   UNL     1      -1.493   1.127  23.337  0.00  0.00    +0.150 HD
ENDBRANCH  14   6
ENDBRANCH  12  14
TORSDOF 6
ENDMDL
MODEL 2
REMARK VINA RESULT:      -2.8      2.043      4.500
REMARK  Name = 75536761
REMARK  7 active torsions:
REMARK  status: ('A' for Active; 'I' for Inactive)
REMARK    1  A    between atoms: O_2  and  C_11
REMARK    2  A    between atoms: N_5  and  C_10
REMARK    3  A    between atoms: N_5  and  C_15
REMARK    4  A    between atoms: N_6  and  C_14
REMARK    5  A    between atoms: N_8  and  C_23
REMARK    6  A    between atoms: C_12  and  C_14
REMARK    7  A    between atoms: C_15  and  C_17
REMARK                            x       y       z     vdW  Elec       q    Type
REMARK                         _______ _______ _______ _____ _____    ______ ____
ROOT
ATOM      1  O   UNL     1      -5.852   3.122  25.987  0.00  0.00    -0.371 OA
ATOM     10  C   UNL     1      -4.100   4.176  24.777  0.00  0.00    +0.111 C 
ATOM     11  C   UNL     1      -4.198   2.724  24.344  0.00  0.00    +0.164 C 
ATOM     12  C   UNL     1      -5.618   2.384  24.777  0.00  0.00    +0.165 C 
ATOM     13  C   UNL     1      -4.847   4.145  26.101  0.00  0.00    +0.181 C 
ENDROOT
BRANCH  11   2
ATOM      2  O   UNL     1      -4.017   2.557  22.951  0.00  0.00    -0.388 OA
ATOM     27  H   UNL     1      -4.767   2.048  22.604  0.00  0.00    +0.210 HD
ENDBRANCH  11   2
BRANCH  10   5
ATOM      5  N   UNL     1      -2.734   4.653  24.909  0.00  0.00    -0.302 NA
ATOM     25  H   UNL     1      -2.745   5.597  25.296  0.00  0.00    +0.123 HD
BRANCH   5  15
ATOM     15  C   UNL     1      -1.960   3.790  25.794  0.00  0.00    +0.156 C 
BRANCH  15  17
ATOM      8  N   UNL     1       0.103   2.362  25.598  0.00  0.00    -0.336 N 
ATOM      9  N   UNL     1      -1.131   2.560  23.763  0.00  0.00    -0.239 NA
ATOM     17  C   UNL     1      -1.012   2.906  25.026  0.00  0.00    +0.123 A 
ATOM     22  C   UNL     1       0.737   1.622  24.640  0.00  0.00    +0.106 A 
ATOM     23  C   UNL     1       0.547   2.527  26.963  0.00  0.00    +0.150 C 
ATOM     24  C   UNL     1      -0.043   1.760  23.516  0.00  0.00    +0.130 A 
ENDBRANCH  15  17
ENDBRANCH   5  15
ENDBRANCH  10   5
BRANCH  12  14
ATOM     14  C   UNL     1      -5.830   0.902  25.030  0.00  0.00    +0.140 C 
BRANCH  14   6
ATOM      3  O   UNL     1      -0.253  -2.254  25.375  0.00  0.00    -0.377 OA
ATOM      4  O   UNL     1      -4.859  -1.420  23.771  0.00  0.00    -0.253 OA
ATOM      6  N   UNL     1      -4.586   0.234  25.338  0.00  0.00    -0.297 N 
ATOM      7  N   UNL     1      -2.947  -1.451  25.085  0.00  0.00    -0.281 N 
ATOM     16  C   UNL     1      -4.176  -0.913  24.668  0.00  0.00    +0.302 C 
ATOM     18  C   UNL     1      -2.441  -2.664  24.437  0.00  0.00    +0.137 C 
ATOM     19  C   UNL     1      -2.150  -1.002  26.237  0.00  0.00    +0.137 C 
ATOM     20  C   UNL     1      -0.949  -2.554  24.165  0.00  0.00    +0.179 C 
ATOM     21  C   UNL     1      -0.665  -0.990  25.896  0.00  0.00    +0.179 C 
ATOM     26  H   UNL     1      -4.038   0.639  26.083  0.00  0.00    +0.150 HD
ENDBRANCH  14   6
ENDBRANCH  12  14
TORSDOF 6
ENDMDL
MODEL 3
REMARK VINA RESULT:      -2.3      1.652      5.017
REMARK  Name = 75536761
REMARK  7 active torsions:
REMARK  status: ('A' for Active; 'I' for Inactive)
REMARK    1  A    between atoms: O_2  and  C_11
REMARK    2  A    between atoms: N_5  and  C_10
REMARK    3  A    between atoms: N_5  and  C_15
REMARK    4  A    between atoms: N_6  and  C_14
REMARK    5  A    between atoms: N_8  and  C_23
REMARK    6  A    between atoms: C_12  and  C_14
REMARK    7  A    between atoms: C_15  and  C_17
REMARK                            x       y       z     vdW  Elec       q    Type
REMARK                         _______ _______ _______ _____ _____    ______ ____
ROOT
ATOM      1  O   UNL     1      -2.091  -2.934  25.125  0.00  0.00    -0.371 OA
ATOM     10  C   UNL     1      -3.754  -1.700  23.961  0.00  0.00    +0.111 C 
ATOM     11  C   UNL     1      -2.491  -0.863  24.055  0.00  0.00    +0.164 C 
ATOM     12  C   UNL     1      -1.445  -1.940  24.315  0.00  0.00    +0.165 C 
ATOM     13  C   UNL     1      -3.514  -2.731  25.052  0.00  0.00    +0.181 C 
ENDROOT
BRANCH  11   2
ATOM      2  O   UNL     1      -2.224  -0.144  22.867  0.00  0.00    -0.388 OA
ATOM     27  H   UNL     1      -2.606  -0.633  22.120  0.00  0.00    +0.210 HD
ENDBRANCH  11   2
BRANCH  10   5
ATOM      5  N   UNL     1      -4.975  -0.938  24.162  0.00  0.00    -0.302 NA
ATOM     25  H   UNL     1      -5.755  -1.582  24.293  0.00  0.00    +0.123 HD
BRANCH   5  15
ATOM     15  C   UNL     1      -4.869  -0.079  25.336  0.00  0.00    +0.156 C 
BRANCH  15  17
ATOM      8  N   UNL     1      -5.442   2.358  25.587  0.00  0.00    -0.336 N 
ATOM      9  N   UNL     1      -3.952   1.857  24.018  0.00  0.00    -0.239 NA
ATOM     17  C   UNL     1      -4.734   1.372  24.959  0.00  0.00    +0.123 A 
ATOM     22  C   UNL     1      -5.091   3.547  25.011  0.00  0.00    +0.106 A 
ATOM     23  C   UNL     1      -6.391   2.193  26.663  0.00  0.00    +0.150 C 
ATOM     24  C   UNL     1      -4.171   3.211  24.046  0.00  0.00    +0.130 A 
ENDBRANCH  15  17
ENDBRANCH   5  15
ENDBRANCH  10   5
BRANCH  12  14
ATOM     14  C   UNL     1      -0.211  -1.418  25.029  0.00  0.00    +0.140 C 
BRANCH  14   6
ATOM      3  O   UNL     1      -0.972   4.945  25.382  0.00  0.00    -0.377 OA
ATOM      4  O   UNL     1       0.552   0.702  23.343  0.00  0.00    -0.253 OA
ATOM      6  N   UNL     1      -0.333  -0.010  25.336  0.00  0.00    -0.297 N 
ATOM      7  N   UNL     1      -0.106   2.300  24.890  0.00  0.00    -0.281 N 
ATOM     16  C   UNL     1       0.069   0.979  24.446  0.00  0.00    +0.302 C 
ATOM     18  C   UNL     1       0.297   3.407  24.019  0.00  0.00    +0.137 C 
ATOM     19  C   UNL     1      -0.528   2.713  26.237  0.00  0.00    +0.137 C 
ATOM     20  C   UNL     1      -0.737   4.520  24.039  0.00  0.00    +0.179 C 
ATOM     21  C   UNL     1      -1.509   3.878  26.164  0.00  0.00    +0.179 C 
ATOM     26  H   UNL     1      -0.711   0.213  26.245  0.00  0.00    +0.150 HD
ENDBRANCH  14   6
ENDBRANCH  12  14
TORSDOF 6
ENDMDL
MODEL 4
REMARK VINA RESULT:      -2.0     19.323     21.145
REMARK  Name = 75536761
REMARK  7 active torsions:
REMARK  status: ('A' for Active; 'I' for Inactive)
REMARK    1  A    between atoms: O_2  and  C_11
REMARK    2  A    between atoms: N_5  and  C_10
REMARK    3  A    between atoms: N_5  and  C_15
REMARK    4  A    between atoms: N_6  and  C_14
REMARK    5  A    between atoms: N_8  and  C_23
REMARK    6  A    between atoms: C_12  and  C_14
REMARK    7  A    between atoms: C_15  and  C_17
REMARK                            x       y       z     vdW  Elec       q    Type
REMARK                         _______ _______ _______ _____ _____    ______ ____
ROOT
ATOM      1  O   UNL     1      16.297 -10.697  29.444  0.00  0.00    -0.371 OA
ATOM     10  C   UNL     1      14.962  -9.744  31.163  0.00  0.00    +0.111 C 
ATOM     11  C   UNL     1      14.234  -9.608  29.837  0.00  0.00    +0.164 C 
ATOM     12  C   UNL     1      14.927 -10.684  29.011  0.00  0.00    +0.165 C 
ATOM     13  C   UNL     1      16.387  -9.997  30.698  0.00  0.00    +0.181 C 
ENDROOT
BRANCH  11   2
ATOM      2  O   UNL     1      12.844  -9.845  29.951  0.00  0.00    -0.388 OA
ATOM     27  H   UNL     1      12.538 -10.275  29.135  0.00  0.00    +0.210 HD
ENDBRANCH  11   2
BRANCH  10   5
ATOM      5  N   UNL     1      14.844  -8.572  32.014  0.00  0.00    -0.302 NA
ATOM     25  H   UNL     1      15.250  -8.778  32.927  0.00  0.00    +0.123 HD
BRANCH   5  15
ATOM     15  C   UNL     1      15.542  -7.430  31.434  0.00  0.00    +0.156 C 
BRANCH  15  17
ATOM      8  N   UNL     1      15.452  -4.916  31.502  0.00  0.00    -0.336 N 
ATOM      9  N   UNL     1      13.764  -5.986  32.471  0.00  0.00    -0.239 NA
ATOM     17  C   UNL     1      14.895  -6.125  31.816  0.00  0.00    +0.123 A 
ATOM     22  C   UNL     1      14.623  -3.945  31.988  0.00  0.00    +0.106 A 
ATOM     23  C   UNL     1      16.687  -4.689  30.789  0.00  0.00    +0.150 C 
ATOM     24  C   UNL     1      13.589  -4.629  32.583  0.00  0.00    +0.130 A 
ENDBRANCH  15  17
ENDBRANCH   5  15
ENDBRANCH  10   5
BRANCH  12  14
ATOM     14  C   UNL     1      14.863 -10.427  27.516  0.00  0.00    +0.140 C 
BRANCH  14   6
ATOM      3  O   UNL     1      17.405  -5.103  24.992  0.00  0.00    -0.377 OA
ATOM      4  O   UNL     1      16.144  -9.886  25.069  0.00  0.00    -0.253 OA
ATOM      6  N   UNL     1      15.518  -9.188  27.163  0.00  0.00    -0.297 N 
ATOM      7  N   UNL     1      16.731  -7.744  25.737  0.00  0.00    -0.281 N 
ATOM     16  C   UNL     1      16.131  -8.999  25.929  0.00  0.00    +0.302 C 
ATOM     18  C   UNL     1      17.405  -7.461  24.468  0.00  0.00    +0.137 C 
ATOM     19  C   UNL     1      16.891  -6.695  26.755  0.00  0.00    +0.137 C 
ATOM     20  C   UNL     1      17.081  -6.058  23.980  0.00  0.00    +0.179 C 
ATOM     21  C   UNL     1      16.616  -5.318  26.162  0.00  0.00    +0.179 C 
ATOM     26  H   UNL     1      15.522  -8.471  27.874  0.00  0.00    +0.150 HD
ENDBRANCH  14   6
ENDBRANCH  12  14
TORSDOF 6
ENDMDL
MODEL 5
REMARK VINA RESULT:      -1.7      1.774      6.239
REMARK  Name = 75536761
REMARK  7 active torsions:
REMARK  status: ('A' for Active; 'I' for Inactive)
REMARK    1  A    between atoms: O_2  and  C_11
REMARK    2  A    between atoms: N_5  and  C_10
REMARK    3  A    between atoms: N_5  and  C_15
REMARK    4  A    between atoms: N_6  and  C_14
REMARK    5  A    between atoms: N_8  and  C_23
REMARK    6  A    between atoms: C_12  and  C_14
REMARK    7  A    between atoms: C_15  and  C_17
REMARK                            x       y       z     vdW  Elec       q    Type
REMARK                         _______ _______ _______ _____ _____    ______ ____
ROOT
ATOM      1  O   UNL     1      -3.739  -2.856  23.839  0.00  0.00    -0.371 OA
ATOM     10  C   UNL     1      -1.817  -2.503  25.189  0.00  0.00    +0.111 C 
ATOM     11  C   UNL     1      -2.691  -1.263  25.238  0.00  0.00    +0.164 C 
ATOM     12  C   UNL     1      -4.035  -1.835  24.804  0.00  0.00    +0.165 C 
ATOM     13  C   UNL     1      -2.344  -3.194  23.942  0.00  0.00    +0.181 C 
ENDROOT
BRANCH  11   2
ATOM      2  O   UNL     1      -2.754  -0.690  26.529  0.00  0.00    -0.388 OA
ATOM     27  H   UNL     1      -2.913  -1.400  27.172  0.00  0.00    +0.210 HD
ENDBRANCH  11   2
BRANCH  10   5
ATOM      5  N   UNL     1      -0.395  -2.211  25.116  0.00  0.00    -0.302 NA
ATOM     25  H   UNL     1       0.130  -3.083  25.174  0.00  0.00    +0.123 HD
BRANCH   5  15
ATOM     15  C   UNL     1      -0.062  -1.543  23.863  0.00  0.00    +0.156 C 
BRANCH  15  17
ATOM      8  N   UNL     1       1.223   0.563  23.360  0.00  0.00    -0.336 N 
ATOM      9  N   UNL     1      -0.345   0.719  24.926  0.00  0.00    -0.239 NA
ATOM     17  C   UNL     1       0.251  -0.084  24.072  0.00  0.00    +0.123 A 
ATOM     22  C   UNL     1       1.249   1.860  23.788  0.00  0.00    +0.106 A 
ATOM     23  C   UNL     1       2.074  -0.005  22.341  0.00  0.00    +0.150 C 
ATOM     24  C   UNL     1       0.274   1.932  24.755  0.00  0.00    +0.130 A 
ENDBRANCH  15  17
ENDBRANCH   5  15
ENDBRANCH  10   5
BRANCH  12  14
ATOM     14  C   UNL     1      -4.958  -0.799  24.189  0.00  0.00    +0.140 C 
BRANCH  14   6
ATOM      3  O   UNL     1      -2.489   5.009  25.355  0.00  0.00    -0.377 OA
ATOM      4  O   UNL     1      -5.711   1.295  25.912  0.00  0.00    -0.253 OA
ATOM      6  N   UNL     1      -4.368   0.521  24.220  0.00  0.00    -0.297 N 
ATOM      7  N   UNL     1      -4.133   2.737  25.009  0.00  0.00    -0.281 N 
ATOM     16  C   UNL     1      -4.799   1.503  25.104  0.00  0.00    +0.302 C 
ATOM     18  C   UNL     1      -4.527   3.832  25.899  0.00  0.00    +0.137 C 
ATOM     19  C   UNL     1      -3.149   3.114  23.983  0.00  0.00    +0.137 C 
ATOM     20  C   UNL     1      -3.307   4.562  26.438  0.00  0.00    +0.179 C 
ATOM     21  C   UNL     1      -1.999   3.901  24.600  0.00  0.00    +0.179 C 
ATOM     26  H   UNL     1      -3.636   0.694  23.547  0.00  0.00    +0.150 HD
ENDBRANCH  14   6
ENDBRANCH  12  14
TORSDOF 6
ENDMDL
MODEL 6
REMARK VINA RESULT:      -1.3      1.832      4.845
REMARK  Name = 75536761
REMARK  7 active torsions:
REMARK  status: ('A' for Active; 'I' for Inactive)
REMARK    1  A    between atoms: O_2  and  C_11
REMARK    2  A    between atoms: N_5  and  C_10
REMARK    3  A    between atoms: N_5  and  C_15
REMARK    4  A    between atoms: N_6  and  C_14
REMARK    5  A    between atoms: N_8  and  C_23
REMARK    6  A    between atoms: C_12  and  C_14
REMARK    7  A    between atoms: C_15  and  C_17
REMARK                            x       y       z     vdW  Elec       q    Type
REMARK                         _______ _______ _______ _____ _____    ______ ____
ROOT
ATOM      1  O   UNL     1      -3.590  -1.194  26.287  0.00  0.00    -0.371 OA
ATOM     10  C   UNL     1      -4.616   0.184  24.647  0.00  0.00    +0.111 C 
ATOM     11  C   UNL     1      -3.600  -0.718  23.970  0.00  0.00    +0.164 C 
ATOM     12  C   UNL     1      -3.459  -1.828  25.005  0.00  0.00    +0.165 C 
ATOM     13  C   UNL     1      -4.165   0.111  26.097  0.00  0.00    +0.181 C 
ENDROOT
BRANCH  11   2
ATOM      2  O   UNL     1      -4.053  -1.213  22.725  0.00  0.00    -0.388 OA
ATOM     27  H   UNL     1      -5.008  -1.380  22.791  0.00  0.00    +0.210 HD
ENDBRANCH  11   2
BRANCH  10   5
ATOM      5  N   UNL     1      -4.628   1.541  24.126  0.00  0.00    -0.302 NA
ATOM     25  H   UNL     1      -4.784   2.194  24.894  0.00  0.00    +0.123 HD
BRANCH   5  15
ATOM     15  C   UNL     1      -3.361   1.865  23.481  0.00  0.00    +0.156 C 
BRANCH  15  17
ATOM      8  N   UNL     1      -3.169   3.746  25.142  0.00  0.00    -0.336 N 
ATOM      9  N   UNL     1      -1.270   3.046  24.228  0.00  0.00    -0.239 NA
ATOM     17  C   UNL     1      -2.573   2.877  24.271  0.00  0.00    +0.123 A 
ATOM     22  C   UNL     1      -2.184   4.519  25.689  0.00  0.00    +0.106 A 
ATOM     23  C   UNL     1      -4.578   3.844  25.442  0.00  0.00    +0.150 C 
ATOM     24  C   UNL     1      -1.021   4.068  25.108  0.00  0.00    +0.130 A 
ENDBRANCH  15  17
ENDBRANCH   5  15
ENDBRANCH  10   5
BRANCH  12  14
ATOM     14  C   UNL     1      -2.130  -2.557  24.926  0.00  0.00    +0.140 C 
BRANCH  14   6
ATOM      3  O   UNL     1       2.581   0.608  21.930  0.00  0.00    -0.377 OA
ATOM      4  O   UNL     1      -0.556  -0.336  25.638  0.00  0.00    -0.253 OA
ATOM      6  N   UNL     1      -1.200  -1.870  24.058  0.00  0.00    -0.297 N 
ATOM      7  N   UNL     1       0.398  -0.211  23.527  0.00  0.00    -0.281 N 
ATOM     16  C   UNL     1      -0.457  -0.776  24.487  0.00  0.00    +0.302 C 
ATOM     18  C   UNL     1       1.214   0.950  23.891  0.00  0.00    +0.137 C 
ATOM     19  C   UNL     1       0.464  -0.575  22.104  0.00  0.00    +0.137 C 
ATOM     20  C   UNL     1       2.625   0.818  23.342  0.00  0.00    +0.179 C 
ATOM     21  C   UNL     1       1.910  -0.614  21.622  0.00  0.00    +0.179 C 
ATOM     26  H   UNL     1      -1.134  -2.220  23.113  0.00  0.00    +0.150 HD
ENDBRANCH  14   6
ENDBRANCH  12  14
TORSDOF 6
ENDMDL
MODEL 7
REMARK VINA RESULT:      -1.1      1.924      4.674
REMARK  Name = 75536761
REMARK  7 active torsions:
REMARK  status: ('A' for Active; 'I' for Inactive)
REMARK    1  A    between atoms: O_2  and  C_11
REMARK    2  A    between atoms: N_5  and  C_10
REMARK    3  A    between atoms: N_5  and  C_15
REMARK    4  A    between atoms: N_6  and  C_14
REMARK    5  A    between atoms: N_8  and  C_23
REMARK    6  A    between atoms: C_12  and  C_14
REMARK    7  A    between atoms: C_15  and  C_17
REMARK                            x       y       z     vdW  Elec       q    Type
REMARK                         _______ _______ _______ _____ _____    ______ ____
ROOT
ATOM      1  O   UNL     1      -5.307   0.304  25.459  0.00  0.00    -0.371 OA
ATOM     10  C   UNL     1      -5.041   2.521  24.647  0.00  0.00    +0.111 C 
ATOM     11  C   UNL     1      -3.796   1.718  24.312  0.00  0.00    +0.164 C 
ATOM     12  C   UNL     1      -4.333   0.295  24.403  0.00  0.00    +0.165 C 
ATOM     13  C   UNL     1      -5.663   1.670  25.742  0.00  0.00    +0.181 C 
ENDROOT
BRANCH  11   2
ATOM      2  O   UNL     1      -3.289   2.009  23.025  0.00  0.00    -0.388 OA
ATOM     27  H   UNL     1      -3.923   1.684  22.365  0.00  0.00    +0.210 HD
ENDBRANCH  11   2
BRANCH  10   5
ATOM      5  N   UNL     1      -4.758   3.880  25.078  0.00  0.00    -0.302 NA
ATOM     25  H   UNL     1      -5.609   4.295  25.458  0.00  0.00    +0.123 HD
BRANCH   5  15
ATOM     15  C   UNL     1      -3.724   3.899  26.107  0.00  0.00    +0.156 C 
BRANCH  15  17
ATOM      8  N   UNL     1      -1.232   3.763  25.779  0.00  0.00    -0.336 N 
ATOM      9  N   UNL     1      -2.247   5.521  24.877  0.00  0.00    -0.239 NA
ATOM     17  C   UNL     1      -2.414   4.419  25.575  0.00  0.00    +0.123 A 
ATOM     22  C   UNL     1      -0.248   4.493  25.174  0.00  0.00    +0.106 A 
ATOM     23  C   UNL     1      -1.040   2.527  26.500  0.00  0.00    +0.150 C 
ATOM     24  C   UNL     1      -0.899   5.573  24.625  0.00  0.00    +0.130 A 
ENDBRANCH  15  17
ENDBRANCH   5  15
ENDBRANCH  10   5
BRANCH  12  14
ATOM     14  C   UNL     1      -3.258  -0.734  24.705  0.00  0.00    +0.140 C 
BRANCH  14   6
ATOM      3  O   UNL     1       2.665   1.112  23.065  0.00  0.00    -0.377 OA
ATOM      4  O   UNL     1      -1.027  -2.120  23.695  0.00  0.00    -0.253 OA
ATOM      6  N   UNL     1      -1.934  -0.183  24.528  0.00  0.00    -0.297 N 
ATOM      7  N   UNL     1       0.348  -0.265  23.914  0.00  0.00    -0.281 N 
ATOM     16  C   UNL     1      -0.881  -0.937  24.021  0.00  0.00    +0.302 C 
ATOM     18  C   UNL     1       1.514  -0.985  23.396  0.00  0.00    +0.137 C 
ATOM     19  C   UNL     1       0.644   1.085  24.416  0.00  0.00    +0.137 C 
ATOM     20  C   UNL     1       2.306  -0.116  22.432  0.00  0.00    +0.179 C 
ATOM     21  C   UNL     1       1.500   1.858  23.419  0.00  0.00    +0.179 C 
ATOM     26  H   UNL     1      -1.812   0.778  24.811  0.00  0.00    +0.150 HD
ENDBRANCH  14   6
ENDBRANCH  12  14
TORSDOF 6
ENDMDL
MODEL 8
REMARK VINA RESULT:      -0.9      1.912      4.640
REMARK  Name = 75536761
REMARK  7 active torsions:
REMARK  status: ('A' for Active; 'I' for Inactive)
REMARK    1  A    between atoms: O_2  and  C_11
REMARK    2  A    between atoms: N_5  and  C_10
REMARK    3  A    between atoms: N_5  and  C_15
REMARK    4  A    between atoms: N_6  and  C_14
REMARK    5  A    between atoms: N_8  and  C_23
REMARK    6  A    between atoms: C_12  and  C_14
REMARK    7  A    between atoms: C_15  and  C_17
REMARK                            x       y       z     vdW  Elec       q    Type
REMARK                         _______ _______ _______ _____ _____    ______ ____
ROOT
ATOM      1  O   UNL     1      -0.481  -1.453  23.060  0.00  0.00    -0.371 OA
ATOM     10  C   UNL     1       0.642  -0.027  24.594  0.00  0.00    +0.111 C 
ATOM     11  C   UNL     1      -0.768  -0.282  25.095  0.00  0.00    +0.164 C 
ATOM     12  C   UNL     1      -1.121  -1.558  24.342  0.00  0.00    +0.165 C 
ATOM     13  C   UNL     1       0.515  -0.416  23.130  0.00  0.00    +0.181 C 
ENDROOT
BRANCH  11   2
ATOM      2  O   UNL     1      -0.824  -0.464  26.497  0.00  0.00    -0.388 OA
ATOM     27  H   UNL     1      -0.645   0.389  26.925  0.00  0.00    +0.210 HD
ENDBRANCH  11   2
BRANCH  10   5
ATOM      5  N   UNL     1       1.087   1.344  24.778  0.00  0.00    -0.302 NA
ATOM     25  H   UNL     1       2.069   1.417  24.511  0.00  0.00    +0.123 HD
BRANCH   5  15
ATOM     15  C   UNL     1       0.305   2.263  23.959  0.00  0.00    +0.156 C 
BRANCH  15  17
ATOM      8  N   UNL     1      -0.824   4.429  24.566  0.00  0.00    -0.336 N 
ATOM      9  N   UNL     1      -1.365   2.661  25.796  0.00  0.00    -0.239 NA
ATOM     17  C   UNL     1      -0.636   3.094  24.791  0.00  0.00    +0.123 A 
ATOM     22  C   UNL     1      -1.730   4.876  25.486  0.00  0.00    +0.106 A 
ATOM     23  C   UNL     1      -0.190   5.235  23.549  0.00  0.00    +0.150 C 
ATOM     24  C   UNL     1      -2.049   3.767  26.234  0.00  0.00    +0.130 A 
ENDBRANCH  15  17
ENDBRANCH   5  15
ENDBRANCH  10   5
BRANCH  12  14
ATOM     14  C   UNL     1      -2.615  -1.751  24.155  0.00  0.00    +0.140 C 
BRANCH  14   6
ATOM      3  O   UNL     1      -5.517   3.909  25.011  0.00  0.00    -0.377 OA
ATOM      4  O   UNL     1      -4.296  -0.742  26.174  0.00  0.00    -0.253 OA
ATOM      6  N   UNL     1      -3.312  -0.485  24.117  0.00  0.00    -0.297 N 
ATOM      7  N   UNL     1      -4.743   1.191  24.973  0.00  0.00    -0.281 N 
ATOM     16  C   UNL     1      -4.128  -0.058  25.160  0.00  0.00    +0.302 C 
ATOM     18  C   UNL     1      -5.624   1.717  26.018  0.00  0.00    +0.137 C 
ATOM     19  C   UNL     1      -4.717   1.996  23.742  0.00  0.00    +0.137 C 
ATOM     20  C   UNL     1      -5.380   3.200  26.243  0.00  0.00    +0.179 C 
ATOM     21  C   UNL     1      -4.539   3.475  24.066  0.00  0.00    +0.179 C 
ATOM     26  H   UNL     1      -3.187   0.064  23.280  0.00  0.00    +0.150 HD
ENDBRANCH  14   6
ENDBRANCH  12  14
TORSDOF 6
ENDMDL
MODEL 9
REMARK VINA RESULT:      -0.8      1.990      4.374
REMARK  Name = 75536761
REMARK  7 active torsions:
REMARK  status: ('A' for Active; 'I' for Inactive)
REMARK    1  A    between atoms: O_2  and  C_11
REMARK    2  A    between atoms: N_5  and  C_10
REMARK    3  A    between atoms: N_5  and  C_15
REMARK    4  A    between atoms: N_6  and  C_14
REMARK    5  A    between atoms: N_8  and  C_23
REMARK    6  A    between atoms: C_12  and  C_14
REMARK    7  A    between atoms: C_15  and  C_17
REMARK                            x       y       z     vdW  Elec       q    Type
REMARK                         _______ _______ _______ _____ _____    ______ ____
ROOT
ATOM      1  O   UNL     1      -6.062   1.797  25.907  0.00  0.00    -0.371 OA
ATOM     10  C   UNL     1      -4.944   3.780  25.228  0.00  0.00    +0.111 C 
ATOM     11  C   UNL     1      -4.465   2.623  24.370  0.00  0.00    +0.164 C 
ATOM     12  C   UNL     1      -5.606   1.630  24.556  0.00  0.00    +0.165 C 
ATOM     13  C   UNL     1      -5.553   3.046  26.411  0.00  0.00    +0.181 C 
ENDROOT
BRANCH  11   2
ATOM      2  O   UNL     1      -4.296   2.983  23.013  0.00  0.00    -0.388 OA
ATOM     27  H   UNL     1      -4.258   3.952  22.955  0.00  0.00    +0.210 HD
ENDBRANCH  11   2
BRANCH  10   5
ATOM      5  N   UNL     1      -3.883   4.695  25.615  0.00  0.00    -0.302 NA
ATOM     25  H   UNL     1      -4.297   5.551  25.986  0.00  0.00    +0.123 HD
BRANCH   5  15
ATOM     15  C   UNL     1      -3.028   4.103  26.637  0.00  0.00    +0.156 C 
BRANCH  15  17
ATOM      8  N   UNL     1      -0.973   4.378  25.210  0.00  0.00    -0.336 N 
ATOM      9  N   UNL     1      -1.163   2.450  26.296  0.00  0.00    -0.239 NA
ATOM     17  C   UNL     1      -1.723   3.617  26.062  0.00  0.00    +0.123 A 
ATOM     22  C   UNL     1       0.136   3.651  24.879  0.00  0.00    +0.106 A 
ATOM     23  C   UNL     1      -1.279   5.708  24.737  0.00  0.00    +0.150 C 
ATOM     24  C   UNL     1      -0.005   2.465  25.560  0.00  0.00    +0.130 A 
ENDBRANCH  15  17
ENDBRANCH   5  15
ENDBRANCH  10   5
BRANCH  12  14
ATOM     14  C   UNL     1      -5.188   0.187  24.330  0.00  0.00    +0.140 C 
BRANCH  14   6
ATOM      3  O   UNL     1       1.047  -1.329  24.246  0.00  0.00    -0.377 OA
ATOM      4  O   UNL     1      -3.527  -1.204  26.127  0.00  0.00    -0.253 OA
ATOM      6  N   UNL     1      -3.752   0.062  24.226  0.00  0.00    -0.297 N 
ATOM      7  N   UNL     1      -1.616  -0.671  24.925  0.00  0.00    -0.281 N 
ATOM     16  C   UNL     1      -3.001  -0.645  25.158  0.00  0.00    +0.302 C 
ATOM     18  C   UNL     1      -0.747  -1.387  25.862  0.00  0.00    +0.137 C 
ATOM     19  C   UNL     1      -0.896   0.088  23.891  0.00  0.00    +0.137 C 
ATOM     20  C   UNL     1       0.313  -2.187  25.120  0.00  0.00    +0.179 C 
ATOM     21  C   UNL     1       0.191  -0.767  23.250  0.00  0.00    +0.179 C 
ATOM     26  H   UNL     1      -3.322   0.535  23.444  0.00  0.00    +0.150 HD
ENDBRANCH  14   6
ENDBRANCH  12  14
TORSDOF 6
ENDMDL
MODEL 10
REMARK VINA RESULT:      -0.6      1.018      1.441
REMARK  Name = 75536761
REMARK  7 active torsions:
REMARK  status: ('A' for Active; 'I' for Inactive)
REMARK    1  A    between atoms: O_2  and  C_11
REMARK    2  A    between atoms: N_5  and  C_10
REMARK    3  A    between atoms: N_5  and  C_15
REMARK    4  A    between atoms: N_6  and  C_14
REMARK    5  A    between atoms: N_8  and  C_23
REMARK    6  A    between atoms: C_12  and  C_14
REMARK    7  A    between atoms: C_15  and  C_17
REMARK                            x       y       z     vdW  Elec       q    Type
REMARK                         _______ _______ _______ _____ _____    ______ ____
ROOT
ATOM      1  O   UNL     1       0.220   3.792  23.754  0.00  0.00    -0.371 OA
ATOM     10  C   UNL     1      -1.270   4.554  25.441  0.00  0.00    +0.111 C 
ATOM     11  C   UNL     1      -0.869   3.121  25.744  0.00  0.00    +0.164 C 
ATOM     12  C   UNL     1       0.417   3.000  24.936  0.00  0.00    +0.165 C 
ATOM     13  C   UNL     1      -0.905   4.663  23.969  0.00  0.00    +0.181 C 
ENDROOT
BRANCH  11   2
ATOM      2  O   UNL     1      -0.648   2.897  27.122  0.00  0.00    -0.388 OA
ATOM     27  H   UNL     1       0.238   3.225  27.348  0.00  0.00    +0.210 HD
ENDBRANCH  11   2
BRANCH  10   5
ATOM      5  N   UNL     1      -2.672   4.833  25.699  0.00  0.00    -0.302 NA
ATOM     25  H   UNL     1      -2.784   5.825  25.907  0.00  0.00    +0.123 HD
BRANCH   5  15
ATOM     15  C   UNL     1      -3.495   4.498  24.541  0.00  0.00    +0.156 C 
BRANCH  15  17
ATOM      8  N   UNL     1      -5.598   3.442  25.432  0.00  0.00    -0.336 N 
ATOM      9  N   UNL     1      -4.127   2.064  24.499  0.00  0.00    -0.239 NA
ATOM     17  C   UNL     1      -4.387   3.315  24.811  0.00  0.00    +0.123 A 
ATOM     22  C   UNL     1      -6.146   2.193  25.522  0.00  0.00    +0.106 A 
ATOM     23  C   UNL     1      -6.203   4.662  25.912  0.00  0.00    +0.150 C 
ATOM     24  C   UNL     1      -5.219   1.360  24.940  0.00  0.00    +0.130 A 
ENDBRANCH  15  17
ENDBRANCH   5  15
ENDBRANCH  10   5
BRANCH  12  14
ATOM     14  C   UNL     1       0.749   1.571  24.546  0.00  0.00    +0.140 C 
BRANCH  14   6
ATOM      3  O   UNL     1      -3.674  -3.039  25.149  0.00  0.00    -0.377 OA
ATOM      4  O   UNL     1       0.507  -1.011  23.453  0.00  0.00    -0.253 OA
ATOM      6  N   UNL     1      -0.404   0.707  24.671  0.00  0.00    -0.297 N 
ATOM      7  N   UNL     1      -1.636  -1.276  24.300  0.00  0.00    -0.281 N 
ATOM     16  C   UNL     1      -0.445  -0.559  24.098  0.00  0.00    +0.302 C 
ATOM     18  C   UNL     1      -1.769  -2.618  23.727  0.00  0.00    +0.137 C 
ATOM     19  C   UNL     1      -2.864  -0.759  24.921  0.00  0.00    +0.137 C 
ATOM     20  C   UNL     1      -2.422  -3.571  24.715  0.00  0.00    +0.179 C 
ATOM     21  C   UNL     1      -3.488  -1.804  25.839  0.00  0.00    +0.179 C 
ATOM     26  H   UNL     1      -1.187   1.085  25.183  0.00  0.00    +0.150 HD
ENDBRANCH  14   6
ENDBRANCH  12  14
TORSDOF 6
ENDMDL
