MODEL 1
REMARK VINA RESULT:      13.1      0.000      0.000
REMARK  Name = 11882868
REMARK  10 active torsions:
REMARK  status: ('A' for Active; 'I' for Inactive)
REMARK    1  A    between atoms: O_3  and  C_15
REMARK    2  A    between atoms: O_4  and  C_20
REMARK    3  A    between atoms: N_8  and  C_26
REMARK    4  A    between atoms: C_10  and  C_18
REMARK    5  A    between atoms: C_12  and  C_20
REMARK    6  A    between atoms: C_12  and  C_21
REMARK    7  A    between atoms: C_13  and  C_23
REMARK    8  A    between atoms: C_23  and  C_24
REMARK    9  A    between atoms: C_26  and  C_28
REMARK   10  A    between atoms: C_27  and  C_29
REMARK                            x       y       z     vdW  Elec       q    Type
REMARK                         _______ _______ _______ _____ _____    ______ ____
ROOT
ATOM      1  S   UNL     1       0.503   2.058  26.014  0.00  0.00    -0.057 S 
ATOM      6  O   UNL     1       2.347   0.693  22.002  0.00  0.00    -0.269 OA
ATOM      7  N   UNL     1       0.078   1.780  23.478  0.00  0.00    -0.229 NA
ATOM      9  N   UNL     1       2.248   1.120  24.296  0.00  0.00    -0.260 N 
ATOM     10  C   UNL     1      -3.585   2.802  24.110  0.00  0.00    -0.019 C 
ATOM     11  C   UNL     1      -3.194   3.740  25.336  0.00  0.00    +0.011 C 
ATOM     12  C   UNL     1      -4.381   4.396  26.142  0.00  0.00    +0.021 C 
ATOM     13  C   UNL     1      -2.287   2.614  23.200  0.00  0.00    +0.054 C 
ATOM     14  C   UNL     1      -4.682   3.495  23.261  0.00  0.00    +0.010 C 
ATOM     15  C   UNL     1      -5.407   5.000  25.141  0.00  0.00    +0.123 C 
ATOM     16  C   UNL     1      -2.116   3.074  26.241  0.00  0.00    +0.049 C 
ATOM     17  C   UNL     1      -5.860   4.009  24.076  0.00  0.00    +0.032 C 
ATOM     18  C   UNL     1      -4.107   1.414  24.557  0.00  0.00    +0.012 C 
ATOM     19  C   UNL     1      -1.078   2.289  24.040  0.00  0.00    +0.058 A 
ATOM     21  C   UNL     1      -3.825   5.570  26.997  0.00  0.00    +0.016 C 
ATOM     22  C   UNL     1      -1.017   2.520  25.399  0.00  0.00    +0.015 A 
ATOM     25  C   UNL     1       0.975   1.611  24.425  0.00  0.00    +0.165 A 
ATOM     27  C   UNL     1       2.880   0.686  23.109  0.00  0.00    +0.256 C 
ATOM     41  H   UNL     1       2.757   1.078  25.172  0.00  0.00    +0.157 HD
ENDROOT
BRANCH  27  29
ATOM      2  S   UNL     1       4.456  -1.464  23.781  0.00  0.00    -0.092 S 
ATOM     29  C   UNL     1       4.246   0.161  23.286  0.00  0.00    +0.074 A 
ATOM     32  C   UNL     1       5.449   0.807  23.103  0.00  0.00    +0.021 A 
ATOM     35  C   UNL     1       6.559  -0.045  23.375  0.00  0.00    +0.008 A 
ATOM     37  C   UNL     1       6.162  -1.308  23.755  0.00  0.00    +0.046 A 
ENDBRANCH  27  29
BRANCH  15   3
ATOM      3  O   UNL     1      -6.556   5.489  25.833  0.00  0.00    -0.391 OA
ATOM     38  H   UNL     1      -6.408   6.431  26.019  0.00  0.00    +0.210 HD
ENDBRANCH  15   3
BRANCH  12  20
ATOM     20  C   UNL     1      -5.079   3.449  27.142  0.00  0.00    +0.165 C 
BRANCH  20   4
ATOM      4  O   UNL     1      -6.178   2.860  26.484  0.00  0.00    -0.394 OA
ATOM     39  H   UNL     1      -6.874   2.721  27.149  0.00  0.00    +0.209 HD
ENDBRANCH  20   4
ENDBRANCH  12  20
BRANCH  13  23
ATOM     23  C   UNL     1      -2.454   1.614  22.048  0.00  0.00    +0.106 C 
BRANCH  23  24
ATOM      5  O   UNL     1      -3.500  -0.490  22.625  0.00  0.00    -0.276 OA
ATOM      8  N   UNL     1      -1.202  -0.248  22.871  0.00  0.00    -0.311 N 
ATOM     24  C   UNL     1      -2.478   0.184  22.537  0.00  0.00    +0.214 C 
ATOM     40  H   UNL     1      -0.422   0.397  22.781  0.00  0.00    +0.149 HD
BRANCH   8  26
ATOM     26  C   UNL     1      -0.923  -1.574  23.371  0.00  0.00    +0.139 C 
BRANCH  26  28
ATOM     28  C   UNL     1      -1.774  -1.918  24.559  0.00  0.00    -0.030 A 
ATOM     30  C   UNL     1      -1.712  -1.134  25.712  0.00  0.00    +0.005 A 
ATOM     31  C   UNL     1      -2.628  -3.020  24.510  0.00  0.00    +0.005 A 
ATOM     33  C   UNL     1      -2.502  -1.454  26.815  0.00  0.00    +0.000 A 
ATOM     34  C   UNL     1      -3.418  -3.339  25.615  0.00  0.00    +0.000 A 
ATOM     36  C   UNL     1      -3.356  -2.556  26.767  0.00  0.00    +0.000 A 
ENDBRANCH  26  28
ENDBRANCH   8  26
ENDBRANCH  23  24
ENDBRANCH  13  23
TORSDOF 8
ENDMDL
MODEL 2
REMARK VINA RESULT:      15.9      2.042      4.909
REMARK  Name = 11882868
REMARK  10 active torsions:
REMARK  status: ('A' for Active; 'I' for Inactive)
REMARK    1  A    between atoms: O_3  and  C_15
REMARK    2  A    between atoms: O_4  and  C_20
REMARK    3  A    between atoms: N_8  and  C_26
REMARK    4  A    between atoms: C_10  and  C_18
REMARK    5  A    between atoms: C_12  and  C_20
REMARK    6  A    between atoms: C_12  and  C_21
REMARK    7  A    between atoms: C_13  and  C_23
REMARK    8  A    between atoms: C_23  and  C_24
REMARK    9  A    between atoms: C_26  and  C_28
REMARK   10  A    between atoms: C_27  and  C_29
REMARK                            x       y       z     vdW  Elec       q    Type
REMARK                         _______ _______ _______ _____ _____    ______ ____
ROOT
ATOM      1  S   UNL     1       1.902  -1.764  23.472  0.00  0.00    -0.057 S 
ATOM      6  O   UNL     1       4.920   1.735  23.598  0.00  0.00    -0.269 OA
ATOM      7  N   UNL     1       2.162   0.796  23.743  0.00  0.00    -0.229 NA
ATOM      9  N   UNL     1       4.184  -0.474  23.409  0.00  0.00    -0.260 N 
ATOM     10  C   UNL     1      -1.685   1.059  23.720  0.00  0.00    -0.019 C 
ATOM     11  C   UNL     1      -1.865  -0.375  24.387  0.00  0.00    +0.011 C 
ATOM     12  C   UNL     1      -3.340  -0.913  24.538  0.00  0.00    +0.021 C 
ATOM     13  C   UNL     1      -0.215   1.581  24.062  0.00  0.00    +0.054 C 
ATOM     14  C   UNL     1      -2.710   2.047  24.335  0.00  0.00    +0.010 C 
ATOM     15  C   UNL     1      -4.240   0.213  25.122  0.00  0.00    +0.123 C 
ATOM     16  C   UNL     1      -0.878  -1.414  23.780  0.00  0.00    +0.049 C 
ATOM     17  C   UNL     1      -4.139   1.523  24.350  0.00  0.00    +0.032 C 
ATOM     18  C   UNL     1      -1.878   1.036  22.183  0.00  0.00    +0.012 C 
ATOM     19  C   UNL     1       0.813   0.504  23.821  0.00  0.00    +0.058 A 
ATOM     21  C   UNL     1      -3.350  -2.088  25.557  0.00  0.00    +0.016 C 
ATOM     22  C   UNL     1       0.495  -0.835  23.716  0.00  0.00    +0.015 A 
ATOM     25  C   UNL     1       2.830  -0.321  23.552  0.00  0.00    +0.165 A 
ATOM     27  C   UNL     1       5.166   0.542  23.438  0.00  0.00    +0.256 C 
ATOM     41  H   UNL     1       4.472  -1.436  23.268  0.00  0.00    +0.157 HD
ENDROOT
BRANCH  27  29
ATOM      2  S   UNL     1       7.847   1.007  23.828  0.00  0.00    -0.092 S 
ATOM     29  C   UNL     1       6.547   0.081  23.209  0.00  0.00    +0.074 A 
ATOM     32  C   UNL     1       6.983  -1.042  22.541  0.00  0.00    +0.021 A 
ATOM     35  C   UNL     1       8.405  -1.142  22.535  0.00  0.00    +0.008 A 
ATOM     37  C   UNL     1       9.000  -0.093  23.200  0.00  0.00    +0.046 A 
ENDBRANCH  27  29
BRANCH  15   3
ATOM      3  O   UNL     1      -5.606  -0.199  25.151  0.00  0.00    -0.391 OA
ATOM     38  H   UNL     1      -6.154   0.587  24.991  0.00  0.00    +0.210 HD
ENDBRANCH  15   3
BRANCH  12  20
ATOM     20  C   UNL     1      -3.949  -1.487  23.239  0.00  0.00    +0.165 C 
BRANCH  20   4
ATOM      4  O   UNL     1      -4.667  -2.652  23.577  0.00  0.00    -0.394 OA
ATOM     39  H   UNL     1      -4.527  -2.814  24.526  0.00  0.00    +0.209 HD
ENDBRANCH  20   4
ENDBRANCH  12  20
BRANCH  13  23
ATOM     23  C   UNL     1       0.175   2.893  23.368  0.00  0.00    +0.106 C 
BRANCH  23  24
ATOM      5  O   UNL     1      -0.490   5.215  23.508  0.00  0.00    -0.276 OA
ATOM      8  N   UNL     1      -1.109   3.742  25.196  0.00  0.00    -0.311 N 
ATOM     24  C   UNL     1      -0.497   4.090  24.000  0.00  0.00    +0.214 C 
ATOM     40  H   UNL     1      -1.039   2.784  25.527  0.00  0.00    +0.149 HD
BRANCH   8  26
ATOM     26  C   UNL     1      -1.826   4.687  26.020  0.00  0.00    +0.139 C 
BRANCH  26  28
ATOM     28  C   UNL     1      -3.313   4.504  25.921  0.00  0.00    -0.030 A 
ATOM     30  C   UNL     1      -4.028   5.136  24.904  0.00  0.00    +0.005 A 
ATOM     31  C   UNL     1      -3.980   3.700  26.846  0.00  0.00    +0.005 A 
ATOM     33  C   UNL     1      -5.409   4.965  24.812  0.00  0.00    +0.000 A 
ATOM     34  C   UNL     1      -5.361   3.530  26.754  0.00  0.00    +0.000 A 
ATOM     36  C   UNL     1      -6.076   4.162  25.737  0.00  0.00    +0.000 A 
ENDBRANCH  26  28
ENDBRANCH   8  26
ENDBRANCH  23  24
ENDBRANCH  13  23
TORSDOF 8
ENDMDL
MODEL 3
REMARK VINA RESULT:      16.1      2.657      4.176
REMARK  Name = 11882868
REMARK  10 active torsions:
REMARK  status: ('A' for Active; 'I' for Inactive)
REMARK    1  A    between atoms: O_3  and  C_15
REMARK    2  A    between atoms: O_4  and  C_20
REMARK    3  A    between atoms: N_8  and  C_26
REMARK    4  A    between atoms: C_10  and  C_18
REMARK    5  A    between atoms: C_12  and  C_20
REMARK    6  A    between atoms: C_12  and  C_21
REMARK    7  A    between atoms: C_13  and  C_23
REMARK    8  A    between atoms: C_23  and  C_24
REMARK    9  A    between atoms: C_26  and  C_28
REMARK   10  A    between atoms: C_27  and  C_29
REMARK                            x       y       z     vdW  Elec       q    Type
REMARK                         _______ _______ _______ _____ _____    ______ ____
ROOT
ATOM      1  S   UNL     1      -0.739  -0.928  24.059  0.00  0.00    -0.057 S 
ATOM      6  O   UNL     1       2.939   1.851  23.715  0.00  0.00    -0.269 OA
ATOM      7  N   UNL     1       0.084   1.520  24.213  0.00  0.00    -0.229 NA
ATOM      9  N   UNL     1       1.739  -0.153  23.687  0.00  0.00    -0.260 N 
ATOM     10  C   UNL     1      -3.596   2.593  24.633  0.00  0.00    -0.019 C 
ATOM     11  C   UNL     1      -3.990   1.235  25.364  0.00  0.00    +0.011 C 
ATOM     12  C   UNL     1      -5.516   1.023  25.704  0.00  0.00    +0.021 C 
ATOM     13  C   UNL     1      -2.018   2.793  24.783  0.00  0.00    +0.054 C 
ATOM     14  C   UNL     1      -4.308   3.780  25.331  0.00  0.00    +0.010 C 
ATOM     15  C   UNL     1      -6.081   2.319  26.352  0.00  0.00    +0.123 C 
ATOM     16  C   UNL     1      -3.325   0.006  24.679  0.00  0.00    +0.049 C 
ATOM     17  C   UNL     1      -5.802   3.572  25.531  0.00  0.00    +0.032 C 
ATOM     18  C   UNL     1      -3.975   2.600  23.131  0.00  0.00    +0.012 C 
ATOM     19  C   UNL     1      -1.277   1.521  24.459  0.00  0.00    +0.058 A 
ATOM     21  C   UNL     1      -5.647  -0.115  26.756  0.00  0.00    +0.016 C 
ATOM     22  C   UNL     1      -1.879   0.280  24.436  0.00  0.00    +0.015 A 
ATOM     25  C   UNL     1       0.474   0.285  23.982  0.00  0.00    +0.165 A 
ATOM     27  C   UNL     1       2.908   0.632  23.566  0.00  0.00    +0.256 C 
ATOM     41  H   UNL     1       1.799  -1.155  23.544  0.00  0.00    +0.157 HD
ENDROOT
BRANCH  27  29
ATOM      2  S   UNL     1       4.363  -1.687  23.825  0.00  0.00    -0.092 S 
ATOM     29  C   UNL     1       4.123  -0.114  23.193  0.00  0.00    +0.074 A 
ATOM     32  C   UNL     1       5.155   0.275  22.367  0.00  0.00    +0.021 A 
ATOM     35  C   UNL     1       6.157  -0.732  22.252  0.00  0.00    +0.008 A 
ATOM     37  C   UNL     1       5.853  -1.851  22.995  0.00  0.00    +0.046 A 
ENDBRANCH  27  29
BRANCH  15   3
ATOM      3  O   UNL     1      -7.490   2.206  26.555  0.00  0.00    -0.391 OA
ATOM     38  H   UNL     1      -7.807   1.466  26.011  0.00  0.00    +0.210 HD
ENDBRANCH  15   3
BRANCH  12  20
ATOM     20  C   UNL     1      -6.385   0.582  24.505  0.00  0.00    +0.165 C 
BRANCH  20   4
ATOM      4  O   UNL     1      -7.324   1.603  24.254  0.00  0.00    -0.394 OA
ATOM     39  H   UNL     1      -7.365   2.161  25.050  0.00  0.00    +0.209 HD
ENDBRANCH  20   4
ENDBRANCH  12  20
BRANCH  13  23
ATOM     23  C   UNL     1      -1.449   3.988  24.005  0.00  0.00    +0.106 C 
BRANCH  23  24
ATOM      5  O   UNL     1      -0.090   5.879  24.661  0.00  0.00    -0.276 OA
ATOM      8  N   UNL     1       0.345   3.786  25.571  0.00  0.00    -0.311 N 
ATOM     24  C   UNL     1      -0.340   4.681  24.762  0.00  0.00    +0.214 C 
ATOM     40  H   UNL     1       0.071   2.807  25.568  0.00  0.00    +0.149 HD
BRANCH   8  26
ATOM     26  C   UNL     1       1.458   4.169  26.408  0.00  0.00    +0.139 C 
BRANCH  26  28
ATOM     28  C   UNL     1       1.516   3.361  27.671  0.00  0.00    -0.030 A 
ATOM     30  C   UNL     1       2.684   3.341  28.434  0.00  0.00    +0.005 A 
ATOM     31  C   UNL     1       0.401   2.631  28.084  0.00  0.00    +0.005 A 
ATOM     33  C   UNL     1       2.738   2.591  29.608  0.00  0.00    +0.000 A 
ATOM     34  C   UNL     1       0.456   1.880  29.259  0.00  0.00    +0.000 A 
ATOM     36  C   UNL     1       1.624   1.861  30.021  0.00  0.00    +0.000 A 
ENDBRANCH  26  28
ENDBRANCH   8  26
ENDBRANCH  23  24
ENDBRANCH  13  23
TORSDOF 8
ENDMDL
