MODEL 1
REMARK VINA RESULT:      10.5      0.000      0.000
REMARK  Name = 25389516
REMARK  8 active torsions:
REMARK  status: ('A' for Active; 'I' for Inactive)
REMARK    1  A    between atoms: O_2  and  C_36
REMARK    2  A    between atoms: O_2  and  C_37
REMARK    3  A    between atoms: N_4  and  C_19
REMARK    4  A    between atoms: N_5  and  C_16
REMARK    5  A    between atoms: N_7  and  C_26
REMARK    6  A    between atoms: C_9  and  C_15
REMARK    7  A    between atoms: C_10  and  C_16
REMARK    8  A    between atoms: C_18  and  C_21
REMARK                            x       y       z     vdW  Elec       q    Type
REMARK                         _______ _______ _______ _____ _____    ______ ____
ROOT
ATOM      3  N   UNL     1      -4.904   2.731  25.581  0.00  0.00    -0.297 NA
ATOM      8  C   UNL     1      -4.739   0.942  23.696  0.00  0.00    +0.002 C 
ATOM      9  C   UNL     1      -3.801   0.574  24.877  0.00  0.00    +0.055 C 
ATOM     10  C   UNL     1      -4.683   3.394  24.269  0.00  0.00    +0.074 C 
ATOM     11  C   UNL     1      -4.377   2.350  23.175  0.00  0.00    +0.024 C 
ATOM     12  C   UNL     1      -6.169   1.026  24.272  0.00  0.00    +0.019 C 
ATOM     13  C   UNL     1      -3.801   1.779  25.861  0.00  0.00    +0.094 C 
ATOM     14  C   UNL     1      -6.169   1.960  25.494  0.00  0.00    +0.085 C 
ENDROOT
BRANCH   9  15
ATOM      4  N   UNL     1      -2.060  -1.227  24.463  0.00  0.00    -0.270 N 
ATOM      6  N   UNL     1      -0.768  -1.442  24.169  0.00  0.00    -0.171 NA
ATOM     15  C   UNL     1      -2.393   0.093  24.554  0.00  0.00    +0.044 A 
ATOM     17  C   UNL     1      -1.237   0.790  24.301  0.00  0.00    +0.053 A 
ATOM     18  C   UNL     1      -0.269  -0.207  24.072  0.00  0.00    +0.093 A 
ATOM     19  C   UNL     1      -2.939  -2.358  24.650  0.00  0.00    +0.172 C 
BRANCH  18  21
ATOM     21  C   UNL     1       1.122  -0.001  23.763  0.00  0.00    +0.003 A 
ATOM     22  C   UNL     1       2.048  -1.016  24.007  0.00  0.00    +0.018 A 
ATOM     23  C   UNL     1       1.543   1.210  23.219  0.00  0.00    +0.011 A 
ATOM     24  C   UNL     1       3.409  -0.832  23.711  0.00  0.00    -0.017 A 
ATOM     25  C   UNL     1       2.890   1.410  22.919  0.00  0.00    +0.009 A 
ATOM     27  C   UNL     1       3.836   0.400  23.159  0.00  0.00    -0.018 A 
ATOM     28  C   UNL     1       4.354  -1.841  23.951  0.00  0.00    +0.008 A 
ATOM     29  C   UNL     1       5.196   0.585  22.862  0.00  0.00    +0.008 A 
ATOM     32  C   UNL     1       5.702  -1.641  23.650  0.00  0.00    +0.001 A 
ATOM     33  C   UNL     1       6.122  -0.430  23.107  0.00  0.00    +0.001 A 
ENDBRANCH  18  21
ENDBRANCH   9  15
BRANCH  10  16
ATOM     16  C   UNL     1      -3.606   4.479  24.339  0.00  0.00    +0.124 C 
BRANCH  16   5
ATOM      1  O   UNL     1      -2.450   4.187  26.944  0.00  0.00    -0.253 OA
ATOM      5  N   UNL     1      -2.330   3.912  24.650  0.00  0.00    -0.298 N 
ATOM      7  N   UNL     1      -0.560   3.209  25.953  0.00  0.00    -0.269 N 
ATOM     20  C   UNL     1      -1.826   3.801  25.958  0.00  0.00    +0.304 C 
ATOM     38  H   UNL     1      -1.755   3.576  23.883  0.00  0.00    +0.150 HD
ATOM     39  H   UNL     1      -0.183   2.947  25.047  0.00  0.00    +0.156 HD
BRANCH   7  26
ATOM     26  C   UNL     1       0.270   2.926  27.063  0.00  0.00    +0.035 A 
ATOM     30  C   UNL     1      -0.284   2.411  28.235  0.00  0.00    +0.027 A 
ATOM     31  C   UNL     1       1.643   3.161  26.986  0.00  0.00    +0.027 A 
ATOM     34  C   UNL     1       0.534   2.131  29.330  0.00  0.00    +0.047 A 
ATOM     35  C   UNL     1       2.461   2.882  28.080  0.00  0.00    +0.047 A 
ATOM     36  C   UNL     1       1.907   2.367  29.252  0.00  0.00    +0.120 A 
BRANCH  36   2
ATOM      2  O   UNL     1       2.705   2.094  30.321  0.00  0.00    -0.495 OA
ATOM     37  C   UNL     1       2.059   1.684  31.524  0.00  0.00    +0.277 C 
ENDBRANCH  36   2
ENDBRANCH   7  26
ENDBRANCH  16   5
ENDBRANCH  10  16
TORSDOF 6
ENDMDL
MODEL 2
REMARK VINA RESULT:      13.9      2.957      4.417
REMARK  Name = 25389516
REMARK  8 active torsions:
REMARK  status: ('A' for Active; 'I' for Inactive)
REMARK    1  A    between atoms: O_2  and  C_36
REMARK    2  A    between atoms: O_2  and  C_37
REMARK    3  A    between atoms: N_4  and  C_19
REMARK    4  A    between atoms: N_5  and  C_16
REMARK    5  A    between atoms: N_7  and  C_26
REMARK    6  A    between atoms: C_9  and  C_15
REMARK    7  A    between atoms: C_10  and  C_16
REMARK    8  A    between atoms: C_18  and  C_21
REMARK                            x       y       z     vdW  Elec       q    Type
REMARK                         _______ _______ _______ _____ _____    ______ ____
ROOT
ATOM      3  N   UNL     1      -5.645   4.589  24.930  0.00  0.00    -0.297 NA
ATOM      8  C   UNL     1      -3.494   3.977  26.264  0.00  0.00    +0.002 C 
ATOM      9  C   UNL     1      -3.163   4.174  24.760  0.00  0.00    +0.055 C 
ATOM     10  C   UNL     1      -5.894   3.391  25.772  0.00  0.00    +0.074 C 
ATOM     11  C   UNL     1      -4.581   2.890  26.409  0.00  0.00    +0.024 C 
ATOM     12  C   UNL     1      -4.110   5.302  26.761  0.00  0.00    +0.019 C 
ATOM     13  C   UNL     1      -4.513   4.334  24.005  0.00  0.00    +0.094 C 
ATOM     14  C   UNL     1      -5.264   5.706  25.829  0.00  0.00    +0.085 C 
ENDROOT
BRANCH   9  15
ATOM      4  N   UNL     1      -2.548   2.548  22.909  0.00  0.00    -0.270 N 
ATOM      6  N   UNL     1      -1.605   1.692  22.483  0.00  0.00    -0.171 NA
ATOM     15  C   UNL     1      -2.243   3.164  24.088  0.00  0.00    +0.044 A 
ATOM     17  C   UNL     1      -1.014   2.676  24.458  0.00  0.00    +0.053 A 
ATOM     18  C   UNL     1      -0.670   1.774  23.434  0.00  0.00    +0.093 A 
ATOM     19  C   UNL     1      -3.745   2.729  22.120  0.00  0.00    +0.172 C 
BRANCH  18  21
ATOM     21  C   UNL     1       0.533   0.988  23.347  0.00  0.00    +0.003 A 
ATOM     22  C   UNL     1       1.779   1.605  23.472  0.00  0.00    +0.018 A 
ATOM     23  C   UNL     1       0.455  -0.386  23.138  0.00  0.00    +0.011 A 
ATOM     24  C   UNL     1       2.963   0.854  23.390  0.00  0.00    -0.017 A 
ATOM     25  C   UNL     1       1.621  -1.147  23.054  0.00  0.00    +0.009 A 
ATOM     27  C   UNL     1       2.882  -0.543  23.177  0.00  0.00    -0.018 A 
ATOM     28  C   UNL     1       4.224   1.458  23.514  0.00  0.00    +0.008 A 
ATOM     29  C   UNL     1       4.066  -1.295  23.095  0.00  0.00    +0.008 A 
ATOM     32  C   UNL     1       5.390   0.696  23.430  0.00  0.00    +0.001 A 
ATOM     33  C   UNL     1       5.311  -0.678  23.221  0.00  0.00    +0.001 A 
ENDBRANCH  18  21
ENDBRANCH   9  15
BRANCH  10  16
ATOM     16  C   UNL     1      -6.616   2.281  25.007  0.00  0.00    +0.124 C 
BRANCH  16   5
ATOM      1  O   UNL     1      -4.703   0.576  26.288  0.00  0.00    -0.253 OA
ATOM      5  N   UNL     1      -5.679   1.411  24.364  0.00  0.00    -0.298 N 
ATOM      7  N   UNL     1      -3.980  -0.138  24.172  0.00  0.00    -0.269 N 
ATOM     20  C   UNL     1      -4.766   0.600  25.061  0.00  0.00    +0.304 C 
ATOM     38  H   UNL     1      -5.670   1.382  23.349  0.00  0.00    +0.150 HD
ATOM     39  H   UNL     1      -4.160  -0.001  23.182  0.00  0.00    +0.156 HD
BRANCH   7  26
ATOM     26  C   UNL     1      -2.955  -1.062  24.482  0.00  0.00    +0.035 A 
ATOM     30  C   UNL     1      -1.942  -0.708  25.374  0.00  0.00    +0.027 A 
ATOM     31  C   UNL     1      -2.956  -2.329  23.897  0.00  0.00    +0.027 A 
ATOM     34  C   UNL     1      -0.932  -1.618  25.681  0.00  0.00    +0.047 A 
ATOM     35  C   UNL     1      -1.945  -3.239  24.203  0.00  0.00    +0.047 A 
ATOM     36  C   UNL     1      -0.932  -2.885  25.095  0.00  0.00    +0.120 A 
BRANCH  36   2
ATOM      2  O   UNL     1       0.054  -3.773  25.394  0.00  0.00    -0.495 OA
ATOM     37  C   UNL     1       1.336  -3.235  25.716  0.00  0.00    +0.277 C 
ENDBRANCH  36   2
ENDBRANCH   7  26
ENDBRANCH  16   5
ENDBRANCH  10  16
TORSDOF 6
ENDMDL
