MODEL 1
REMARK VINA RESULT:      -2.3      0.000      0.000
REMARK  Name = 75368706
REMARK  7 active torsions:
REMARK  status: ('A' for Active; 'I' for Inactive)
REMARK    1  A    between atoms: O_2  and  C_16
REMARK    2  A    between atoms: O_2  and  C_25
REMARK    3  A    between atoms: N_4  and  C_13
REMARK    4  A    between atoms: N_5  and  C_14
REMARK    5  A    between atoms: N_6  and  C_22
REMARK    6  A    between atoms: C_13  and  C_15
REMARK    7  A    between atoms: C_14  and  C_16
REMARK                            x       y       z     vdW  Elec       q    Type
REMARK                         _______ _______ _______ _____ _____    ______ ____
ROOT
ATOM      1  O   UNL     1       1.287  -1.041  22.252  0.00  0.00    -0.252 OA
ATOM      3  N   UNL     1      -0.230  -0.785  24.028  0.00  0.00    -0.278 N 
ATOM      4  N   UNL     1      -2.677  -0.809  25.412  0.00  0.00    -0.295 NA
ATOM      5  N   UNL     1       1.286   0.835  23.681  0.00  0.00    -0.281 N 
ATOM      7  C   UNL     1      -0.421   0.133  25.130  0.00  0.00    +0.109 C 
ATOM      8  C   UNL     1      -1.907   0.447  25.309  0.00  0.00    +0.109 C 
ATOM      9  C   UNL     1       0.447   1.332  24.758  0.00  0.00    +0.133 C 
ATOM     10  C   UNL     1      -1.044  -1.981  23.950  0.00  0.00    +0.125 C 
ATOM     11  C   UNL     1      -2.514  -1.630  24.195  0.00  0.00    +0.104 C 
ATOM     12  C   UNL     1       0.840  -0.413  23.202  0.00  0.00    +0.305 C 
ENDROOT
BRANCH   4  13
ATOM     13  C   UNL     1      -4.093  -0.521  25.644  0.00  0.00    +0.121 C 
BRANCH  13  15
ATOM      6  N   UNL     1      -5.349   2.921  25.294  0.00  0.00    -0.349 N 
ATOM     15  C   UNL     1      -4.446   0.893  25.263  0.00  0.00    -0.008 A 
ATOM     17  C   UNL     1      -3.976   1.606  24.125  0.00  0.00    +0.004 A 
ATOM     18  C   UNL     1      -5.289   1.727  25.962  0.00  0.00    +0.091 A 
ATOM     19  C   UNL     1      -4.557   2.875  24.169  0.00  0.00    +0.049 A 
ATOM     20  C   UNL     1      -3.109   1.293  23.060  0.00  0.00    +0.010 A 
ATOM     21  C   UNL     1      -4.313   3.851  23.196  0.00  0.00    +0.026 A 
ATOM     22  C   UNL     1      -6.136   4.056  25.723  0.00  0.00    +0.149 C 
ATOM     23  C   UNL     1      -2.855   2.260  22.079  0.00  0.00    +0.001 A 
ATOM     24  C   UNL     1      -3.450   3.518  22.148  0.00  0.00    +0.002 A 
ENDBRANCH  13  15
ENDBRANCH   4  13
BRANCH   5  14
ATOM     14  C   UNL     1       2.344   1.633  23.103  0.00  0.00    +0.137 C 
BRANCH  14  16
ATOM     16  C   UNL     1       3.517   0.773  22.668  0.00  0.00    +0.178 C 
BRANCH  16   2
ATOM      2  O   UNL     1       4.620   1.004  23.534  0.00  0.00    -0.381 OA
ATOM     25  C   UNL     1       5.439  -0.150  23.654  0.00  0.00    +0.194 C 
ENDBRANCH  16   2
ENDBRANCH  14  16
ENDBRANCH   5  14
TORSDOF 5
ENDMDL
MODEL 2
REMARK VINA RESULT:      -1.5      1.611      2.011
REMARK  Name = 75368706
REMARK  7 active torsions:
REMARK  status: ('A' for Active; 'I' for Inactive)
REMARK    1  A    between atoms: O_2  and  C_16
REMARK    2  A    between atoms: O_2  and  C_25
REMARK    3  A    between atoms: N_4  and  C_13
REMARK    4  A    between atoms: N_5  and  C_14
REMARK    5  A    between atoms: N_6  and  C_22
REMARK    6  A    between atoms: C_13  and  C_15
REMARK    7  A    between atoms: C_14  and  C_16
REMARK                            x       y       z     vdW  Elec       q    Type
REMARK                         _______ _______ _______ _____ _____    ______ ____
ROOT
ATOM      1  O   UNL     1       2.923  -1.766  23.469  0.00  0.00    -0.252 OA
ATOM      3  N   UNL     1       0.948  -0.616  24.017  0.00  0.00    -0.278 N 
ATOM      4  N   UNL     1      -1.805  -0.106  24.275  0.00  0.00    -0.295 NA
ATOM      5  N   UNL     1       2.603   0.528  23.020  0.00  0.00    -0.281 N 
ATOM      7  C   UNL     1       0.485   0.755  24.004  0.00  0.00    +0.109 C 
ATOM      8  C   UNL     1      -0.957   0.824  23.502  0.00  0.00    +0.109 C 
ATOM      9  C   UNL     1       1.506   1.474  23.126  0.00  0.00    +0.133 C 
ATOM     10  C   UNL     1       0.120  -1.640  24.621  0.00  0.00    +0.125 C 
ATOM     11  C   UNL     1      -1.325  -1.496  24.137  0.00  0.00    +0.104 C 
ATOM     12  C   UNL     1       2.245  -0.748  23.502  0.00  0.00    +0.305 C 
ENDROOT
BRANCH   4  13
ATOM     13  C   UNL     1      -3.199  -0.003  23.843  0.00  0.00    +0.121 C 
BRANCH  13  15
ATOM      6  N   UNL     1      -5.558   2.051  25.781  0.00  0.00    -0.349 N 
ATOM     15  C   UNL     1      -3.955   1.034  24.631  0.00  0.00    -0.008 A 
ATOM     17  C   UNL     1      -3.486   2.326  24.999  0.00  0.00    +0.004 A 
ATOM     18  C   UNL     1      -5.231   0.895  25.126  0.00  0.00    +0.091 A 
ATOM     19  C   UNL     1      -4.511   2.943  25.719  0.00  0.00    +0.049 A 
ATOM     20  C   UNL     1      -2.285   3.031  24.788  0.00  0.00    +0.010 A 
ATOM     21  C   UNL     1      -4.394   4.237  26.242  0.00  0.00    +0.026 A 
ATOM     22  C   UNL     1      -6.825   2.287  26.437  0.00  0.00    +0.149 C 
ATOM     23  C   UNL     1      -2.154   4.326  25.305  0.00  0.00    +0.001 A 
ATOM     24  C   UNL     1      -3.193   4.917  26.020  0.00  0.00    +0.002 A 
ENDBRANCH  13  15
ENDBRANCH   4  13
BRANCH   5  14
ATOM     14  C   UNL     1       3.841   0.861  22.350  0.00  0.00    +0.137 C 
BRANCH  14  16
ATOM     16  C   UNL     1       4.992   0.979  23.333  0.00  0.00    +0.178 C 
BRANCH  16   2
ATOM      2  O   UNL     1       5.839  -0.155  23.208  0.00  0.00    -0.381 OA
ATOM     25  C   UNL     1       5.820  -0.953  24.383  0.00  0.00    +0.194 C 
ENDBRANCH  16   2
ENDBRANCH  14  16
ENDBRANCH   5  14
TORSDOF 5
ENDMDL
MODEL 3
REMARK VINA RESULT:      -0.9      1.765      2.777
REMARK  Name = 75368706
REMARK  7 active torsions:
REMARK  status: ('A' for Active; 'I' for Inactive)
REMARK    1  A    between atoms: O_2  and  C_16
REMARK    2  A    between atoms: O_2  and  C_25
REMARK    3  A    between atoms: N_4  and  C_13
REMARK    4  A    between atoms: N_5  and  C_14
REMARK    5  A    between atoms: N_6  and  C_22
REMARK    6  A    between atoms: C_13  and  C_15
REMARK    7  A    between atoms: C_14  and  C_16
REMARK                            x       y       z     vdW  Elec       q    Type
REMARK                         _______ _______ _______ _____ _____    ______ ____
ROOT
ATOM      1  O   UNL     1       1.312  -0.679  21.125  0.00  0.00    -0.252 OA
ATOM      3  N   UNL     1       0.515   0.583  22.939  0.00  0.00    -0.278 N 
ATOM      4  N   UNL     1      -1.030   2.458  24.354  0.00  0.00    -0.295 NA
ATOM      5  N   UNL     1       2.735   0.328  22.714  0.00  0.00    -0.281 N 
ATOM      7  C   UNL     1       1.074   1.204  24.121  0.00  0.00    +0.109 C 
ATOM      8  C   UNL     1       0.442   2.577  24.350  0.00  0.00    +0.109 C 
ATOM      9  C   UNL     1       2.575   1.227  23.843  0.00  0.00    +0.133 C 
ATOM     10  C   UNL     1      -0.923   0.547  22.769  0.00  0.00    +0.125 C 
ATOM     11  C   UNL     1      -1.520   1.924  23.067  0.00  0.00    +0.104 C 
ATOM     12  C   UNL     1       1.496  -0.011  22.133  0.00  0.00    +0.305 C 
ENDROOT
BRANCH   4  13
ATOM     13  C   UNL     1      -1.645   3.756  24.633  0.00  0.00    +0.121 C 
BRANCH  13  15
ATOM      6  N   UNL     1      -5.235   4.150  25.337  0.00  0.00    -0.349 N 
ATOM     15  C   UNL     1      -3.119   3.631  24.911  0.00  0.00    -0.008 A 
ATOM     17  C   UNL     1      -3.863   2.421  25.003  0.00  0.00    +0.004 A 
ATOM     18  C   UNL     1      -3.990   4.676  25.120  0.00  0.00    +0.091 A 
ATOM     19  C   UNL     1      -5.188   2.775  25.271  0.00  0.00    +0.049 A 
ATOM     20  C   UNL     1      -3.537   1.056  24.884  0.00  0.00    +0.010 A 
ATOM     21  C   UNL     1      -6.206   1.827  25.426  0.00  0.00    +0.026 A 
ATOM     22  C   UNL     1      -6.420   4.938  25.596  0.00  0.00    +0.149 C 
ATOM     23  C   UNL     1      -4.545   0.097  25.037  0.00  0.00    +0.001 A 
ATOM     24  C   UNL     1      -5.858   0.479  25.304  0.00  0.00    +0.002 A 
ENDBRANCH  13  15
ENDBRANCH   4  13
BRANCH   5  14
ATOM     14  C   UNL     1       4.037  -0.023  22.191  0.00  0.00    +0.137 C 
BRANCH  14  16
ATOM     16  C   UNL     1       5.152   0.472  23.094  0.00  0.00    +0.178 C 
BRANCH  16   2
ATOM      2  O   UNL     1       5.627  -0.604  23.892  0.00  0.00    -0.381 OA
ATOM     25  C   UNL     1       4.716  -1.693  23.895  0.00  0.00    +0.194 C 
ENDBRANCH  16   2
ENDBRANCH  14  16
ENDBRANCH   5  14
TORSDOF 5
ENDMDL
MODEL 4
REMARK VINA RESULT:      -0.7      3.236      6.986
REMARK  Name = 75368706
REMARK  7 active torsions:
REMARK  status: ('A' for Active; 'I' for Inactive)
REMARK    1  A    between atoms: O_2  and  C_16
REMARK    2  A    between atoms: O_2  and  C_25
REMARK    3  A    between atoms: N_4  and  C_13
REMARK    4  A    between atoms: N_5  and  C_14
REMARK    5  A    between atoms: N_6  and  C_22
REMARK    6  A    between atoms: C_13  and  C_15
REMARK    7  A    between atoms: C_14  and  C_16
REMARK                            x       y       z     vdW  Elec       q    Type
REMARK                         _______ _______ _______ _____ _____    ______ ____
ROOT
ATOM      1  O   UNL     1      -4.437   5.105  23.479  0.00  0.00    -0.252 OA
ATOM      3  N   UNL     1      -2.673   4.445  24.884  0.00  0.00    -0.278 N 
ATOM      4  N   UNL     1      -0.186   3.379  25.648  0.00  0.00    -0.295 NA
ATOM      5  N   UNL     1      -4.773   3.962  25.514  0.00  0.00    -0.281 N 
ATOM      7  C   UNL     1      -2.533   3.869  26.204  0.00  0.00    +0.109 C 
ATOM      8  C   UNL     1      -1.429   2.811  26.208  0.00  0.00    +0.109 C 
ATOM      9  C   UNL     1      -3.930   3.339  26.519  0.00  0.00    +0.133 C 
ATOM     10  C   UNL     1      -1.492   4.898  24.178  0.00  0.00    +0.125 C 
ATOM     11  C   UNL     1      -0.394   3.836  24.259  0.00  0.00    +0.104 C 
ATOM     12  C   UNL     1      -4.014   4.575  24.498  0.00  0.00    +0.305 C 
ENDROOT
BRANCH   4  13
ATOM     13  C   UNL     1       0.894   2.394  25.704  0.00  0.00    +0.121 C 
BRANCH  13  15
ATOM      6  N   UNL     1       0.851  -0.080  22.980  0.00  0.00    -0.349 N 
ATOM     15  C   UNL     1       0.667   1.258  24.742  0.00  0.00    -0.008 A 
ATOM     17  C   UNL     1      -0.282   0.208  24.881  0.00  0.00    +0.004 A 
ATOM     18  C   UNL     1       1.348   1.054  23.563  0.00  0.00    +0.091 A 
ATOM     19  C   UNL     1      -0.146  -0.618  23.763  0.00  0.00    +0.049 A 
ATOM     20  C   UNL     1      -1.247  -0.121  25.854  0.00  0.00    +0.010 A 
ATOM     21  C   UNL     1      -0.930  -1.762  23.568  0.00  0.00    +0.026 A 
ATOM     22  C   UNL     1       1.316  -0.622  21.722  0.00  0.00    +0.149 C 
ATOM     23  C   UNL     1      -2.038  -1.262  25.672  0.00  0.00    +0.001 A 
ATOM     24  C   UNL     1      -1.880  -2.068  24.547  0.00  0.00    +0.002 A 
ENDBRANCH  13  15
ENDBRANCH   4  13
BRANCH   5  14
ATOM     14  C   UNL     1      -6.212   3.809  25.519  0.00  0.00    +0.137 C 
BRANCH  14  16
ATOM     16  C   UNL     1      -6.618   2.356  25.695  0.00  0.00    +0.178 C 
BRANCH  16   2
ATOM      2  O   UNL     1      -6.166   1.601  24.580  0.00  0.00    -0.381 OA
ATOM     25  C   UNL     1      -5.113   0.717  24.939  0.00  0.00    +0.194 C 
ENDBRANCH  16   2
ENDBRANCH  14  16
ENDBRANCH   5  14
TORSDOF 5
ENDMDL
MODEL 5
REMARK VINA RESULT:      -0.2      2.708      5.171
REMARK  Name = 75368706
REMARK  7 active torsions:
REMARK  status: ('A' for Active; 'I' for Inactive)
REMARK    1  A    between atoms: O_2  and  C_16
REMARK    2  A    between atoms: O_2  and  C_25
REMARK    3  A    between atoms: N_4  and  C_13
REMARK    4  A    between atoms: N_5  and  C_14
REMARK    5  A    between atoms: N_6  and  C_22
REMARK    6  A    between atoms: C_13  and  C_15
REMARK    7  A    between atoms: C_14  and  C_16
REMARK                            x       y       z     vdW  Elec       q    Type
REMARK                         _______ _______ _______ _____ _____    ______ ____
ROOT
ATOM      1  O   UNL     1      -0.083   3.888  22.877  0.00  0.00    -0.252 OA
ATOM      3  N   UNL     1       0.113   2.030  24.301  0.00  0.00    -0.278 N 
ATOM      4  N   UNL     1      -0.016  -0.645  25.156  0.00  0.00    -0.295 NA
ATOM      5  N   UNL     1      -0.774   3.918  25.132  0.00  0.00    -0.281 N 
ATOM      7  C   UNL     1      -0.081   1.752  25.708  0.00  0.00    +0.109 C 
ATOM      8  C   UNL     1      -0.761   0.395  25.894  0.00  0.00    +0.109 C 
ATOM      9  C   UNL     1      -0.889   2.948  26.206  0.00  0.00    +0.133 C 
ATOM     10  C   UNL     1       0.700   1.015  23.451  0.00  0.00    +0.125 C 
ATOM     11  C   UNL     1       0.031  -0.337  23.713  0.00  0.00    +0.104 C 
ATOM     12  C   UNL     1      -0.226   3.348  23.966  0.00  0.00    +0.305 C 
ENDROOT
BRANCH   4  13
ATOM     13  C   UNL     1      -0.624  -1.958  25.377  0.00  0.00    +0.121 C 
BRANCH  13  15
ATOM      6  N   UNL     1      -3.850  -2.776  23.807  0.00  0.00    -0.349 N 
ATOM     15  C   UNL     1      -2.021  -2.030  24.820  0.00  0.00    -0.008 A 
ATOM     17  C   UNL     1      -3.014  -1.013  24.891  0.00  0.00    +0.004 A 
ATOM     18  C   UNL     1      -2.565  -3.101  24.147  0.00  0.00    +0.091 A 
ATOM     19  C   UNL     1      -4.151  -1.507  24.248  0.00  0.00    +0.049 A 
ATOM     20  C   UNL     1      -3.054   0.282  25.442  0.00  0.00    +0.010 A 
ATOM     21  C   UNL     1      -5.333  -0.766  24.129  0.00  0.00    +0.026 A 
ATOM     22  C   UNL     1      -4.749  -3.651  23.087  0.00  0.00    +0.149 C 
ATOM     23  C   UNL     1      -4.230   1.036  25.330  0.00  0.00    +0.001 A 
ATOM     24  C   UNL     1      -5.349   0.518  24.683  0.00  0.00    +0.002 A 
ENDBRANCH  13  15
ENDBRANCH   4  13
BRANCH   5  14
ATOM     14  C   UNL     1      -1.314   5.255  25.245  0.00  0.00    +0.137 C 
BRANCH  14  16
ATOM     16  C   UNL     1      -2.773   5.234  25.663  0.00  0.00    +0.178 C 
BRANCH  16   2
ATOM      2  O   UNL     1      -3.498   4.366  24.803  0.00  0.00    -0.381 OA
ATOM     25  C   UNL     1      -4.811   4.125  25.291  0.00  0.00    +0.194 C 
ENDBRANCH  16   2
ENDBRANCH  14  16
ENDBRANCH   5  14
TORSDOF 5
ENDMDL
MODEL 6
REMARK VINA RESULT:      -0.2      1.811      2.799
REMARK  Name = 75368706
REMARK  7 active torsions:
REMARK  status: ('A' for Active; 'I' for Inactive)
REMARK    1  A    between atoms: O_2  and  C_16
REMARK    2  A    between atoms: O_2  and  C_25
REMARK    3  A    between atoms: N_4  and  C_13
REMARK    4  A    between atoms: N_5  and  C_14
REMARK    5  A    between atoms: N_6  and  C_22
REMARK    6  A    between atoms: C_13  and  C_15
REMARK    7  A    between atoms: C_14  and  C_16
REMARK                            x       y       z     vdW  Elec       q    Type
REMARK                         _______ _______ _______ _____ _____    ______ ____
ROOT
ATOM      1  O   UNL     1       3.404   2.033  23.154  0.00  0.00    -0.252 OA
ATOM      3  N   UNL     1       1.309   0.976  23.271  0.00  0.00    -0.278 N 
ATOM      4  N   UNL     1      -1.254   0.332  24.230  0.00  0.00    -0.295 NA
ATOM      5  N   UNL     1       3.115  -0.287  22.843  0.00  0.00    -0.281 N 
ATOM      7  C   UNL     1       0.776  -0.345  23.015  0.00  0.00    +0.109 C 
ATOM      8  C   UNL     1      -0.236  -0.728  24.095  0.00  0.00    +0.109 C 
ATOM      9  C   UNL     1       2.017  -1.231  22.955  0.00  0.00    +0.133 C 
ATOM     10  C   UNL     1       0.399   2.064  23.566  0.00  0.00    +0.125 C 
ATOM     11  C   UNL     1      -0.631   1.617  24.606  0.00  0.00    +0.104 C 
ATOM     12  C   UNL     1       2.698   1.036  23.093  0.00  0.00    +0.305 C 
ENDROOT
BRANCH   4  13
ATOM     13  C   UNL     1      -2.262  -0.053  25.219  0.00  0.00    +0.121 C 
BRANCH  13  15
ATOM      6  N   UNL     1      -5.553   1.562  24.901  0.00  0.00    -0.349 N 
ATOM     15  C   UNL     1      -3.469   0.846  25.168  0.00  0.00    -0.008 A 
ATOM     17  C   UNL     1      -3.502   2.237  25.464  0.00  0.00    +0.004 A 
ATOM     18  C   UNL     1      -4.745   0.460  24.826  0.00  0.00    +0.091 A 
ATOM     19  C   UNL     1      -4.821   2.662  25.288  0.00  0.00    +0.049 A 
ATOM     20  C   UNL     1      -2.534   3.179  25.865  0.00  0.00    +0.010 A 
ATOM     21  C   UNL     1      -5.221   3.987  25.495  0.00  0.00    +0.026 A 
ATOM     22  C   UNL     1      -6.970   1.556  24.612  0.00  0.00    +0.149 C 
ATOM     23  C   UNL     1      -2.920   4.508  26.075  0.00  0.00    +0.001 A 
ATOM     24  C   UNL     1      -4.243   4.904  25.893  0.00  0.00    +0.002 A 
ENDBRANCH  13  15
ENDBRANCH   4  13
BRANCH   5  14
ATOM     14  C   UNL     1       4.482  -0.719  22.648  0.00  0.00    +0.137 C 
BRANCH  14  16
ATOM     16  C   UNL     1       5.004  -1.476  23.856  0.00  0.00    +0.178 C 
BRANCH  16   2
ATOM      2  O   UNL     1       5.652  -0.570  24.738  0.00  0.00    -0.381 OA
ATOM     25  C   UNL     1       6.123   0.580  24.050  0.00  0.00    +0.194 C 
ENDBRANCH  16   2
ENDBRANCH  14  16
ENDBRANCH   5  14
TORSDOF 5
ENDMDL
MODEL 7
REMARK VINA RESULT:      -0.0      2.687      5.294
REMARK  Name = 75368706
REMARK  7 active torsions:
REMARK  status: ('A' for Active; 'I' for Inactive)
REMARK    1  A    between atoms: O_2  and  C_16
REMARK    2  A    between atoms: O_2  and  C_25
REMARK    3  A    between atoms: N_4  and  C_13
REMARK    4  A    between atoms: N_5  and  C_14
REMARK    5  A    between atoms: N_6  and  C_22
REMARK    6  A    between atoms: C_13  and  C_15
REMARK    7  A    between atoms: C_14  and  C_16
REMARK                            x       y       z     vdW  Elec       q    Type
REMARK                         _______ _______ _______ _____ _____    ______ ____
ROOT
ATOM      1  O   UNL     1      -2.934   4.944  26.528  0.00  0.00    -0.252 OA
ATOM      3  N   UNL     1      -3.946   3.307  25.182  0.00  0.00    -0.278 N 
ATOM      4  N   UNL     1      -5.370   0.979  24.506  0.00  0.00    -0.295 NA
ATOM      5  N   UNL     1      -1.899   4.035  24.614  0.00  0.00    -0.281 N 
ATOM      7  C   UNL     1      -3.665   2.654  23.921  0.00  0.00    +0.109 C 
ATOM      8  C   UNL     1      -3.991   1.163  24.011  0.00  0.00    +0.109 C 
ATOM      9  C   UNL     1      -2.194   2.974  23.667  0.00  0.00    +0.133 C 
ATOM     10  C   UNL     1      -5.218   3.074  25.834  0.00  0.00    +0.125 C 
ATOM     11  C   UNL     1      -5.533   1.576  25.847  0.00  0.00    +0.104 C 
ATOM     12  C   UNL     1      -2.930   4.193  25.562  0.00  0.00    +0.305 C 
ENDROOT
BRANCH   4  13
ATOM     13  C   UNL     1      -5.714  -0.443  24.538  0.00  0.00    +0.121 C 
BRANCH  13  15
ATOM      6  N   UNL     1      -3.161  -2.960  23.709  0.00  0.00    -0.349 N 
ATOM     15  C   UNL     1      -4.500  -1.318  24.370  0.00  0.00    -0.008 A 
ATOM     17  C   UNL     1      -3.226  -1.122  24.973  0.00  0.00    +0.004 A 
ATOM     18  C   UNL     1      -4.428  -2.455  23.599  0.00  0.00    +0.091 A 
ATOM     19  C   UNL     1      -2.405  -2.166  24.542  0.00  0.00    +0.049 A 
ATOM     20  C   UNL     1      -2.691  -0.154  25.847  0.00  0.00    +0.010 A 
ATOM     21  C   UNL     1      -1.069  -2.291  24.942  0.00  0.00    +0.026 A 
ATOM     22  C   UNL     1      -2.698  -4.156  23.040  0.00  0.00    +0.149 C 
ATOM     23  C   UNL     1      -1.357  -0.267  26.256  0.00  0.00    +0.001 A 
ATOM     24  C   UNL     1      -0.561  -1.319  25.809  0.00  0.00    +0.002 A 
ENDBRANCH  13  15
ENDBRANCH   4  13
BRANCH   5  14
ATOM     14  C   UNL     1      -0.622   4.713  24.633  0.00  0.00    +0.137 C 
BRANCH  14  16
ATOM     16  C   UNL     1       0.490   3.822  24.107  0.00  0.00    +0.178 C 
BRANCH  16   2
ATOM      2  O   UNL     1       0.518   2.612  24.852  0.00  0.00    -0.381 OA
ATOM     25  C   UNL     1       0.918   1.513  24.046  0.00  0.00    +0.194 C 
ENDBRANCH  16   2
ENDBRANCH  14  16
ENDBRANCH   5  14
TORSDOF 5
ENDMDL
MODEL 8
REMARK VINA RESULT:       0.1      2.153      3.120
REMARK  Name = 75368706
REMARK  7 active torsions:
REMARK  status: ('A' for Active; 'I' for Inactive)
REMARK    1  A    between atoms: O_2  and  C_16
REMARK    2  A    between atoms: O_2  and  C_25
REMARK    3  A    between atoms: N_4  and  C_13
REMARK    4  A    between atoms: N_5  and  C_14
REMARK    5  A    between atoms: N_6  and  C_22
REMARK    6  A    between atoms: C_13  and  C_15
REMARK    7  A    between atoms: C_14  and  C_16
REMARK                            x       y       z     vdW  Elec       q    Type
REMARK                         _______ _______ _______ _____ _____    ______ ____
ROOT
ATOM      1  O   UNL     1      -1.620  -3.408  23.456  0.00  0.00    -0.252 OA
ATOM      3  N   UNL     1      -2.987  -1.872  24.592  0.00  0.00    -0.278 N 
ATOM      4  N   UNL     1      -4.861   0.189  24.977  0.00  0.00    -0.295 NA
ATOM      5  N   UNL     1      -0.866  -2.124  25.285  0.00  0.00    -0.281 N 
ATOM      7  C   UNL     1      -2.893  -1.052  25.781  0.00  0.00    +0.109 C 
ATOM      8  C   UNL     1      -3.495   0.330  25.523  0.00  0.00    +0.109 C 
ATOM      9  C   UNL     1      -1.400  -1.050  26.103  0.00  0.00    +0.133 C 
ATOM     10  C   UNL     1      -4.250  -1.960  23.889  0.00  0.00    +0.125 C 
ATOM     11  C   UNL     1      -4.846  -0.562  23.706  0.00  0.00    +0.104 C 
ATOM     12  C   UNL     1      -1.803  -2.577  24.335  0.00  0.00    +0.305 C 
ENDROOT
BRANCH   4  13
ATOM     13  C   UNL     1      -5.469   1.505  24.783  0.00  0.00    +0.121 C 
BRANCH  13  15
ATOM      6  N   UNL     1      -3.676   4.455  26.058  0.00  0.00    -0.349 N 
ATOM     15  C   UNL     1      -4.521   2.619  25.139  0.00  0.00    -0.008 A 
ATOM     17  C   UNL     1      -3.196   2.792  24.650  0.00  0.00    +0.004 A 
ATOM     18  C   UNL     1      -4.787   3.657  26.002  0.00  0.00    +0.091 A 
ATOM     19  C   UNL     1      -2.688   3.951  25.242  0.00  0.00    +0.049 A 
ATOM     20  C   UNL     1      -2.377   2.071  23.758  0.00  0.00    +0.010 A 
ATOM     21  C   UNL     1      -1.397   4.427  24.985  0.00  0.00    +0.026 A 
ATOM     22  C   UNL     1      -3.571   5.652  26.863  0.00  0.00    +0.149 C 
ATOM     23  C   UNL     1      -1.083   2.536  23.492  0.00  0.00    +0.001 A 
ATOM     24  C   UNL     1      -0.603   3.695  24.097  0.00  0.00    +0.002 A 
ENDBRANCH  13  15
ENDBRANCH   4  13
BRANCH   5  14
ATOM     14  C   UNL     1       0.518  -2.537  25.370  0.00  0.00    +0.137 C 
BRANCH  14  16
ATOM     16  C   UNL     1       1.413  -1.672  24.501  0.00  0.00    +0.178 C 
BRANCH  16   2
ATOM      2  O   UNL     1       0.617  -0.729  23.796  0.00  0.00    -0.381 OA
ATOM     25  C   UNL     1       1.326  -0.162  22.703  0.00  0.00    +0.194 C 
ENDBRANCH  16   2
ENDBRANCH  14  16
ENDBRANCH   5  14
TORSDOF 5
ENDMDL
MODEL 9
REMARK VINA RESULT:       0.2      2.745      6.277
REMARK  Name = 75368706
REMARK  7 active torsions:
REMARK  status: ('A' for Active; 'I' for Inactive)
REMARK    1  A    between atoms: O_2  and  C_16
REMARK    2  A    between atoms: O_2  and  C_25
REMARK    3  A    between atoms: N_4  and  C_13
REMARK    4  A    between atoms: N_5  and  C_14
REMARK    5  A    between atoms: N_6  and  C_22
REMARK    6  A    between atoms: C_13  and  C_15
REMARK    7  A    between atoms: C_14  and  C_16
REMARK                            x       y       z     vdW  Elec       q    Type
REMARK                         _______ _______ _______ _____ _____    ______ ____
ROOT
ATOM      1  O   UNL     1      -6.123   1.822  26.786  0.00  0.00    -0.252 OA
ATOM      3  N   UNL     1      -4.843   0.567  25.267  0.00  0.00    -0.278 N 
ATOM      4  N   UNL     1      -2.938  -1.283  24.343  0.00  0.00    -0.295 NA
ATOM      5  N   UNL     1      -5.137   2.755  24.857  0.00  0.00    -0.281 N 
ATOM      7  C   UNL     1      -4.229   0.779  23.974  0.00  0.00    +0.109 C 
ATOM      8  C   UNL     1      -2.845   0.132  23.930  0.00  0.00    +0.109 C 
ATOM      9  C   UNL     1      -4.232   2.298  23.817  0.00  0.00    +0.133 C 
ATOM     10  C   UNL     1      -4.855  -0.765  25.837  0.00  0.00    +0.125 C 
ATOM     11  C   UNL     1      -3.466  -1.398  25.717  0.00  0.00    +0.104 C 
ATOM     12  C   UNL     1      -5.456   1.725  25.765  0.00  0.00    +0.305 C 
ENDROOT
BRANCH   4  13
ATOM     13  C   UNL     1      -1.628  -1.928  24.246  0.00  0.00    +0.121 C 
BRANCH  13  15
ATOM      6  N   UNL     1       1.256   0.042  23.087  0.00  0.00    -0.349 N 
ATOM     15  C   UNL     1      -0.532  -0.934  23.971  0.00  0.00    -0.008 A 
ATOM     17  C   UNL     1      -0.331   0.310  24.632  0.00  0.00    +0.004 A 
ATOM     18  C   UNL     1       0.460  -1.070  23.026  0.00  0.00    +0.091 A 
ATOM     19  C   UNL     1       0.797   0.902  24.059  0.00  0.00    +0.049 A 
ATOM     20  C   UNL     1      -1.003   0.991  25.666  0.00  0.00    +0.010 A 
ATOM     21  C   UNL     1       1.288   2.146  24.469  0.00  0.00    +0.026 A 
ATOM     22  C   UNL     1       2.410   0.265  22.244  0.00  0.00    +0.149 C 
ATOM     23  C   UNL     1      -0.522   2.237  26.088  0.00  0.00    +0.001 A 
ATOM     24  C   UNL     1       0.605   2.803  25.497  0.00  0.00    +0.002 A 
ENDBRANCH  13  15
ENDBRANCH   4  13
BRANCH   5  14
ATOM     14  C   UNL     1      -5.513   4.145  24.991  0.00  0.00    +0.137 C 
BRANCH  14  16
ATOM     16  C   UNL     1      -4.551   4.899  25.891  0.00  0.00    +0.178 C 
BRANCH  16   2
ATOM      2  O   UNL     1      -3.303   4.220  25.923  0.00  0.00    -0.381 OA
ATOM     25  C   UNL     1      -2.263   5.012  25.366  0.00  0.00    +0.194 C 
ENDBRANCH  16   2
ENDBRANCH  14  16
ENDBRANCH   5  14
TORSDOF 5
ENDMDL
MODEL 10
REMARK VINA RESULT:       0.5      2.741      4.516
REMARK  Name = 75368706
REMARK  7 active torsions:
REMARK  status: ('A' for Active; 'I' for Inactive)
REMARK    1  A    between atoms: O_2  and  C_16
REMARK    2  A    between atoms: O_2  and  C_25
REMARK    3  A    between atoms: N_4  and  C_13
REMARK    4  A    between atoms: N_5  and  C_14
REMARK    5  A    between atoms: N_6  and  C_22
REMARK    6  A    between atoms: C_13  and  C_15
REMARK    7  A    between atoms: C_14  and  C_16
REMARK                            x       y       z     vdW  Elec       q    Type
REMARK                         _______ _______ _______ _____ _____    ______ ____
ROOT
ATOM      1  O   UNL     1      -0.534  -1.082  27.193  0.00  0.00    -0.252 OA
ATOM      3  N   UNL     1      -0.481   0.674  25.633  0.00  0.00    -0.278 N 
ATOM      4  N   UNL     1      -1.044   3.175  24.478  0.00  0.00    -0.295 NA
ATOM      5  N   UNL     1      -0.714  -1.423  24.866  0.00  0.00    -0.281 N 
ATOM      7  C   UNL     1      -0.436   0.808  24.193  0.00  0.00    +0.109 C 
ATOM      8  C   UNL     1      -1.358   1.938  23.735  0.00  0.00    +0.109 C 
ATOM      9  C   UNL     1      -0.824  -0.580  23.688  0.00  0.00    +0.133 C 
ATOM     10  C   UNL     1      -0.334   1.855  26.460  0.00  0.00    +0.125 C 
ATOM     11  C   UNL     1      -1.228   2.979  25.930  0.00  0.00    +0.104 C 
ATOM     12  C   UNL     1      -0.568  -0.663  26.044  0.00  0.00    +0.305 C 
ENDROOT
BRANCH   4  13
ATOM     13  C   UNL     1      -1.879   4.280  24.004  0.00  0.00    +0.121 C 
BRANCH  13  15
ATOM      6  N   UNL     1      -5.329   4.668  25.224  0.00  0.00    -0.349 N 
ATOM     15  C   UNL     1      -3.301   4.152  24.483  0.00  0.00    -0.008 A 
ATOM     17  C   UNL     1      -4.039   2.945  24.634  0.00  0.00    +0.004 A 
ATOM     18  C   UNL     1      -4.121   5.194  24.853  0.00  0.00    +0.091 A 
ATOM     19  C   UNL     1      -5.308   3.297  25.100  0.00  0.00    +0.049 A 
ATOM     20  C   UNL     1      -3.748   1.584  24.418  0.00  0.00    +0.010 A 
ATOM     21  C   UNL     1      -6.305   2.350  25.362  0.00  0.00    +0.026 A 
ATOM     22  C   UNL     1      -6.456   5.453  25.678  0.00  0.00    +0.149 C 
ATOM     23  C   UNL     1      -4.736   0.626  24.676  0.00  0.00    +0.001 A 
ATOM     24  C   UNL     1      -5.994   1.005  25.141  0.00  0.00    +0.002 A 
ENDBRANCH  13  15
ENDBRANCH   4  13
BRANCH   5  14
ATOM     14  C   UNL     1      -0.895  -2.857  24.803  0.00  0.00    +0.137 C 
BRANCH  14  16
ATOM     16  C   UNL     1      -2.164  -3.227  24.056  0.00  0.00    +0.178 C 
BRANCH  16   2
ATOM      2  O   UNL     1      -3.285  -2.656  24.717  0.00  0.00    -0.381 OA
ATOM     25  C   UNL     1      -4.375  -2.467  23.827  0.00  0.00    +0.194 C 
ENDBRANCH  16   2
ENDBRANCH  14  16
ENDBRANCH   5  14
TORSDOF 5
ENDMDL
