MODEL 1
REMARK VINA RESULT:      -3.2      0.000      0.000
REMARK  Name = 11885121
REMARK  4 active torsions:
REMARK  status: ('A' for Active; 'I' for Inactive)
REMARK    1  A    between atoms: O_3  and  C_29
REMARK    2  A    between atoms: O_3  and  C_30
REMARK    3  A    between atoms: C_16  and  C_19
REMARK    4  A    between atoms: C_17  and  C_20
REMARK                            x       y       z     vdW  Elec       q    Type
REMARK                         _______ _______ _______ _____ _____    ______ ____
ROOT
ATOM      1  O   UNL     1      11.964  -5.642  31.373  0.00  0.00    -0.267 OA
ATOM      2  O   UNL     1      15.569  -6.022  27.779  0.00  0.00    -0.270 OA
ATOM      4  N   UNL     1      16.682  -5.844  29.828  0.00  0.00    -0.297 N 
ATOM      5  N   UNL     1      14.243  -5.811  31.834  0.00  0.00    -0.311 N 
ATOM      7  C   UNL     1      15.910  -3.954  31.247  0.00  0.00    +0.027 C 
ATOM      8  C   UNL     1      16.708  -6.029  32.304  0.00  0.00    +0.054 C 
ATOM      9  C   UNL     1      16.720  -4.506  32.415  0.00  0.00    +0.018 C 
ATOM     10  C   UNL     1      16.531  -4.391  29.908  0.00  0.00    +0.113 C 
ATOM     11  C   UNL     1      14.456  -4.425  31.390  0.00  0.00    +0.130 C 
ATOM     12  C   UNL     1      17.369  -6.457  30.977  0.00  0.00    +0.117 C 
ATOM     13  C   UNL     1      15.292  -6.570  32.360  0.00  0.00    +0.027 A 
ATOM     14  C   UNL     1      15.052  -7.788  32.873  0.00  0.00    +0.022 A 
ATOM     15  C   UNL     1      12.920  -6.292  31.798  0.00  0.00    +0.259 A 
ATOM     16  C   UNL     1      16.142  -6.532  28.740  0.00  0.00    +0.247 C 
ATOM     17  C   UNL     1      12.691  -7.678  32.337  0.00  0.00    +0.047 A 
ATOM     18  C   UNL     1      13.731  -8.348  32.855  0.00  0.00    +0.015 A 
ENDROOT
BRANCH  16  19
ATOM      6  N   UNL     1      16.410 -10.781  28.726  0.00  0.00    -0.263 NA
ATOM     19  C   UNL     1      16.235  -7.996  28.736  0.00  0.00    +0.040 A 
ATOM     21  C   UNL     1      15.212  -8.757  29.287  0.00  0.00    +0.033 A 
ATOM     22  C   UNL     1      17.343  -8.619  28.179  0.00  0.00    +0.033 A 
ATOM     25  C   UNL     1      15.348 -10.135  29.258  0.00  0.00    +0.111 A 
ATOM     26  C   UNL     1      17.382 -10.004  28.199  0.00  0.00    +0.111 A 
ENDBRANCH  16  19
BRANCH  17  20
ATOM     20  C   UNL     1      11.360  -8.305  32.286  0.00  0.00    -0.012 A 
ATOM     23  C   UNL     1      10.244  -7.616  32.766  0.00  0.00    +0.012 A 
ATOM     24  C   UNL     1      11.212  -9.590  31.760  0.00  0.00    +0.012 A 
ATOM     27  C   UNL     1       8.983  -8.211  32.717  0.00  0.00    +0.046 A 
ATOM     28  C   UNL     1       9.951 -10.183  31.712  0.00  0.00    +0.046 A 
ATOM     29  C   UNL     1       8.837  -9.494  32.192  0.00  0.00    +0.120 A 
BRANCH  29   3
ATOM      3  O   UNL     1       7.606 -10.074  32.145  0.00  0.00    -0.495 OA
ATOM     30  C   UNL     1       6.932 -10.071  30.888  0.00  0.00    +0.277 C 
ENDBRANCH  29   3
ENDBRANCH  17  20
TORSDOF 3
ENDMDL
MODEL 2
REMARK VINA RESULT:      -1.7      2.672      7.729
REMARK  Name = 11885121
REMARK  4 active torsions:
REMARK  status: ('A' for Active; 'I' for Inactive)
REMARK    1  A    between atoms: O_3  and  C_29
REMARK    2  A    between atoms: O_3  and  C_30
REMARK    3  A    between atoms: C_16  and  C_19
REMARK    4  A    between atoms: C_17  and  C_20
REMARK                            x       y       z     vdW  Elec       q    Type
REMARK                         _______ _______ _______ _____ _____    ______ ____
ROOT
ATOM      1  O   UNL     1      15.940  -7.472  26.911  0.00  0.00    -0.267 OA
ATOM      2  O   UNL     1      12.064  -8.067  30.180  0.00  0.00    -0.270 OA
ATOM      4  N   UNL     1      13.992  -8.791  31.288  0.00  0.00    -0.297 N 
ATOM      5  N   UNL     1      16.203  -8.142  29.129  0.00  0.00    -0.311 N 
ATOM      7  C   UNL     1      15.368 -10.406  29.993  0.00  0.00    +0.027 C 
ATOM      8  C   UNL     1      16.462  -8.832  31.537  0.00  0.00    +0.054 C 
ATOM      9  C   UNL     1      16.487 -10.269  31.019  0.00  0.00    +0.018 C 
ATOM     10  C   UNL     1      14.005 -10.102  30.641  0.00  0.00    +0.113 C 
ATOM     11  C   UNL     1      15.666  -9.474  28.811  0.00  0.00    +0.130 C 
ATOM     12  C   UNL     1      15.108  -8.552  32.219  0.00  0.00    +0.117 C 
ATOM     13  C   UNL     1      16.675  -7.841  30.409  0.00  0.00    +0.027 A 
ATOM     14  C   UNL     1      17.274  -6.663  30.647  0.00  0.00    +0.022 A 
ATOM     15  C   UNL     1      16.313  -7.232  28.060  0.00  0.00    +0.259 A 
ATOM     16  C   UNL     1      12.997  -7.870  30.957  0.00  0.00    +0.247 C 
ATOM     17  C   UNL     1      16.946  -5.902  28.370  0.00  0.00    +0.047 A 
ATOM     18  C   UNL     1      17.405  -5.680  29.610  0.00  0.00    +0.015 A 
ENDROOT
BRANCH  16  19
ATOM      6  N   UNL     1      13.197  -3.992  32.703  0.00  0.00    -0.263 NA
ATOM     19  C   UNL     1      13.065  -6.533  31.558  0.00  0.00    +0.040 A 
ATOM     21  C   UNL     1      12.009  -6.065  32.328  0.00  0.00    +0.033 A 
ATOM     22  C   UNL     1      14.187  -5.740  31.358  0.00  0.00    +0.033 A 
ATOM     25  C   UNL     1      12.123  -4.796  32.873  0.00  0.00    +0.111 A 
ATOM     26  C   UNL     1      14.203  -4.486  31.948  0.00  0.00    +0.111 A 
ENDBRANCH  16  19
BRANCH  17  20
ATOM     20  C   UNL     1      17.050  -4.850  27.344  0.00  0.00    -0.012 A 
ATOM     23  C   UNL     1      16.892  -5.172  25.995  0.00  0.00    +0.012 A 
ATOM     24  C   UNL     1      17.307  -3.531  27.720  0.00  0.00    +0.012 A 
ATOM     27  C   UNL     1      16.990  -4.175  25.024  0.00  0.00    +0.046 A 
ATOM     28  C   UNL     1      17.405  -2.535  26.749  0.00  0.00    +0.046 A 
ATOM     29  C   UNL     1      17.247  -2.858  25.400  0.00  0.00    +0.120 A 
BRANCH  29   3
ATOM      3  O   UNL     1      17.344  -1.885  24.453  0.00  0.00    -0.495 OA
ATOM     30  C   UNL     1      16.890  -0.580  24.811  0.00  0.00    +0.277 C 
ENDBRANCH  29   3
ENDBRANCH  17  20
TORSDOF 3
ENDMDL
