MODEL 1
REMARK VINA RESULT:      -4.9      0.000      0.000
REMARK  Name = 51138067
REMARK  10 active torsions:
REMARK  status: ('A' for Active; 'I' for Inactive)
REMARK    1  A    between atoms: N_3  and  C_21
REMARK    2  A    between atoms: N_4  and  C_22
REMARK    3  A    between atoms: C_5  and  C_9
REMARK    4  A    between atoms: C_7  and  C_16
REMARK    5  A    between atoms: C_9  and  C_12
REMARK    6  A    between atoms: C_12  and  C_19
REMARK    7  A    between atoms: C_12  and  C_20
REMARK    8  A    between atoms: C_21  and  C_23
REMARK    9  A    between atoms: C_22  and  C_24
REMARK   10  A    between atoms: C_25  and  C_27
REMARK                            x       y       z     vdW  Elec       q    Type
REMARK                         _______ _______ _______ _____ _____    ______ ____
ROOT
ATOM      2  N   UNL     1      -5.731  -9.813  14.555  0.00  0.00    -0.299 NA
ATOM      3  N   UNL     1      -9.096  -9.308  10.824  0.00  0.00    -0.335 N 
ATOM      5  C   UNL     1      -6.999 -10.328  15.090  0.00  0.00    +0.085 C 
ATOM      6  C   UNL     1      -8.233 -10.117  14.207  0.00  0.00    -0.021 A 
ATOM      7  C   UNL     1      -5.282 -10.458  13.330  0.00  0.00    +0.145 C 
ATOM      8  C   UNL     1      -8.203  -9.789  12.821  0.00  0.00    +0.008 A 
ATOM     10  C   UNL     1      -5.676  -9.651  12.094  0.00  0.00    +0.065 C 
ATOM     11  C   UNL     1      -7.149  -9.578  11.865  0.00  0.00    -0.020 A 
ATOM     13  C   UNL     1      -9.407  -9.636  12.122  0.00  0.00    +0.050 A 
ATOM     14  C   UNL     1      -7.743  -9.276  10.657  0.00  0.00    +0.091 A 
ATOM     15  C   UNL     1      -9.516 -10.335  14.771  0.00  0.00    +0.006 A 
ATOM     17  C   UNL     1     -10.662  -9.809  12.708  0.00  0.00    +0.026 A 
ATOM     18  C   UNL     1     -10.696 -10.174  14.047  0.00  0.00    +0.002 A 
ATOM     28  H   UNL     1      -5.766  -8.801  14.447  0.00  0.00    +0.123 HD
ENDROOT
BRANCH   7  16
ATOM      1  O   UNL     1      -3.213 -10.546  14.518  0.00  0.00    -0.274 OA
ATOM      4  N   UNL     1      -3.175 -10.458  12.191  0.00  0.00    -0.310 N 
ATOM     16  C   UNL     1      -3.788 -10.500  13.432  0.00  0.00    +0.231 C 
ATOM     29  H   UNL     1      -3.750 -10.444  11.353  0.00  0.00    +0.149 HD
BRANCH   4  22
ATOM     22  C   UNL     1      -1.742 -10.464  12.016  0.00  0.00    +0.131 C 
BRANCH  22  24
ATOM     24  C   UNL     1      -1.353  -9.326  11.131  0.00  0.00    -0.016 C 
ATOM     26  C   UNL     1      -0.173  -8.699  11.198  0.00  0.00    +0.005 C 
ENDBRANCH  22  24
ENDBRANCH   4  22
ENDBRANCH   7  16
BRANCH   5   9
ATOM      9  C   UNL     1      -7.139  -9.660  16.470  0.00  0.00    +0.026 C 
BRANCH   9  12
ATOM     12  C   UNL     1      -7.108 -10.664  17.626  0.00  0.00    -0.015 C 
ATOM     19  C   UNL     1      -8.373 -10.498  18.471  0.00  0.00    +0.007 C 
ATOM     20  C   UNL     1      -5.871 -10.507  18.511  0.00  0.00    +0.007 C 
ENDBRANCH   9  12
ENDBRANCH   5   9
BRANCH   3  21
ATOM     21  C   UNL     1     -10.053  -9.052   9.768  0.00  0.00    +0.210 C 
BRANCH  21  23
ATOM     23  C   UNL     1     -10.025  -7.653   9.326  0.00  0.00    -0.081 C 
ATOM     25  C   UNL     1     -10.000  -6.508   8.964  0.00  0.00    -0.104 C 
ATOM     27  C   UNL     1      -9.971  -5.114   8.524  0.00  0.00    +0.106 C 
ENDBRANCH  21  23
ENDBRANCH   3  21
TORSDOF 7
ENDMDL
MODEL 2
REMARK VINA RESULT:      -3.1      1.897      2.745
REMARK  Name = 51138067
REMARK  10 active torsions:
REMARK  status: ('A' for Active; 'I' for Inactive)
REMARK    1  A    between atoms: N_3  and  C_21
REMARK    2  A    between atoms: N_4  and  C_22
REMARK    3  A    between atoms: C_5  and  C_9
REMARK    4  A    between atoms: C_7  and  C_16
REMARK    5  A    between atoms: C_9  and  C_12
REMARK    6  A    between atoms: C_12  and  C_19
REMARK    7  A    between atoms: C_12  and  C_20
REMARK    8  A    between atoms: C_21  and  C_23
REMARK    9  A    between atoms: C_22  and  C_24
REMARK   10  A    between atoms: C_25  and  C_27
REMARK                            x       y       z     vdW  Elec       q    Type
REMARK                         _______ _______ _______ _____ _____    ______ ____
ROOT
ATOM      2  N   UNL     1      -3.411  -9.673  13.024  0.00  0.00    -0.299 NA
ATOM      3  N   UNL     1      -6.986  -9.168   9.493  0.00  0.00    -0.335 N 
ATOM      5  C   UNL     1      -4.592 -10.372  13.550  0.00  0.00    +0.085 C 
ATOM      6  C   UNL     1      -5.882 -10.209  12.740  0.00  0.00    -0.021 A 
ATOM      7  C   UNL     1      -2.957 -10.142  11.722  0.00  0.00    +0.145 C 
ATOM      8  C   UNL     1      -5.953  -9.745  11.395  0.00  0.00    +0.008 A 
ATOM     10  C   UNL     1      -3.492  -9.264  10.592  0.00  0.00    +0.065 C 
ATOM     11  C   UNL     1      -4.974  -9.328  10.427  0.00  0.00    -0.020 A 
ATOM     13  C   UNL     1      -7.198  -9.654  10.761  0.00  0.00    +0.050 A 
ATOM     14  C   UNL     1      -5.653  -8.974   9.279  0.00  0.00    +0.091 A 
ATOM     15  C   UNL     1      -7.107 -10.618  13.326  0.00  0.00    +0.006 A 
ATOM     17  C   UNL     1      -8.399 -10.018  11.373  0.00  0.00    +0.026 A 
ATOM     18  C   UNL     1      -8.331 -10.516  12.666  0.00  0.00    +0.002 A 
ATOM     28  H   UNL     1      -3.556  -8.665  13.022  0.00  0.00    +0.123 HD
ENDROOT
BRANCH   7  16
ATOM      1  O   UNL     1      -0.778 -10.781  12.455  0.00  0.00    -0.274 OA
ATOM      4  N   UNL     1      -0.991  -9.002  10.968  0.00  0.00    -0.310 N 
ATOM     16  C   UNL     1      -1.464 -10.032  11.764  0.00  0.00    +0.231 C 
ATOM     29  H   UNL     1      -1.648  -8.457  10.418  0.00  0.00    +0.149 HD
BRANCH   4  22
ATOM     22  C   UNL     1       0.410  -8.673  10.851  0.00  0.00    +0.131 C 
BRANCH  22  24
ATOM     24  C   UNL     1       0.807  -7.810  12.002  0.00  0.00    -0.016 C 
ATOM     26  C   UNL     1      -0.066  -7.178  12.796  0.00  0.00    +0.005 C 
ENDBRANCH  22  24
ENDBRANCH   4  22
ENDBRANCH   7  16
BRANCH   5   9
ATOM      9  C   UNL     1      -4.734  -9.862  14.996  0.00  0.00    +0.026 C 
BRANCH   9  12
ATOM     12  C   UNL     1      -4.064 -10.781  16.022  0.00  0.00    -0.015 C 
ATOM     19  C   UNL     1      -4.829 -10.701  17.344  0.00  0.00    +0.007 C 
ATOM     20  C   UNL     1      -2.593 -10.434  16.253  0.00  0.00    +0.007 C 
ENDBRANCH   9  12
ENDBRANCH   5   9
BRANCH   3  21
ATOM     21  C   UNL     1      -8.014  -8.914   8.505  0.00  0.00    +0.210 C 
BRANCH  21  23
ATOM     23  C   UNL     1      -8.502  -7.531   8.561  0.00  0.00    -0.081 C 
ATOM     25  C   UNL     1      -8.900  -6.399   8.608  0.00  0.00    -0.104 C 
ATOM     27  C   UNL     1      -9.385  -5.021   8.665  0.00  0.00    +0.106 C 
ENDBRANCH  21  23
ENDBRANCH   3  21
TORSDOF 7
ENDMDL
MODEL 3
REMARK VINA RESULT:      -1.8     14.543     17.006
REMARK  Name = 51138067
REMARK  10 active torsions:
REMARK  status: ('A' for Active; 'I' for Inactive)
REMARK    1  A    between atoms: N_3  and  C_21
REMARK    2  A    between atoms: N_4  and  C_22
REMARK    3  A    between atoms: C_5  and  C_9
REMARK    4  A    between atoms: C_7  and  C_16
REMARK    5  A    between atoms: C_9  and  C_12
REMARK    6  A    between atoms: C_12  and  C_19
REMARK    7  A    between atoms: C_12  and  C_20
REMARK    8  A    between atoms: C_21  and  C_23
REMARK    9  A    between atoms: C_22  and  C_24
REMARK   10  A    between atoms: C_25  and  C_27
REMARK                            x       y       z     vdW  Elec       q    Type
REMARK                         _______ _______ _______ _____ _____    ______ ____
ROOT
ATOM      2  N   UNL     1       0.230  -0.664  23.832  0.00  0.00    -0.299 NA
ATOM      3  N   UNL     1      -1.923   3.639  25.367  0.00  0.00    -0.335 N 
ATOM      5  C   UNL     1      -1.213  -0.844  23.623  0.00  0.00    +0.085 C 
ATOM      6  C   UNL     1      -2.114   0.261  24.185  0.00  0.00    -0.021 A 
ATOM      7  C   UNL     1       0.801   0.496  23.163  0.00  0.00    +0.145 C 
ATOM      8  C   UNL     1      -1.675   1.560  24.570  0.00  0.00    +0.008 A 
ATOM     10  C   UNL     1       0.914   1.691  24.109  0.00  0.00    +0.065 C 
ATOM     11  C   UNL     1      -0.402   2.230  24.562  0.00  0.00    -0.020 A 
ATOM     13  C   UNL     1      -2.605   2.486  25.058  0.00  0.00    +0.050 A 
ATOM     14  C   UNL     1      -0.600   3.498  25.069  0.00  0.00    +0.091 A 
ATOM     15  C   UNL     1      -3.509   0.022  24.265  0.00  0.00    +0.006 A 
ATOM     17  C   UNL     1      -3.970   2.215  25.173  0.00  0.00    +0.026 A 
ATOM     18  C   UNL     1      -4.410   0.967  24.755  0.00  0.00    +0.002 A 
ATOM     28  H   UNL     1       0.457  -0.664  24.825  0.00  0.00    +0.123 HD
ENDROOT
BRANCH   7  16
ATOM      1  O   UNL     1       2.390  -1.034  22.253  0.00  0.00    -0.274 OA
ATOM      4  N   UNL     1       3.126   1.046  22.995  0.00  0.00    -0.310 N 
ATOM     16  C   UNL     1       2.175   0.072  22.743  0.00  0.00    +0.231 C 
ATOM     29  H   UNL     1       2.832   1.938  23.385  0.00  0.00    +0.149 HD
BRANCH   4  22
ATOM     22  C   UNL     1       4.529   0.876  22.702  0.00  0.00    +0.131 C 
BRANCH  22  24
ATOM     24  C   UNL     1       5.230   0.401  23.931  0.00  0.00    -0.016 C 
ATOM     26  C   UNL     1       5.439  -0.889  24.218  0.00  0.00    +0.005 C 
ENDBRANCH  22  24
ENDBRANCH   4  22
ENDBRANCH   7  16
BRANCH   5   9
ATOM      9  C   UNL     1      -1.524  -2.225  24.229  0.00  0.00    +0.026 C 
BRANCH   9  12
ATOM     12  C   UNL     1      -2.986  -2.371  24.664  0.00  0.00    -0.015 C 
ATOM     19  C   UNL     1      -3.036  -2.698  26.158  0.00  0.00    +0.007 C 
ATOM     20  C   UNL     1      -3.732  -3.446  23.874  0.00  0.00    +0.007 C 
ENDBRANCH   9  12
ENDBRANCH   5   9
BRANCH   3  21
ATOM     21  C   UNL     1      -2.511   4.844  25.912  0.00  0.00    +0.210 C 
BRANCH  21  23
ATOM     23  C   UNL     1      -3.969   4.870  25.747  0.00  0.00    -0.081 C 
ATOM     25  C   UNL     1      -5.162   4.888  25.613  0.00  0.00    -0.104 C 
ATOM     27  C   UNL     1      -6.615   4.912  25.448  0.00  0.00    +0.106 C 
ENDBRANCH  21  23
ENDBRANCH   3  21
TORSDOF 7
ENDMDL
