MODEL 1
REMARK VINA RESULT:       2.2      0.000      0.000
REMARK  Name = 40780656
REMARK  14 active torsions:
REMARK  status: ('A' for Active; 'I' for Inactive)
REMARK    1  A    between atoms: O_2  and  C_10
REMARK    2  A    between atoms: O_3  and  C_11
REMARK    3  A    between atoms: O_6  and  C_30
REMARK    4  A    between atoms: O_6  and  C_33
REMARK    5  A    between atoms: N_7  and  C_15
REMARK    6  A    between atoms: N_8  and  C_18
REMARK    7  A    between atoms: N_9  and  C_27
REMARK    8  A    between atoms: N_9  and  C_31
REMARK    9  A    between atoms: N_9  and  C_32
REMARK   10  A    between atoms: C_12  and  C_14
REMARK   11  A    between atoms: C_13  and  C_15
REMARK   12  A    between atoms: C_14  and  C_16
REMARK   13  A    between atoms: C_17  and  C_19
REMARK   14  A    between atoms: C_18  and  C_20
REMARK                            x       y       z     vdW  Elec       q    Type
REMARK                         _______ _______ _______ _____ _____    ______ ____
ROOT
ATOM      1  O   UNL     1      -4.935   4.047  24.579  0.00  0.00    -0.366 OA
ATOM     10  C   UNL     1      -3.827   4.260  26.674  0.00  0.00    +0.175 C 
ATOM     11  C   UNL     1      -2.948   3.481  25.717  0.00  0.00    +0.176 C 
ATOM     12  C   UNL     1      -5.190   4.168  25.997  0.00  0.00    +0.158 C 
ATOM     13  C   UNL     1      -3.519   3.898  24.371  0.00  0.00    +0.167 C 
ENDROOT
BRANCH  10   2
ATOM      2  O   UNL     1      -3.437   5.631  26.700  0.00  0.00    -0.387 OA
ATOM     34  H   UNL     1      -3.944   6.091  26.009  0.00  0.00    +0.210 HD
ENDBRANCH  10   2
BRANCH  11   3
ATOM      3  O   UNL     1      -1.577   3.799  25.832  0.00  0.00    -0.387 OA
ATOM     35  H   UNL     1      -1.488   4.758  25.700  0.00  0.00    +0.210 HD
ENDBRANCH  11   3
BRANCH  12  14
ATOM     14  C   UNL     1      -5.992   2.950  26.432  0.00  0.00    +0.130 C 
BRANCH  14  16
ATOM      4  O   UNL     1      -7.042   1.970  24.486  0.00  0.00    -0.276 OA
ATOM      8  N   UNL     1      -5.155   0.955  25.385  0.00  0.00    -0.311 N 
ATOM     16  C   UNL     1      -6.145   1.926  25.322  0.00  0.00    +0.216 C 
ATOM     37  H   UNL     1      -4.443   1.021  26.106  0.00  0.00    +0.149 HD
BRANCH   8  18
ATOM     18  C   UNL     1      -5.065  -0.142  24.449  0.00  0.00    +0.139 C 
BRANCH  18  20
ATOM     20  C   UNL     1      -3.812  -0.946  24.646  0.00  0.00    -0.030 A 
ATOM     23  C   UNL     1      -2.765  -0.432  25.413  0.00  0.00    +0.009 A 
ATOM     24  C   UNL     1      -3.694  -2.206  24.061  0.00  0.00    +0.009 A 
ATOM     28  C   UNL     1      -1.603  -1.180  25.594  0.00  0.00    +0.046 A 
ATOM     29  C   UNL     1      -2.531  -2.954  24.242  0.00  0.00    +0.046 A 
ATOM     30  C   UNL     1      -1.484  -2.440  25.009  0.00  0.00    +0.120 A 
BRANCH  30   6
ATOM      6  O   UNL     1      -0.349  -3.170  25.188  0.00  0.00    -0.495 OA
ATOM     33  C   UNL     1       0.858  -2.445  25.421  0.00  0.00    +0.277 C 
ENDBRANCH  30   6
ENDBRANCH  18  20
ENDBRANCH   8  18
ENDBRANCH  14  16
ENDBRANCH  12  14
BRANCH  13  15
ATOM     15  C   UNL     1      -3.268   2.883  23.271  0.00  0.00    +0.138 C 
BRANCH  15   7
ATOM      5  O   UNL     1      -2.296   0.424  22.152  0.00  0.00    -0.270 OA
ATOM      7  N   UNL     1      -1.919   2.400  23.308  0.00  0.00    -0.309 N 
ATOM     17  C   UNL     1      -1.534   1.190  22.738  0.00  0.00    +0.244 C 
ATOM     36  H   UNL     1      -1.227   3.011  23.729  0.00  0.00    +0.149 HD
BRANCH  17  19
ATOM     19  C   UNL     1      -0.103   0.819  22.886  0.00  0.00    +0.037 A 
ATOM     21  C   UNL     1       0.414  -0.263  22.173  0.00  0.00    +0.015 A 
ATOM     22  C   UNL     1       0.723   1.552  23.738  0.00  0.00    +0.015 A 
ATOM     25  C   UNL     1       1.756  -0.612  22.313  0.00  0.00    +0.024 A 
ATOM     26  C   UNL     1       2.065   1.202  23.879  0.00  0.00    +0.024 A 
ATOM     27  C   UNL     1       2.582   0.120  23.167  0.00  0.00    +0.029 A 
BRANCH  27   9
ATOM      9  N   UNL     1       3.941  -0.232  23.308  0.00  0.00    -0.336 N 
ATOM     31  C   UNL     1       4.984   0.720  22.985  0.00  0.00    +0.129 C 
ATOM     32  C   UNL     1       4.311  -1.550  23.784  0.00  0.00    +0.129 C 
ENDBRANCH  27   9
ENDBRANCH  17  19
ENDBRANCH  15   7
ENDBRANCH  13  15
TORSDOF 11
ENDMDL
MODEL 2
REMARK VINA RESULT:       2.9      1.562      2.341
REMARK  Name = 40780656
REMARK  14 active torsions:
REMARK  status: ('A' for Active; 'I' for Inactive)
REMARK    1  A    between atoms: O_2  and  C_10
REMARK    2  A    between atoms: O_3  and  C_11
REMARK    3  A    between atoms: O_6  and  C_30
REMARK    4  A    between atoms: O_6  and  C_33
REMARK    5  A    between atoms: N_7  and  C_15
REMARK    6  A    between atoms: N_8  and  C_18
REMARK    7  A    between atoms: N_9  and  C_27
REMARK    8  A    between atoms: N_9  and  C_31
REMARK    9  A    between atoms: N_9  and  C_32
REMARK   10  A    between atoms: C_12  and  C_14
REMARK   11  A    between atoms: C_13  and  C_15
REMARK   12  A    between atoms: C_14  and  C_16
REMARK   13  A    between atoms: C_17  and  C_19
REMARK   14  A    between atoms: C_18  and  C_20
REMARK                            x       y       z     vdW  Elec       q    Type
REMARK                         _______ _______ _______ _____ _____    ______ ____
ROOT
ATOM      1  O   UNL     1      -2.522   3.528  23.624  0.00  0.00    -0.366 OA
ATOM     10  C   UNL     1      -2.214   4.666  25.690  0.00  0.00    +0.175 C 
ATOM     11  C   UNL     1      -1.378   3.402  25.683  0.00  0.00    +0.176 C 
ATOM     12  C   UNL     1      -3.198   4.402  24.556  0.00  0.00    +0.158 C 
ATOM     13  C   UNL     1      -1.264   3.122  24.193  0.00  0.00    +0.167 C 
ENDROOT
BRANCH  10   2
ATOM      2  O   UNL     1      -1.414   5.790  25.329  0.00  0.00    -0.387 OA
ATOM     34  H   UNL     1      -0.612   5.766  25.879  0.00  0.00    +0.210 HD
ENDBRANCH  10   2
BRANCH  11   3
ATOM      3  O   UNL     1      -0.114   3.564  26.290  0.00  0.00    -0.387 OA
ATOM     35  H   UNL     1       0.318   4.324  25.865  0.00  0.00    +0.210 HD
ENDBRANCH  11   3
BRANCH  12  14
ATOM     14  C   UNL     1      -4.466   3.697  25.019  0.00  0.00    +0.130 C 
BRANCH  14  16
ATOM      4  O   UNL     1      -4.414   2.139  23.170  0.00  0.00    -0.276 OA
ATOM      8  N   UNL     1      -5.137   1.402  25.252  0.00  0.00    -0.311 N 
ATOM     16  C   UNL     1      -4.657   2.346  24.356  0.00  0.00    +0.216 C 
ATOM     37  H   UNL     1      -5.287   1.670  26.221  0.00  0.00    +0.149 HD
BRANCH   8  18
ATOM     18  C   UNL     1      -5.412   0.032  24.885  0.00  0.00    +0.139 C 
BRANCH  18  20
ATOM     20  C   UNL     1      -4.167  -0.808  24.879  0.00  0.00    -0.030 A 
ATOM     23  C   UNL     1      -4.108  -1.965  24.101  0.00  0.00    +0.009 A 
ATOM     24  C   UNL     1      -3.069  -0.432  25.651  0.00  0.00    +0.009 A 
ATOM     28  C   UNL     1      -2.953  -2.744  24.096  0.00  0.00    +0.046 A 
ATOM     29  C   UNL     1      -1.912  -1.211  25.647  0.00  0.00    +0.046 A 
ATOM     30  C   UNL     1      -1.854  -2.368  24.869  0.00  0.00    +0.120 A 
BRANCH  30   6
ATOM      6  O   UNL     1      -0.725  -3.128  24.863  0.00  0.00    -0.495 OA
ATOM     33  C   UNL     1       0.411  -2.608  25.553  0.00  0.00    +0.277 C 
ENDBRANCH  30   6
ENDBRANCH  18  20
ENDBRANCH   8  18
ENDBRANCH  14  16
ENDBRANCH  12  14
BRANCH  13  15
ATOM     15  C   UNL     1      -1.008   1.660  23.875  0.00  0.00    +0.138 C 
BRANCH  15   7
ATOM      5  O   UNL     1       0.214  -0.651  22.688  0.00  0.00    -0.270 OA
ATOM      7  N   UNL     1       0.396   1.389  23.777  0.00  0.00    -0.309 N 
ATOM     17  C   UNL     1       0.903   0.237  23.183  0.00  0.00    +0.244 C 
ATOM     36  H   UNL     1       1.025   2.109  24.117  0.00  0.00    +0.149 HD
BRANCH  17  19
ATOM     19  C   UNL     1       2.382   0.092  23.185  0.00  0.00    +0.037 A 
ATOM     21  C   UNL     1       2.963  -1.109  23.590  0.00  0.00    +0.015 A 
ATOM     22  C   UNL     1       3.188   1.157  22.784  0.00  0.00    +0.015 A 
ATOM     25  C   UNL     1       4.351  -1.245  23.594  0.00  0.00    +0.024 A 
ATOM     26  C   UNL     1       4.576   1.021  22.788  0.00  0.00    +0.024 A 
ATOM     27  C   UNL     1       5.158  -0.179  23.193  0.00  0.00    +0.029 A 
BRANCH  27   9
ATOM      9  N   UNL     1       6.562  -0.317  23.196  0.00  0.00    -0.336 N 
ATOM     31  C   UNL     1       7.195  -1.394  22.464  0.00  0.00    +0.129 C 
ATOM     32  C   UNL     1       7.389   0.622  23.927  0.00  0.00    +0.129 C 
ENDBRANCH  27   9
ENDBRANCH  17  19
ENDBRANCH  15   7
ENDBRANCH  13  15
TORSDOF 11
ENDMDL
MODEL 3
REMARK VINA RESULT:       3.1      2.919      4.663
REMARK  Name = 40780656
REMARK  14 active torsions:
REMARK  status: ('A' for Active; 'I' for Inactive)
REMARK    1  A    between atoms: O_2  and  C_10
REMARK    2  A    between atoms: O_3  and  C_11
REMARK    3  A    between atoms: O_6  and  C_30
REMARK    4  A    between atoms: O_6  and  C_33
REMARK    5  A    between atoms: N_7  and  C_15
REMARK    6  A    between atoms: N_8  and  C_18
REMARK    7  A    between atoms: N_9  and  C_27
REMARK    8  A    between atoms: N_9  and  C_31
REMARK    9  A    between atoms: N_9  and  C_32
REMARK   10  A    between atoms: C_12  and  C_14
REMARK   11  A    between atoms: C_13  and  C_15
REMARK   12  A    between atoms: C_14  and  C_16
REMARK   13  A    between atoms: C_17  and  C_19
REMARK   14  A    between atoms: C_18  and  C_20
REMARK                            x       y       z     vdW  Elec       q    Type
REMARK                         _______ _______ _______ _____ _____    ______ ____
ROOT
ATOM      1  O   UNL     1      -4.518   1.724  23.813  0.00  0.00    -0.366 OA
ATOM     10  C   UNL     1      -6.087   1.686  25.601  0.00  0.00    +0.175 C 
ATOM     11  C   UNL     1      -5.456   3.061  25.514  0.00  0.00    +0.176 C 
ATOM     12  C   UNL     1      -5.113   0.839  24.789  0.00  0.00    +0.158 C 
ATOM     13  C   UNL     1      -4.945   3.071  24.083  0.00  0.00    +0.167 C 
ENDROOT
BRANCH  10   2
ATOM      2  O   UNL     1      -7.346   1.676  24.931  0.00  0.00    -0.387 OA
ATOM     34  H   UNL     1      -7.639   2.600  24.848  0.00  0.00    +0.210 HD
ENDBRANCH  10   2
BRANCH  11   3
ATOM      3  O   UNL     1      -6.368   4.111  25.759  0.00  0.00    -0.387 OA
ATOM     35  H   UNL     1      -5.849   4.922  25.892  0.00  0.00    +0.210 HD
ENDBRANCH  11   3
BRANCH  12  14
ATOM     14  C   UNL     1      -3.989   0.251  25.631  0.00  0.00    +0.130 C 
BRANCH  14  16
ATOM      4  O   UNL     1      -3.654  -2.049  24.961  0.00  0.00    -0.276 OA
ATOM      8  N   UNL     1      -2.135  -0.434  24.264  0.00  0.00    -0.311 N 
ATOM     16  C   UNL     1      -3.267  -0.884  24.929  0.00  0.00    +0.216 C 
ATOM     37  H   UNL     1      -1.913   0.557  24.280  0.00  0.00    +0.149 HD
BRANCH   8  18
ATOM     18  C   UNL     1      -1.261  -1.306  23.514  0.00  0.00    +0.139 C 
BRANCH  18  20
ATOM     20  C   UNL     1       0.064  -0.661  23.226  0.00  0.00    -0.030 A 
ATOM     23  C   UNL     1       0.741  -0.953  22.041  0.00  0.00    +0.009 A 
ATOM     24  C   UNL     1       0.618   0.232  24.143  0.00  0.00    +0.009 A 
ATOM     28  C   UNL     1       1.971  -0.354  21.775  0.00  0.00    +0.046 A 
ATOM     29  C   UNL     1       1.849   0.831  23.877  0.00  0.00    +0.046 A 
ATOM     30  C   UNL     1       2.526   0.539  22.693  0.00  0.00    +0.120 A 
BRANCH  30   6
ATOM      6  O   UNL     1       3.726   1.125  22.432  0.00  0.00    -0.495 OA
ATOM     33  C   UNL     1       4.873   0.569  23.075  0.00  0.00    +0.277 C 
ENDBRANCH  30   6
ENDBRANCH  18  20
ENDBRANCH   8  18
ENDBRANCH  14  16
ENDBRANCH  12  14
BRANCH  13  15
ATOM     15  C   UNL     1      -3.786   4.028  23.865  0.00  0.00    +0.138 C 
BRANCH  15   7
ATOM      5  O   UNL     1      -1.429   2.413  23.584  0.00  0.00    -0.270 OA
ATOM      7  N   UNL     1      -2.760   3.832  24.847  0.00  0.00    -0.309 N 
ATOM     17  C   UNL     1      -1.646   3.027  24.625  0.00  0.00    +0.244 C 
ATOM     36  H   UNL     1      -2.850   4.355  25.712  0.00  0.00    +0.149 HD
BRANCH  17  19
ATOM     19  C   UNL     1      -0.687   2.907  25.753  0.00  0.00    +0.037 A 
ATOM     21  C   UNL     1      -0.980   2.070  26.830  0.00  0.00    +0.015 A 
ATOM     22  C   UNL     1       0.505   3.630  25.736  0.00  0.00    +0.015 A 
ATOM     25  C   UNL     1      -0.081   1.958  27.890  0.00  0.00    +0.024 A 
ATOM     26  C   UNL     1       1.404   3.517  26.796  0.00  0.00    +0.024 A 
ATOM     27  C   UNL     1       1.111   2.682  27.873  0.00  0.00    +0.029 A 
BRANCH  27   9
ATOM      9  N   UNL     1       2.022   2.567  28.945  0.00  0.00    -0.336 N 
ATOM     31  C   UNL     1       3.389   3.024  28.799  0.00  0.00    +0.129 C 
ATOM     32  C   UNL     1       1.599   1.996  30.208  0.00  0.00    +0.129 C 
ENDBRANCH  27   9
ENDBRANCH  17  19
ENDBRANCH  15   7
ENDBRANCH  13  15
TORSDOF 11
ENDMDL
MODEL 4
REMARK VINA RESULT:       3.7      1.831      4.896
REMARK  Name = 40780656
REMARK  14 active torsions:
REMARK  status: ('A' for Active; 'I' for Inactive)
REMARK    1  A    between atoms: O_2  and  C_10
REMARK    2  A    between atoms: O_3  and  C_11
REMARK    3  A    between atoms: O_6  and  C_30
REMARK    4  A    between atoms: O_6  and  C_33
REMARK    5  A    between atoms: N_7  and  C_15
REMARK    6  A    between atoms: N_8  and  C_18
REMARK    7  A    between atoms: N_9  and  C_27
REMARK    8  A    between atoms: N_9  and  C_31
REMARK    9  A    between atoms: N_9  and  C_32
REMARK   10  A    between atoms: C_12  and  C_14
REMARK   11  A    between atoms: C_13  and  C_15
REMARK   12  A    between atoms: C_14  and  C_16
REMARK   13  A    between atoms: C_17  and  C_19
REMARK   14  A    between atoms: C_18  and  C_20
REMARK                            x       y       z     vdW  Elec       q    Type
REMARK                         _______ _______ _______ _____ _____    ______ ____
ROOT
ATOM      1  O   UNL     1      -2.918  -0.202  25.765  0.00  0.00    -0.366 OA
ATOM     10  C   UNL     1      -3.148  -2.359  24.790  0.00  0.00    +0.175 C 
ATOM     11  C   UNL     1      -2.077  -1.584  24.049  0.00  0.00    +0.176 C 
ATOM     12  C   UNL     1      -3.886  -1.250  25.532  0.00  0.00    +0.158 C 
ATOM     13  C   UNL     1      -1.698  -0.531  25.078  0.00  0.00    +0.167 C 
ENDROOT
BRANCH  10   2
ATOM      2  O   UNL     1      -2.554  -3.221  25.759  0.00  0.00    -0.387 OA
ATOM     34  H   UNL     1      -2.564  -4.122  25.391  0.00  0.00    +0.210 HD
ENDBRANCH  10   2
BRANCH  11   3
ATOM      3  O   UNL     1      -0.973  -2.377  23.671  0.00  0.00    -0.387 OA
ATOM     35  H   UNL     1      -0.224  -1.778  23.515  0.00  0.00    +0.210 HD
ENDBRANCH  11   3
BRANCH  12  14
ATOM     14  C   UNL     1      -5.034  -0.656  24.728  0.00  0.00    +0.130 C 
BRANCH  14  16
ATOM      4  O   UNL     1      -4.339   1.398  23.654  0.00  0.00    -0.276 OA
ATOM      8  N   UNL     1      -5.562   1.509  25.628  0.00  0.00    -0.311 N 
ATOM     16  C   UNL     1      -4.925   0.851  24.585  0.00  0.00    +0.216 C 
ATOM     37  H   UNL     1      -6.038   0.963  26.340  0.00  0.00    +0.149 HD
BRANCH   8  18
ATOM     18  C   UNL     1      -5.610   2.949  25.741  0.00  0.00    +0.139 C 
BRANCH  18  20
ATOM     20  C   UNL     1      -4.269   3.576  25.495  0.00  0.00    -0.030 A 
ATOM     23  C   UNL     1      -4.036   4.290  24.319  0.00  0.00    +0.009 A 
ATOM     24  C   UNL     1      -3.255   3.446  26.443  0.00  0.00    +0.009 A 
ATOM     28  C   UNL     1      -2.790   4.873  24.092  0.00  0.00    +0.046 A 
ATOM     29  C   UNL     1      -2.008   4.029  26.217  0.00  0.00    +0.046 A 
ATOM     30  C   UNL     1      -1.775   4.742  25.040  0.00  0.00    +0.120 A 
BRANCH  30   6
ATOM      6  O   UNL     1      -0.559   5.312  24.819  0.00  0.00    -0.495 OA
ATOM     33  C   UNL     1       0.153   4.890  23.656  0.00  0.00    +0.277 C 
ENDBRANCH  30   6
ENDBRANCH  18  20
ENDBRANCH   8  18
ENDBRANCH  14  16
ENDBRANCH  12  14
BRANCH  13  15
ATOM     15  C   UNL     1      -1.103   0.723  24.463  0.00  0.00    +0.138 C 
BRANCH  15   7
ATOM      5  O   UNL     1       0.317  -0.247  22.164  0.00  0.00    -0.270 OA
ATOM      7  N   UNL     1       0.318   0.607  24.321  0.00  0.00    -0.309 N 
ATOM     17  C   UNL     1       0.925   0.123  23.165  0.00  0.00    +0.244 C 
ATOM     36  H   UNL     1       0.884   0.948  25.091  0.00  0.00    +0.149 HD
BRANCH  17  19
ATOM     19  C   UNL     1       2.408   0.040  23.186  0.00  0.00    +0.037 A 
ATOM     21  C   UNL     1       3.034  -1.130  23.615  0.00  0.00    +0.015 A 
ATOM     22  C   UNL     1       3.174   1.132  22.777  0.00  0.00    +0.015 A 
ATOM     25  C   UNL     1       4.426  -1.208  23.636  0.00  0.00    +0.024 A 
ATOM     26  C   UNL     1       4.566   1.054  22.799  0.00  0.00    +0.024 A 
ATOM     27  C   UNL     1       5.192  -0.115  23.228  0.00  0.00    +0.029 A 
BRANCH  27   9
ATOM      9  N   UNL     1       6.601  -0.194  23.249  0.00  0.00    -0.336 N 
ATOM     31  C   UNL     1       7.287  -1.257  22.542  0.00  0.00    +0.129 C 
ATOM     32  C   UNL     1       7.380   0.791  23.972  0.00  0.00    +0.129 C 
ENDBRANCH  27   9
ENDBRANCH  17  19
ENDBRANCH  15   7
ENDBRANCH  13  15
TORSDOF 11
ENDMDL
MODEL 5
REMARK VINA RESULT:       5.2      2.211      7.427
REMARK  Name = 40780656
REMARK  14 active torsions:
REMARK  status: ('A' for Active; 'I' for Inactive)
REMARK    1  A    between atoms: O_2  and  C_10
REMARK    2  A    between atoms: O_3  and  C_11
REMARK    3  A    between atoms: O_6  and  C_30
REMARK    4  A    between atoms: O_6  and  C_33
REMARK    5  A    between atoms: N_7  and  C_15
REMARK    6  A    between atoms: N_8  and  C_18
REMARK    7  A    between atoms: N_9  and  C_27
REMARK    8  A    between atoms: N_9  and  C_31
REMARK    9  A    between atoms: N_9  and  C_32
REMARK   10  A    between atoms: C_12  and  C_14
REMARK   11  A    between atoms: C_13  and  C_15
REMARK   12  A    between atoms: C_14  and  C_16
REMARK   13  A    between atoms: C_17  and  C_19
REMARK   14  A    between atoms: C_18  and  C_20
REMARK                            x       y       z     vdW  Elec       q    Type
REMARK                         _______ _______ _______ _____ _____    ______ ____
ROOT
ATOM      1  O   UNL     1       1.371   0.013  22.762  0.00  0.00    -0.366 OA
ATOM     10  C   UNL     1       3.677   0.598  22.787  0.00  0.00    +0.175 C 
ATOM     11  C   UNL     1       3.433  -0.527  23.771  0.00  0.00    +0.176 C 
ATOM     12  C   UNL     1       2.266   1.130  22.558  0.00  0.00    +0.158 C 
ATOM     13  C   UNL     1       2.128  -1.108  23.252  0.00  0.00    +0.167 C 
ENDROOT
BRANCH  10   2
ATOM      2  O   UNL     1       4.160   0.078  21.550  0.00  0.00    -0.387 OA
ATOM     34  H   UNL     1       5.092  -0.167  21.681  0.00  0.00    +0.210 HD
ENDBRANCH  10   2
BRANCH  11   3
ATOM      3  O   UNL     1       4.468  -1.486  23.792  0.00  0.00    -0.387 OA
ATOM     35  H   UNL     1       4.970  -1.392  22.964  0.00  0.00    +0.210 HD
ENDBRANCH  11   3
BRANCH  12  14
ATOM     14  C   UNL     1       1.875   2.226  23.539  0.00  0.00    +0.130 C 
BRANCH  14  16
ATOM      4  O   UNL     1      -0.397   1.409  23.680  0.00  0.00    -0.276 OA
ATOM      8  N   UNL     1       0.583   2.358  25.561  0.00  0.00    -0.311 N 
ATOM     16  C   UNL     1       0.558   1.941  24.237  0.00  0.00    +0.216 C 
ATOM     37  H   UNL     1       1.433   2.769  25.934  0.00  0.00    +0.149 HD
BRANCH   8  18
ATOM     18  C   UNL     1      -0.541   2.209  26.457  0.00  0.00    +0.139 C 
BRANCH  18  20
ATOM     20  C   UNL     1      -1.759   2.929  25.954  0.00  0.00    -0.030 A 
ATOM     23  C   UNL     1      -2.024   2.981  24.585  0.00  0.00    +0.009 A 
ATOM     24  C   UNL     1      -2.625   3.546  26.855  0.00  0.00    +0.009 A 
ATOM     28  C   UNL     1      -3.155   3.648  24.119  0.00  0.00    +0.046 A 
ATOM     29  C   UNL     1      -3.757   4.215  26.389  0.00  0.00    +0.046 A 
ATOM     30  C   UNL     1      -4.022   4.267  25.020  0.00  0.00    +0.120 A 
BRANCH  30   6
ATOM      6  O   UNL     1      -5.127   4.918  24.565  0.00  0.00    -0.495 OA
ATOM     33  C   UNL     1      -6.200   5.098  25.488  0.00  0.00    +0.277 C 
ENDBRANCH  30   6
ENDBRANCH  18  20
ENDBRANCH   8  18
ENDBRANCH  14  16
ENDBRANCH  12  14
BRANCH  13  15
ATOM     15  C   UNL     1       1.329  -1.838  24.317  0.00  0.00    +0.138 C 
BRANCH  15   7
ATOM      5  O   UNL     1      -1.267  -3.056  24.174  0.00  0.00    -0.270 OA
ATOM      7  N   UNL     1       0.068  -1.197  24.550  0.00  0.00    -0.309 N 
ATOM     17  C   UNL     1      -1.148  -1.867  24.458  0.00  0.00    +0.244 C 
ATOM     36  H   UNL     1       0.097  -0.226  24.844  0.00  0.00    +0.149 HD
BRANCH  17  19
ATOM     19  C   UNL     1      -2.367  -1.054  24.704  0.00  0.00    +0.037 A 
ATOM     21  C   UNL     1      -2.841  -0.883  26.004  0.00  0.00    +0.015 A 
ATOM     22  C   UNL     1      -3.037  -0.461  23.633  0.00  0.00    +0.015 A 
ATOM     25  C   UNL     1      -3.986  -0.121  26.235  0.00  0.00    +0.024 A 
ATOM     26  C   UNL     1      -4.182   0.301  23.864  0.00  0.00    +0.024 A 
ATOM     27  C   UNL     1      -4.656   0.471  25.164  0.00  0.00    +0.029 A 
BRANCH  27   9
ATOM      9  N   UNL     1      -5.814   1.244  25.397  0.00  0.00    -0.336 N 
ATOM     31  C   UNL     1      -6.628   1.699  24.289  0.00  0.00    +0.129 C 
ATOM     32  C   UNL     1      -6.206   1.587  26.749  0.00  0.00    +0.129 C 
ENDBRANCH  27   9
ENDBRANCH  17  19
ENDBRANCH  15   7
ENDBRANCH  13  15
TORSDOF 11
ENDMDL
MODEL 6
REMARK VINA RESULT:       5.9      2.176      5.339
REMARK  Name = 40780656
REMARK  14 active torsions:
REMARK  status: ('A' for Active; 'I' for Inactive)
REMARK    1  A    between atoms: O_2  and  C_10
REMARK    2  A    between atoms: O_3  and  C_11
REMARK    3  A    between atoms: O_6  and  C_30
REMARK    4  A    between atoms: O_6  and  C_33
REMARK    5  A    between atoms: N_7  and  C_15
REMARK    6  A    between atoms: N_8  and  C_18
REMARK    7  A    between atoms: N_9  and  C_27
REMARK    8  A    between atoms: N_9  and  C_31
REMARK    9  A    between atoms: N_9  and  C_32
REMARK   10  A    between atoms: C_12  and  C_14
REMARK   11  A    between atoms: C_13  and  C_15
REMARK   12  A    between atoms: C_14  and  C_16
REMARK   13  A    between atoms: C_17  and  C_19
REMARK   14  A    between atoms: C_18  and  C_20
REMARK                            x       y       z     vdW  Elec       q    Type
REMARK                         _______ _______ _______ _____ _____    ______ ____
ROOT
ATOM      1  O   UNL     1      -3.363   4.368  26.613  0.00  0.00    -0.366 OA
ATOM     10  C   UNL     1      -1.982   5.263  24.895  0.00  0.00    +0.175 C 
ATOM     11  C   UNL     1      -3.252   4.710  24.282  0.00  0.00    +0.176 C 
ATOM     12  C   UNL     1      -1.978   4.600  26.268  0.00  0.00    +0.158 C 
ATOM     13  C   UNL     1      -4.187   4.697  25.480  0.00  0.00    +0.167 C 
ENDROOT
BRANCH  10   2
ATOM      2  O   UNL     1      -2.096   6.672  25.084  0.00  0.00    -0.387 OA
ATOM     34  H   UNL     1      -1.522   6.912  25.832  0.00  0.00    +0.210 HD
ENDBRANCH  10   2
BRANCH  11   3
ATOM      3  O   UNL     1      -3.754   5.502  23.227  0.00  0.00    -0.387 OA
ATOM     35  H   UNL     1      -3.815   6.416  23.552  0.00  0.00    +0.210 HD
ENDBRANCH  11   3
BRANCH  12  14
ATOM     14  C   UNL     1      -1.264   3.256  26.280  0.00  0.00    +0.130 C 
BRANCH  14  16
ATOM      4  O   UNL     1      -0.512   3.472  23.991  0.00  0.00    -0.276 OA
ATOM      8  N   UNL     1      -1.218   1.395  24.760  0.00  0.00    -0.311 N 
ATOM     16  C   UNL     1      -0.948   2.751  24.885  0.00  0.00    +0.216 C 
ATOM     37  H   UNL     1      -1.558   0.882  25.568  0.00  0.00    +0.149 HD
BRANCH   8  18
ATOM     18  C   UNL     1      -1.011   0.658  23.535  0.00  0.00    +0.139 C 
BRANCH  18  20
ATOM     20  C   UNL     1       0.445   0.556  23.181  0.00  0.00    -0.030 A 
ATOM     23  C   UNL     1       0.858  -0.309  22.166  0.00  0.00    +0.009 A 
ATOM     24  C   UNL     1       1.385   1.324  23.867  0.00  0.00    +0.009 A 
ATOM     28  C   UNL     1       2.209  -0.403  21.838  0.00  0.00    +0.046 A 
ATOM     29  C   UNL     1       2.737   1.229  23.539  0.00  0.00    +0.046 A 
ATOM     30  C   UNL     1       3.150   0.365  22.524  0.00  0.00    +0.120 A 
BRANCH  30   6
ATOM      6  O   UNL     1       4.469   0.273  22.203  0.00  0.00    -0.495 OA
ATOM     33  C   UNL     1       5.392   0.137  23.283  0.00  0.00    +0.277 C 
ENDBRANCH  30   6
ENDBRANCH  18  20
ENDBRANCH   8  18
ENDBRANCH  14  16
ENDBRANCH  12  14
BRANCH  13  15
ATOM     15  C   UNL     1      -5.311   3.683  25.354  0.00  0.00    +0.138 C 
BRANCH  15   7
ATOM      5  O   UNL     1      -5.954   1.181  26.606  0.00  0.00    -0.270 OA
ATOM      7  N   UNL     1      -4.807   2.391  24.994  0.00  0.00    -0.309 N 
ATOM     17  C   UNL     1      -5.173   1.225  25.659  0.00  0.00    +0.244 C 
ATOM     36  H   UNL     1      -4.199   2.348  24.183  0.00  0.00    +0.149 HD
BRANCH  17  19
ATOM     19  C   UNL     1      -4.541  -0.032  25.180  0.00  0.00    +0.037 A 
ATOM     21  C   UNL     1      -3.643  -0.715  25.999  0.00  0.00    +0.015 A 
ATOM     22  C   UNL     1      -4.845  -0.526  23.912  0.00  0.00    +0.015 A 
ATOM     25  C   UNL     1      -3.048  -1.894  25.550  0.00  0.00    +0.024 A 
ATOM     26  C   UNL     1      -4.250  -1.705  23.463  0.00  0.00    +0.024 A 
ATOM     27  C   UNL     1      -3.351  -2.389  24.281  0.00  0.00    +0.029 A 
BRANCH  27   9
ATOM      9  N   UNL     1      -2.750  -3.581  23.826  0.00  0.00    -0.336 N 
ATOM     31  C   UNL     1      -3.567  -4.682  23.357  0.00  0.00    +0.129 C 
ATOM     32  C   UNL     1      -1.308  -3.718  23.818  0.00  0.00    +0.129 C 
ENDBRANCH  27   9
ENDBRANCH  17  19
ENDBRANCH  15   7
ENDBRANCH  13  15
TORSDOF 11
ENDMDL
