MODEL 1
REMARK VINA RESULT:      -4.7      0.000      0.000
REMARK  Name = 11865673
REMARK  8 active torsions:
REMARK  status: ('A' for Active; 'I' for Inactive)
REMARK    1  A    between atoms: O_1  and  C_17
REMARK    2  A    between atoms: O_2  and  C_18
REMARK    3  A    between atoms: N_6  and  C_10
REMARK    4  A    between atoms: N_7  and  C_16
REMARK    5  A    between atoms: N_8  and  C_24
REMARK    6  A    between atoms: C_21  and  C_23
REMARK    7  A    between atoms: C_24  and  C_25
REMARK    8  A    between atoms: C_25  and  C_26
REMARK                            x       y       z     vdW  Elec       q    Type
REMARK                         _______ _______ _______ _____ _____    ______ ____
ROOT
ATOM     16  C   UNL     1      -0.810   2.572  25.778  0.00  0.00    +0.129 C 
ATOM     17  C   UNL     1      -1.017   4.006  25.255  0.00  0.00    +0.167 C 
ATOM     18  C   UNL     1      -2.481   4.446  25.386  0.00  0.00    +0.149 C 
ATOM     19  C   UNL     1      -3.442   3.476  24.679  0.00  0.00    +0.074 C 
ATOM     20  C   UNL     1      -1.880   1.614  25.329  0.00  0.00    +0.006 C 
ATOM     21  C   UNL     1      -3.052   2.033  24.830  0.00  0.00    +0.015 C 
ENDROOT
BRANCH  16   7
ATOM      3  O   UNL     1      -0.085   1.440  23.224  0.00  0.00    -0.253 OA
ATOM      6  N   UNL     1       2.060   1.081  24.032  0.00  0.00    -0.297 N 
ATOM      7  N   UNL     1       0.478   2.046  25.394  0.00  0.00    -0.291 N 
ATOM     22  C   UNL     1       0.741   1.515  24.133  0.00  0.00    +0.300 C 
ATOM     27  H   UNL     1       2.683   1.258  24.813  0.00  0.00    +0.151 HD
ATOM     28  H   UNL     1       1.216   2.011  26.091  0.00  0.00    +0.151 HD
BRANCH   6  10
ATOM     10  C   UNL     1       2.599   0.487  22.828  0.00  0.00    +0.074 C 
ATOM     11  C   UNL     1       3.928   1.143  22.438  0.00  0.00    +0.022 C 
ATOM     12  C   UNL     1       2.753  -1.030  22.984  0.00  0.00    +0.022 C 
ATOM     13  C   UNL     1       5.069   0.761  23.382  0.00  0.00    +0.002 C 
ATOM     14  C   UNL     1       3.896  -1.408  23.927  0.00  0.00    +0.002 C 
ATOM     15  C   UNL     1       5.209  -0.753  23.512  0.00  0.00    +0.000 C 
ENDBRANCH   6  10
ENDBRANCH  16   7
BRANCH  21  23
ATOM      4  O   UNL     1      -5.226   1.167  24.620  0.00  0.00    -0.271 OA
ATOM      8  N   UNL     1      -3.428  -0.093  23.837  0.00  0.00    -0.311 N 
ATOM     23  C   UNL     1      -4.021   1.009  24.427  0.00  0.00    +0.240 C 
ATOM     31  H   UNL     1      -2.419  -0.118  23.716  0.00  0.00    +0.149 HD
BRANCH   8  24
ATOM     24  C   UNL     1      -4.178  -1.233  23.359  0.00  0.00    +0.113 C 
BRANCH  24  25
ATOM     25  C   UNL     1      -3.868  -2.497  24.148  0.00  0.00    +0.114 C 
BRANCH  25  26
ATOM      5  O   UNL     1      -3.156  -1.815  26.367  0.00  0.00    -0.276 OA
ATOM      9  N   UNL     1      -1.589  -2.649  24.906  0.00  0.00    -0.329 N 
ATOM     26  C   UNL     1      -2.867  -2.279  25.267  0.00  0.00    +0.212 C 
ATOM     32  H   UNL     1      -0.815  -2.555  25.555  0.00  0.00    +0.145 HD
ATOM     33  H   UNL     1      -1.372  -3.026  23.989  0.00  0.00    +0.145 HD
ENDBRANCH  25  26
ENDBRANCH  24  25
ENDBRANCH   8  24
ENDBRANCH  21  23
BRANCH  17   1
ATOM      1  O   UNL     1      -0.639   4.073  23.878  0.00  0.00    -0.387 OA
ATOM     29  H   UNL     1      -1.299   4.622  23.420  0.00  0.00    +0.210 HD
ENDBRANCH  17   1
BRANCH  18   2
ATOM      2  O   UNL     1      -2.835   4.569  26.762  0.00  0.00    -0.389 OA
ATOM     30  H   UNL     1      -2.426   5.384  27.099  0.00  0.00    +0.210 HD
ENDBRANCH  18   2
TORSDOF 8
ENDMDL
MODEL 2
REMARK VINA RESULT:      -3.5      1.766      4.326
REMARK  Name = 11865673
REMARK  8 active torsions:
REMARK  status: ('A' for Active; 'I' for Inactive)
REMARK    1  A    between atoms: O_1  and  C_17
REMARK    2  A    between atoms: O_2  and  C_18
REMARK    3  A    between atoms: N_6  and  C_10
REMARK    4  A    between atoms: N_7  and  C_16
REMARK    5  A    between atoms: N_8  and  C_24
REMARK    6  A    between atoms: C_21  and  C_23
REMARK    7  A    between atoms: C_24  and  C_25
REMARK    8  A    between atoms: C_25  and  C_26
REMARK                            x       y       z     vdW  Elec       q    Type
REMARK                         _______ _______ _______ _____ _____    ______ ____
ROOT
ATOM     16  C   UNL     1      -1.308  -0.638  23.938  0.00  0.00    +0.129 C 
ATOM     17  C   UNL     1      -1.488  -1.841  24.883  0.00  0.00    +0.167 C 
ATOM     18  C   UNL     1      -2.969  -2.199  25.060  0.00  0.00    +0.149 C 
ATOM     19  C   UNL     1      -3.798  -1.002  25.557  0.00  0.00    +0.074 C 
ATOM     20  C   UNL     1      -2.279   0.481  24.206  0.00  0.00    +0.006 C 
ATOM     21  C   UNL     1      -3.387   0.304  24.941  0.00  0.00    +0.015 C 
ENDROOT
BRANCH  16   7
ATOM      3  O   UNL     1       0.768  -0.951  21.957  0.00  0.00    -0.253 OA
ATOM      6  N   UNL     1       2.188   0.301  23.300  0.00  0.00    -0.297 N 
ATOM      7  N   UNL     1       0.035  -0.112  23.996  0.00  0.00    -0.291 N 
ATOM     22  C   UNL     1       0.977  -0.314  22.989  0.00  0.00    +0.300 C 
ATOM     27  H   UNL     1       2.235   0.867  24.140  0.00  0.00    +0.151 HD
ATOM     28  H   UNL     1       0.328   0.384  24.833  0.00  0.00    +0.151 HD
BRANCH   6  10
ATOM     10  C   UNL     1       3.340   0.249  22.426  0.00  0.00    +0.074 C 
ATOM     11  C   UNL     1       4.348   1.347  22.778  0.00  0.00    +0.022 C 
ATOM     12  C   UNL     1       3.993  -1.137  22.458  0.00  0.00    +0.022 C 
ATOM     13  C   UNL     1       5.078   1.072  24.094  0.00  0.00    +0.002 C 
ATOM     14  C   UNL     1       4.724  -1.408  23.773  0.00  0.00    +0.002 C 
ATOM     15  C   UNL     1       5.730  -0.309  24.097  0.00  0.00    +0.000 C 
ENDBRANCH   6  10
ENDBRANCH  16   7
BRANCH  21  23
ATOM      4  O   UNL     1      -5.395   1.334  25.597  0.00  0.00    -0.271 OA
ATOM      8  N   UNL     1      -3.674   2.655  24.747  0.00  0.00    -0.311 N 
ATOM     23  C   UNL     1      -4.263   1.465  25.135  0.00  0.00    +0.240 C 
ATOM     31  H   UNL     1      -2.724   2.653  24.385  0.00  0.00    +0.149 HD
BRANCH   8  24
ATOM     24  C   UNL     1      -4.342   3.935  24.841  0.00  0.00    +0.113 C 
BRANCH  24  25
ATOM     25  C   UNL     1      -3.487   4.979  25.542  0.00  0.00    +0.114 C 
BRANCH  25  26
ATOM      5  O   UNL     1      -1.619   3.627  26.302  0.00  0.00    -0.276 OA
ATOM      9  N   UNL     1      -1.199   5.439  24.951  0.00  0.00    -0.329 N 
ATOM     26  C   UNL     1      -2.025   4.587  25.653  0.00  0.00    +0.212 C 
ATOM     32  H   UNL     1      -0.195   5.300  24.939  0.00  0.00    +0.145 HD
ATOM     33  H   UNL     1      -1.558   6.230  24.424  0.00  0.00    +0.145 HD
ENDBRANCH  25  26
ENDBRANCH  24  25
ENDBRANCH   8  24
ENDBRANCH  21  23
BRANCH  17   1
ATOM      1  O   UNL     1      -0.933  -1.533  26.163  0.00  0.00    -0.387 OA
ATOM     29  H   UNL     1      -1.675  -1.405  26.780  0.00  0.00    +0.210 HD
ENDBRANCH  17   1
BRANCH  18   2
ATOM      2  O   UNL     1      -3.506  -2.691  23.834  0.00  0.00    -0.389 OA
ATOM     30  H   UNL     1      -4.032  -3.482  24.040  0.00  0.00    +0.210 HD
ENDBRANCH  18   2
TORSDOF 8
ENDMDL
MODEL 3
REMARK VINA RESULT:      -2.4      2.244      4.009
REMARK  Name = 11865673
REMARK  8 active torsions:
REMARK  status: ('A' for Active; 'I' for Inactive)
REMARK    1  A    between atoms: O_1  and  C_17
REMARK    2  A    between atoms: O_2  and  C_18
REMARK    3  A    between atoms: N_6  and  C_10
REMARK    4  A    between atoms: N_7  and  C_16
REMARK    5  A    between atoms: N_8  and  C_24
REMARK    6  A    between atoms: C_21  and  C_23
REMARK    7  A    between atoms: C_24  and  C_25
REMARK    8  A    between atoms: C_25  and  C_26
REMARK                            x       y       z     vdW  Elec       q    Type
REMARK                         _______ _______ _______ _____ _____    ______ ____
ROOT
ATOM     16  C   UNL     1      -0.827  -0.210  23.931  0.00  0.00    +0.129 C 
ATOM     17  C   UNL     1      -1.245  -1.157  25.071  0.00  0.00    +0.167 C 
ATOM     18  C   UNL     1      -2.764  -1.370  25.095  0.00  0.00    +0.149 C 
ATOM     19  C   UNL     1      -3.534  -0.042  25.196  0.00  0.00    +0.074 C 
ATOM     20  C   UNL     1      -1.714   1.000  23.805  0.00  0.00    +0.006 C 
ATOM     21  C   UNL     1      -2.921   1.064  24.385  0.00  0.00    +0.015 C 
ENDROOT
BRANCH  16   7
ATOM      3  O   UNL     1       1.314  -0.527  22.021  0.00  0.00    -0.253 OA
ATOM      6  N   UNL     1       2.743   0.550  23.499  0.00  0.00    -0.297 N 
ATOM      7  N   UNL     1       0.541   0.228  24.077  0.00  0.00    -0.291 N 
ATOM     22  C   UNL     1       1.514   0.031  23.100  0.00  0.00    +0.300 C 
ATOM     27  H   UNL     1       2.785   1.060  24.375  0.00  0.00    +0.151 HD
ATOM     28  H   UNL     1       0.824   0.652  24.956  0.00  0.00    +0.151 HD
BRANCH   6  10
ATOM     10  C   UNL     1       3.928   0.481  22.671  0.00  0.00    +0.074 C 
ATOM     11  C   UNL     1       5.066   1.315  23.270  0.00  0.00    +0.022 C 
ATOM     12  C   UNL     1       4.361  -0.971  22.449  0.00  0.00    +0.022 C 
ATOM     13  C   UNL     1       5.659   0.680  24.528  0.00  0.00    +0.002 C 
ATOM     14  C   UNL     1       4.956  -1.604  23.708  0.00  0.00    +0.002 C 
ATOM     15  C   UNL     1       6.093  -0.762  24.278  0.00  0.00    +0.000 C 
ENDBRANCH   6  10
ENDBRANCH  16   7
BRANCH  21  23
ATOM      4  O   UNL     1      -4.105   2.617  23.078  0.00  0.00    -0.271 OA
ATOM      8  N   UNL     1      -3.900   2.993  25.369  0.00  0.00    -0.311 N 
ATOM     23  C   UNL     1      -3.700   2.292  24.193  0.00  0.00    +0.240 C 
ATOM     31  H   UNL     1      -3.528   2.630  26.242  0.00  0.00    +0.149 HD
BRANCH   8  24
ATOM     24  C   UNL     1      -4.636   4.236  25.432  0.00  0.00    +0.113 C 
BRANCH  24  25
ATOM     25  C   UNL     1      -6.122   4.012  25.671  0.00  0.00    +0.114 C 
BRANCH  25  26
ATOM      5  O   UNL     1      -6.785   1.842  24.808  0.00  0.00    -0.276 OA
ATOM      9  N   UNL     1      -6.508   2.097  27.076  0.00  0.00    -0.329 N 
ATOM     26  C   UNL     1      -6.502   2.547  25.773  0.00  0.00    +0.212 C 
ATOM     32  H   UNL     1      -6.748   1.136  27.295  0.00  0.00    +0.145 HD
ATOM     33  H   UNL     1      -6.275   2.700  27.859  0.00  0.00    +0.145 HD
ENDBRANCH  25  26
ENDBRANCH  24  25
ENDBRANCH   8  24
ENDBRANCH  21  23
BRANCH  17   1
ATOM      1  O   UNL     1      -0.839  -0.606  26.326  0.00  0.00    -0.387 OA
ATOM     29  H   UNL     1       0.030  -0.985  26.543  0.00  0.00    +0.210 HD
ENDBRANCH  17   1
BRANCH  18   2
ATOM      2  O   UNL     1      -3.178  -2.089  23.935  0.00  0.00    -0.389 OA
ATOM     30  H   UNL     1      -3.388  -1.438  23.245  0.00  0.00    +0.210 HD
ENDBRANCH  18   2
TORSDOF 8
ENDMDL
