MODEL 1
REMARK VINA RESULT:      -1.5      0.000      0.000
REMARK  Name = 11867224
REMARK  5 active torsions:
REMARK  status: ('A' for Active; 'I' for Inactive)
REMARK    1  A    between atoms: S_1  and  N_9
REMARK    2  A    between atoms: S_1  and  C_25
REMARK    3  A    between atoms: N_9  and  C_20
REMARK    4  A    between atoms: C_19  and  C_22
REMARK    5  A    between atoms: C_22  and  C_23
REMARK                            x       y       z     vdW  Elec       q    Type
REMARK                         _______ _______ _______ _____ _____    ______ ____
ROOT
ATOM      3  O   UNL     1      -0.156   2.400  26.302  0.00  0.00    -0.266 OA
ATOM      4  O   UNL     1      -4.958   0.040  26.592  0.00  0.00    -0.275 OA
ATOM      7  N   UNL     1      -5.022   1.860  25.148  0.00  0.00    -0.300 N 
ATOM      8  N   UNL     1      -2.035   2.991  25.032  0.00  0.00    -0.310 N 
ATOM     10  C   UNL     1      -4.145   4.016  26.054  0.00  0.00    +0.027 C 
ATOM     11  C   UNL     1      -4.049   3.579  23.635  0.00  0.00    +0.054 C 
ATOM     12  C   UNL     1      -4.330   4.654  24.682  0.00  0.00    +0.018 C 
ATOM     13  C   UNL     1      -5.115   2.836  26.235  0.00  0.00    +0.113 C 
ATOM     14  C   UNL     1      -2.680   3.587  26.208  0.00  0.00    +0.130 C 
ATOM     15  C   UNL     1      -5.061   2.428  23.792  0.00  0.00    +0.117 C 
ATOM     16  C   UNL     1      -2.635   3.043  23.767  0.00  0.00    +0.027 A 
ATOM     17  C   UNL     1      -1.977   2.596  22.681  0.00  0.00    +0.024 A 
ATOM     18  C   UNL     1      -0.741   2.460  25.221  0.00  0.00    +0.274 A 
ATOM     19  C   UNL     1      -4.991   0.497  25.446  0.00  0.00    +0.220 C 
ATOM     20  C   UNL     1      -0.077   1.962  23.990  0.00  0.00    +0.112 A 
ATOM     21  C   UNL     1      -0.658   2.036  22.792  0.00  0.00    +0.031 A 
ENDROOT
BRANCH  20   9
ATOM      9  N   UNL     1       1.210   1.401  24.058  0.00  0.00    -0.211 N 
ATOM     33  H   UNL     1       1.956   2.096  23.914  0.00  0.00    +0.174 HD
BRANCH   9   1
ATOM      1  S   UNL     1       1.453  -0.071  23.257  0.00  0.00    +0.072 S 
ATOM      5  O   UNL     1       0.860  -1.149  24.025  0.00  0.00    -0.150 OA
ATOM      6  O   UNL     1       1.140   0.082  21.849  0.00  0.00    -0.150 OA
BRANCH   1  25
ATOM     25  C   UNL     1       3.209  -0.232  23.393  0.00  0.00    +0.108 A 
ATOM     28  C   UNL     1       3.746  -1.433  23.821  0.00  0.00    +0.029 A 
ATOM     29  C   UNL     1       4.013   0.847  23.068  0.00  0.00    +0.029 A 
ATOM     30  C   UNL     1       5.131  -1.561  23.928  0.00  0.00    +0.002 A 
ATOM     31  C   UNL     1       5.398   0.720  23.175  0.00  0.00    +0.002 A 
ATOM     32  C   UNL     1       5.957  -0.484  23.605  0.00  0.00    +0.000 A 
ENDBRANCH   1  25
ENDBRANCH   9   1
ENDBRANCH  20   9
BRANCH  19  22
ATOM     22  C   UNL     1      -4.989  -0.452  24.274  0.00  0.00    +0.138 C 
BRANCH  22  23
ATOM      2  S   UNL     1      -2.353  -0.785  25.017  0.00  0.00    -0.101 S 
ATOM     23  C   UNL     1      -3.838  -1.391  24.442  0.00  0.00    -0.001 A 
ATOM     24  C   UNL     1      -3.805  -2.735  24.186  0.00  0.00    +0.011 A 
ATOM     26  C   UNL     1      -2.525  -3.290  24.471  0.00  0.00    +0.008 A 
ATOM     27  C   UNL     1      -1.639  -2.339  24.931  0.00  0.00    +0.045 A 
ENDBRANCH  22  23
ENDBRANCH  19  22
TORSDOF 5
ENDMDL
