MODEL 1
REMARK VINA RESULT:      -4.1      0.000      0.000
REMARK  Name = 28959840
REMARK  8 active torsions:
REMARK  status: ('A' for Active; 'I' for Inactive)
REMARK    1  A    between atoms: O_2  and  C_24
REMARK    2  A    between atoms: N_6  and  C_17
REMARK    3  A    between atoms: C_8  and  C_12
REMARK    4  A    between atoms: C_9  and  C_15
REMARK    5  A    between atoms: C_12  and  C_17
REMARK    6  A    between atoms: C_14  and  C_16
REMARK    7  A    between atoms: C_15  and  C_24
REMARK    8  A    between atoms: C_28  and  C_29
REMARK                            x       y       z     vdW  Elec       q    Type
REMARK                         _______ _______ _______ _____ _____    ______ ____
ROOT
ATOM      1  O   UNL     1      -6.543  -7.485   8.855  0.00  0.00    -0.275 OA
ATOM      5  N   UNL     1      -5.378  -9.345   9.617  0.00  0.00    -0.301 N 
ATOM      8  C   UNL     1      -4.444 -10.736  11.451  0.00  0.00    +0.011 C 
ATOM      9  C   UNL     1      -3.039 -10.170  11.115  0.00  0.00    +0.006 C 
ATOM     10  C   UNL     1      -5.338 -10.693  10.199  0.00  0.00    +0.111 C 
ATOM     11  C   UNL     1      -3.131  -8.780  10.462  0.00  0.00    +0.023 C 
ATOM     13  C   UNL     1      -4.071  -8.795   9.258  0.00  0.00    +0.108 C 
ATOM     16  C   UNL     1      -6.534  -8.605   9.370  0.00  0.00    +0.219 C 
ENDROOT
BRANCH  16  14
ATOM     14  C   UNL     1      -7.833  -9.237   9.769  0.00  0.00    +0.075 C 
ATOM     18  C   UNL     1      -8.185 -10.380   8.812  0.00  0.00    +0.013 C 
ATOM     19  C   UNL     1      -8.978  -8.228   9.668  0.00  0.00    +0.013 C 
ATOM     20  C   UNL     1      -9.568 -10.051   8.259  0.00  0.00    +0.001 C 
ATOM     21  C   UNL     1      -9.648  -8.538   8.337  0.00  0.00    +0.001 C 
ENDBRANCH  16  14
BRANCH   8  12
ATOM     12  C   UNL     1      -5.135 -10.030  12.625  0.00  0.00    +0.020 C 
BRANCH  12  17
ATOM     17  C   UNL     1      -6.544 -10.569  12.829  0.00  0.00    +0.085 C 
BRANCH  17   6
ATOM      4  O   UNL     1      -7.697 -10.642  18.698  0.00  0.00    -0.276 OA
ATOM      6  N   UNL     1      -7.238  -9.775  13.847  0.00  0.00    -0.301 NA
ATOM      7  N   UNL     1      -8.578  -9.669  16.772  0.00  0.00    -0.300 N 
ATOM     22  C   UNL     1      -8.692  -9.931  13.695  0.00  0.00    +0.086 C 
ATOM     23  C   UNL     1      -6.738 -10.139  15.180  0.00  0.00    +0.103 C 
ATOM     25  C   UNL     1      -9.500  -8.922  14.516  0.00  0.00    +0.034 C 
ATOM     26  C   UNL     1      -7.265  -9.237  16.297  0.00  0.00    +0.123 C 
ATOM     27  C   UNL     1      -9.755  -9.354  15.957  0.00  0.00    +0.109 C 
ATOM     28  C   UNL     1      -8.666 -10.361  17.988  0.00  0.00    +0.212 C 
ATOM     29  C   UNL     1     -10.049 -10.781  18.423  0.00  0.00    +0.109 C 
ENDBRANCH  17   6
ENDBRANCH  12  17
ENDBRANCH   8  12
BRANCH   9  15
ATOM     15  C   UNL     1      -2.100 -10.138  12.320  0.00  0.00    +0.124 C 
BRANCH  15  24
ATOM      3  O   UNL     1      -0.282  -9.287  10.939  0.00  0.00    -0.251 OA
ATOM     24  C   UNL     1      -0.840  -9.374  12.022  0.00  0.00    +0.305 C 
BRANCH  24   2
ATOM      2  O   UNL     1      -0.390  -8.774  13.153  0.00  0.00    -0.481 OA
ATOM     30  H   UNL     1      -0.168  -9.429  13.851  0.00  0.00    +0.295 HD
ENDBRANCH  24   2
ENDBRANCH  15  24
ENDBRANCH   9  15
TORSDOF 7
ENDMDL
MODEL 2
REMARK VINA RESULT:      -0.6     14.871     17.998
REMARK  Name = 28959840
REMARK  8 active torsions:
REMARK  status: ('A' for Active; 'I' for Inactive)
REMARK    1  A    between atoms: O_2  and  C_24
REMARK    2  A    between atoms: N_6  and  C_17
REMARK    3  A    between atoms: C_8  and  C_12
REMARK    4  A    between atoms: C_9  and  C_15
REMARK    5  A    between atoms: C_12  and  C_17
REMARK    6  A    between atoms: C_14  and  C_16
REMARK    7  A    between atoms: C_15  and  C_24
REMARK    8  A    between atoms: C_28  and  C_29
REMARK                            x       y       z     vdW  Elec       q    Type
REMARK                         _______ _______ _______ _____ _____    ______ ____
ROOT
ATOM      1  O   UNL     1      -5.603  -0.474  25.017  0.00  0.00    -0.275 OA
ATOM      5  N   UNL     1      -4.253   1.228  24.193  0.00  0.00    -0.301 N 
ATOM      8  C   UNL     1      -2.224   2.656  24.311  0.00  0.00    +0.011 C 
ATOM      9  C   UNL     1      -3.112   3.811  24.843  0.00  0.00    +0.006 C 
ATOM     10  C   UNL     1      -3.071   1.696  23.458  0.00  0.00    +0.111 C 
ATOM     11  C   UNL     1      -4.363   3.276  25.561  0.00  0.00    +0.023 C 
ATOM     13  C   UNL     1      -5.130   2.292  24.680  0.00  0.00    +0.108 C 
ATOM     16  C   UNL     1      -4.589  -0.107  24.418  0.00  0.00    +0.219 C 
ENDROOT
BRANCH  16  14
ATOM     14  C   UNL     1      -3.638  -1.137  23.890  0.00  0.00    +0.075 C 
ATOM     18  C   UNL     1      -4.402  -2.392  23.455  0.00  0.00    +0.013 C 
ATOM     19  C   UNL     1      -2.666  -1.585  24.982  0.00  0.00    +0.013 C 
ATOM     20  C   UNL     1      -3.782  -3.547  24.234  0.00  0.00    +0.001 C 
ATOM     21  C   UNL     1      -3.241  -2.897  25.494  0.00  0.00    +0.001 C 
ENDBRANCH  16  14
BRANCH   8  12
ATOM     12  C   UNL     1      -1.484   1.883  25.410  0.00  0.00    +0.020 C 
BRANCH  12  17
ATOM     17  C   UNL     1      -1.051   0.511  24.910  0.00  0.00    +0.085 C 
BRANCH  17   6
ATOM      4  O   UNL     1       4.231  -1.906  23.480  0.00  0.00    -0.276 OA
ATOM      6  N   UNL     1       0.022   0.659  23.921  0.00  0.00    -0.301 NA
ATOM      7  N   UNL     1       3.089   0.095  23.125  0.00  0.00    -0.300 N 
ATOM     22  C   UNL     1       0.805   1.869  24.212  0.00  0.00    +0.086 C 
ATOM     23  C   UNL     1       0.824  -0.571  23.878  0.00  0.00    +0.103 C 
ATOM     25  C   UNL     1       1.754   2.266  23.078  0.00  0.00    +0.034 C 
ATOM     26  C   UNL     1       1.854  -0.588  22.747  0.00  0.00    +0.123 C 
ATOM     27  C   UNL     1       3.107   1.560  23.123  0.00  0.00    +0.109 C 
ATOM     28  C   UNL     1       4.211  -0.673  23.468  0.00  0.00    +0.212 C 
ATOM     29  C   UNL     1       5.456   0.091  23.851  0.00  0.00    +0.109 C 
ENDBRANCH  17   6
ENDBRANCH  12  17
ENDBRANCH   8  12
BRANCH   9  15
ATOM     15  C   UNL     1      -2.353   4.789  25.739  0.00  0.00    +0.124 C 
BRANCH  15  24
ATOM      3  O   UNL     1      -0.154   5.049  24.721  0.00  0.00    -0.251 OA
ATOM     24  C   UNL     1      -1.260   5.496  24.987  0.00  0.00    +0.305 C 
BRANCH  24   2
ATOM      2  O   UNL     1      -1.677   6.738  24.632  0.00  0.00    -0.481 OA
ATOM     30  H   UNL     1      -1.374   7.421  25.268  0.00  0.00    +0.295 HD
ENDBRANCH  24   2
ENDBRANCH  15  24
ENDBRANCH   9  15
TORSDOF 7
ENDMDL
