MODEL 1
REMARK VINA RESULT:      -4.7      0.000      0.000
REMARK  Name = 56775375
REMARK  3 active torsions:
REMARK  status: ('A' for Active; 'I' for Inactive)
REMARK    1  A    between atoms: N_5  and  C_12
REMARK    2  A    between atoms: N_6  and  C_19
REMARK    3  A    between atoms: C_19  and  C_20
REMARK                            x       y       z     vdW  Elec       q    Type
REMARK                         _______ _______ _______ _____ _____    ______ ____
ROOT
ATOM      1  O   UNL     1      -1.238   2.718  25.284  0.00  0.00    -0.364 OA
ATOM      3  O   UNL     1      -3.412   4.862  27.044  0.00  0.00    -0.273 OA
ATOM      5  N   UNL     1      -2.839   0.624  23.308  0.00  0.00    -0.295 NA
ATOM      6  N   UNL     1      -3.826   3.646  25.104  0.00  0.00    -0.284 N 
ATOM      8  C   UNL     1      -3.319   2.754  24.063  0.00  0.00    +0.121 C 
ATOM      9  C   UNL     1      -1.799   2.664  23.976  0.00  0.00    +0.154 C 
ATOM     10  C   UNL     1      -3.714   1.294  24.268  0.00  0.00    +0.110 C 
ATOM     11  C   UNL     1      -1.523   1.270  23.405  0.00  0.00    +0.118 C 
ATOM     15  C   UNL     1      -3.013   4.182  26.098  0.00  0.00    +0.242 C 
ATOM     16  C   UNL     1      -1.530   3.947  25.908  0.00  0.00    +0.256 C 
ENDROOT
BRANCH   5  12
ATOM      2  O   UNL     1      -3.140  -3.084  25.255  0.00  0.00    -0.380 OA
ATOM     12  C   UNL     1      -2.779  -0.822  23.511  0.00  0.00    +0.061 C 
ATOM     13  C   UNL     1      -4.162  -1.390  23.844  0.00  0.00    +0.047 C 
ATOM     14  C   UNL     1      -1.791  -1.162  24.629  0.00  0.00    +0.047 C 
ATOM     17  C   UNL     1      -4.058  -2.873  24.183  0.00  0.00    +0.161 C 
ATOM     18  C   UNL     1      -1.818  -2.657  24.925  0.00  0.00    +0.161 C 
ENDBRANCH   5  12
BRANCH   6  19
ATOM     19  C   UNL     1      -5.262   3.886  25.127  0.00  0.00    +0.203 C 
BRANCH  19  20
ATOM      4  O   UNL     1      -5.854   2.464  26.995  0.00  0.00    -0.274 OA
ATOM      7  N   UNL     1      -6.695   1.970  24.914  0.00  0.00    -0.328 N 
ATOM     20  C   UNL     1      -5.962   2.729  25.802  0.00  0.00    +0.228 C 
ATOM     21  H   UNL     1      -7.206   1.151  25.225  0.00  0.00    +0.145 HD
ATOM     22  H   UNL     1      -6.757   2.199  23.927  0.00  0.00    +0.145 HD
ENDBRANCH  19  20
ENDBRANCH   6  19
TORSDOF 3
ENDMDL
MODEL 2
REMARK VINA RESULT:      -4.3     14.449     17.224
REMARK  Name = 56775375
REMARK  3 active torsions:
REMARK  status: ('A' for Active; 'I' for Inactive)
REMARK    1  A    between atoms: N_5  and  C_12
REMARK    2  A    between atoms: N_6  and  C_19
REMARK    3  A    between atoms: C_19  and  C_20
REMARK                            x       y       z     vdW  Elec       q    Type
REMARK                         _______ _______ _______ _____ _____    ______ ____
ROOT
ATOM      1  O   UNL     1      -2.760  -9.506  12.052  0.00  0.00    -0.364 OA
ATOM      3  O   UNL     1      -3.910  -8.703   8.819  0.00  0.00    -0.273 OA
ATOM      5  N   UNL     1      -5.138 -10.714  13.987  0.00  0.00    -0.295 NA
ATOM      6  N   UNL     1      -4.872 -10.122  10.394  0.00  0.00    -0.284 N 
ATOM      8  C   UNL     1      -4.789 -10.764  11.703  0.00  0.00    +0.121 C 
ATOM      9  C   UNL     1      -3.406 -10.741  12.347  0.00  0.00    +0.154 C 
ATOM     10  C   UNL     1      -5.648 -10.088  12.768  0.00  0.00    +0.110 C 
ATOM     11  C   UNL     1      -3.676 -10.781  13.854  0.00  0.00    +0.118 C 
ATOM     15  C   UNL     1      -3.847  -9.335   9.875  0.00  0.00    +0.242 C 
ATOM     16  C   UNL     1      -2.558  -9.360  10.666  0.00  0.00    +0.256 C 
ENDROOT
BRANCH   5  12
ATOM      2  O   UNL     1      -6.935 -10.104  17.733  0.00  0.00    -0.380 OA
ATOM     12  C   UNL     1      -5.567 -10.022  15.200  0.00  0.00    +0.061 C 
ATOM     13  C   UNL     1      -4.949 -10.661  16.447  0.00  0.00    +0.047 C 
ATOM     14  C   UNL     1      -7.094 -10.035  15.308  0.00  0.00    +0.047 C 
ATOM     17  C   UNL     1      -5.511 -10.013  17.709  0.00  0.00    +0.161 C 
ATOM     18  C   UNL     1      -7.538  -9.422  16.632  0.00  0.00    +0.161 C 
ENDBRANCH   5  12
BRANCH   6  19
ATOM     19  C   UNL     1      -6.129 -10.254   9.670  0.00  0.00    +0.203 C 
BRANCH  19  20
ATOM      4  O   UNL     1      -7.918  -8.948  10.650  0.00  0.00    -0.274 OA
ATOM      7  N   UNL     1      -6.578  -7.976   9.056  0.00  0.00    -0.328 N 
ATOM     20  C   UNL     1      -6.967  -9.013   9.876  0.00  0.00    +0.228 C 
ATOM     21  H   UNL     1      -7.062  -7.085   9.075  0.00  0.00    +0.145 HD
ATOM     22  H   UNL     1      -5.798  -8.057   8.411  0.00  0.00    +0.145 HD
ENDBRANCH  19  20
ENDBRANCH   6  19
TORSDOF 3
ENDMDL
MODEL 3
REMARK VINA RESULT:      -3.6      2.774      4.456
REMARK  Name = 56775375
REMARK  3 active torsions:
REMARK  status: ('A' for Active; 'I' for Inactive)
REMARK    1  A    between atoms: N_5  and  C_12
REMARK    2  A    between atoms: N_6  and  C_19
REMARK    3  A    between atoms: C_19  and  C_20
REMARK                            x       y       z     vdW  Elec       q    Type
REMARK                         _______ _______ _______ _____ _____    ______ ____
ROOT
ATOM      1  O   UNL     1      -3.084  -0.673  24.967  0.00  0.00    -0.364 OA
ATOM      3  O   UNL     1      -5.461   1.823  24.231  0.00  0.00    -0.273 OA
ATOM      5  N   UNL     1       0.018   0.386  24.636  0.00  0.00    -0.295 NA
ATOM      6  N   UNL     1      -3.216   2.073  24.791  0.00  0.00    -0.284 N 
ATOM      8  C   UNL     1      -1.957   1.449  25.190  0.00  0.00    +0.121 C 
ATOM      9  C   UNL     1      -2.082   0.019  25.706  0.00  0.00    +0.154 C 
ATOM     10  C   UNL     1      -0.966   1.289  24.041  0.00  0.00    +0.110 C 
ATOM     11  C   UNL     1      -0.732  -0.631  25.386  0.00  0.00    +0.118 C 
ATOM     15  C   UNL     1      -4.401   1.357  24.652  0.00  0.00    +0.242 C 
ATOM     16  C   UNL     1      -4.346  -0.073  25.144  0.00  0.00    +0.256 C 
ENDROOT
BRANCH   5  12
ATOM      2  O   UNL     1       2.299   0.042  21.127  0.00  0.00    -0.380 OA
ATOM     12  C   UNL     1       0.927  -0.192  23.648  0.00  0.00    +0.061 C 
ATOM     13  C   UNL     1       2.173   0.680  23.469  0.00  0.00    +0.047 C 
ATOM     14  C   UNL     1       0.212  -0.364  22.305  0.00  0.00    +0.047 C 
ATOM     17  C   UNL     1       3.043   0.135  22.342  0.00  0.00    +0.161 C 
ATOM     18  C   UNL     1       1.190  -0.851  21.242  0.00  0.00    +0.161 C 
ENDBRANCH   5  12
BRANCH   6  19
ATOM     19  C   UNL     1      -3.172   3.486  24.440  0.00  0.00    +0.203 C 
BRANCH  19  20
ATOM      4  O   UNL     1      -3.072   4.309  26.715  0.00  0.00    -0.274 OA
ATOM      7  N   UNL     1      -1.480   5.006  25.211  0.00  0.00    -0.328 N 
ATOM     20  C   UNL     1      -2.589   4.278  25.587  0.00  0.00    +0.228 C 
ATOM     21  H   UNL     1      -0.993   5.597  25.877  0.00  0.00    +0.145 HD
ATOM     22  H   UNL     1      -1.106   4.978  24.268  0.00  0.00    +0.145 HD
ENDBRANCH  19  20
ENDBRANCH   6  19
TORSDOF 3
ENDMDL
MODEL 4
REMARK VINA RESULT:      -3.5      2.526      6.299
REMARK  Name = 56775375
REMARK  3 active torsions:
REMARK  status: ('A' for Active; 'I' for Inactive)
REMARK    1  A    between atoms: N_5  and  C_12
REMARK    2  A    between atoms: N_6  and  C_19
REMARK    3  A    between atoms: C_19  and  C_20
REMARK                            x       y       z     vdW  Elec       q    Type
REMARK                         _______ _______ _______ _____ _____    ______ ____
ROOT
ATOM      1  O   UNL     1      -2.758  -1.013  24.622  0.00  0.00    -0.364 OA
ATOM      3  O   UNL     1       0.469  -2.210  25.378  0.00  0.00    -0.273 OA
ATOM      5  N   UNL     1      -2.743   2.108  23.564  0.00  0.00    -0.295 NA
ATOM      6  N   UNL     1      -0.135  -0.402  24.043  0.00  0.00    -0.284 N 
ATOM      8  C   UNL     1      -1.198   0.395  23.435  0.00  0.00    +0.121 C 
ATOM      9  C   UNL     1      -2.572  -0.267  23.422  0.00  0.00    +0.154 C 
ATOM     10  C   UNL     1      -1.479   1.700  24.175  0.00  0.00    +0.110 C 
ATOM     11  C   UNL     1      -3.566   0.897  23.435  0.00  0.00    +0.118 C 
ATOM     15  C   UNL     1      -0.385  -1.560  24.774  0.00  0.00    +0.242 C 
ATOM     16  C   UNL     1      -1.814  -2.054  24.721  0.00  0.00    +0.256 C 
ENDROOT
BRANCH   5  12
ATOM      2  O   UNL     1      -4.680   4.069  26.732  0.00  0.00    -0.380 OA
ATOM     12  C   UNL     1      -3.412   3.174  24.306  0.00  0.00    +0.061 C 
ATOM     13  C   UNL     1      -2.615   3.559  25.556  0.00  0.00    +0.047 C 
ATOM     14  C   UNL     1      -4.826   2.742  24.701  0.00  0.00    +0.047 C 
ATOM     17  C   UNL     1      -3.390   4.576  26.387  0.00  0.00    +0.161 C 
ATOM     18  C   UNL     1      -5.480   3.803  25.579  0.00  0.00    +0.161 C 
ENDBRANCH   5  12
BRANCH   6  19
ATOM     19  C   UNL     1       1.222   0.118  23.940  0.00  0.00    +0.203 C 
BRANCH  19  20
ATOM      4  O   UNL     1       1.099  -0.610  21.634  0.00  0.00    -0.274 OA
ATOM      7  N   UNL     1       2.967   0.528  22.341  0.00  0.00    -0.328 N 
ATOM     20  C   UNL     1       1.717  -0.026  22.519  0.00  0.00    +0.228 C 
ATOM     21  H   UNL     1       3.430   0.492  21.439  0.00  0.00    +0.145 HD
ATOM     22  H   UNL     1       3.466   0.993  23.092  0.00  0.00    +0.145 HD
ENDBRANCH  19  20
ENDBRANCH   6  19
TORSDOF 3
ENDMDL
MODEL 5
REMARK VINA RESULT:      -3.4      2.070      5.958
REMARK  Name = 56775375
REMARK  3 active torsions:
REMARK  status: ('A' for Active; 'I' for Inactive)
REMARK    1  A    between atoms: N_5  and  C_12
REMARK    2  A    between atoms: N_6  and  C_19
REMARK    3  A    between atoms: C_19  and  C_20
REMARK                            x       y       z     vdW  Elec       q    Type
REMARK                         _______ _______ _______ _____ _____    ______ ____
ROOT
ATOM      1  O   UNL     1      -2.876  -1.228  25.575  0.00  0.00    -0.364 OA
ATOM      3  O   UNL     1       0.541  -2.087  25.496  0.00  0.00    -0.273 OA
ATOM      5  N   UNL     1      -3.588   1.344  23.643  0.00  0.00    -0.295 NA
ATOM      6  N   UNL     1      -0.682  -0.844  23.954  0.00  0.00    -0.284 N 
ATOM      8  C   UNL     1      -1.974  -0.306  23.536  0.00  0.00    +0.121 C 
ATOM      9  C   UNL     1      -3.186  -0.936  24.215  0.00  0.00    +0.154 C 
ATOM     10  C   UNL     1      -2.153   1.173  23.869  0.00  0.00    +0.110 C 
ATOM     11  C   UNL     1      -4.254   0.161  24.203  0.00  0.00    +0.118 C 
ATOM     15  C   UNL     1      -0.537  -1.684  25.054  0.00  0.00    +0.242 C 
ATOM     16  C   UNL     1      -1.834  -2.170  25.665  0.00  0.00    +0.256 C 
ENDROOT
BRANCH   5  12
ATOM      2  O   UNL     1      -4.831   4.168  26.491  0.00  0.00    -0.380 OA
ATOM     12  C   UNL     1      -4.100   2.599  24.191  0.00  0.00    +0.061 C 
ATOM     13  C   UNL     1      -3.060   3.275  25.088  0.00  0.00    +0.047 C 
ATOM     14  C   UNL     1      -5.388   2.348  24.980  0.00  0.00    +0.047 C 
ATOM     17  C   UNL     1      -3.657   4.509  25.755  0.00  0.00    +0.161 C 
ATOM     18  C   UNL     1      -5.856   3.633  25.653  0.00  0.00    +0.161 C 
ENDBRANCH   5  12
BRANCH   6  19
ATOM     19  C   UNL     1       0.493  -0.388  23.224  0.00  0.00    +0.203 C 
BRANCH  19  20
ATOM      4  O   UNL     1       0.461   1.497  24.744  0.00  0.00    -0.274 OA
ATOM      7  N   UNL     1       2.283   1.207  23.372  0.00  0.00    -0.328 N 
ATOM     20  C   UNL     1       1.053   0.851  23.884  0.00  0.00    +0.228 C 
ATOM     21  H   UNL     1       2.771   2.029  23.711  0.00  0.00    +0.145 HD
ATOM     22  H   UNL     1       2.747   0.666  22.650  0.00  0.00    +0.145 HD
ENDBRANCH  19  20
ENDBRANCH   6  19
TORSDOF 3
ENDMDL
MODEL 6
REMARK VINA RESULT:      -3.3     14.230     16.474
REMARK  Name = 56775375
REMARK  3 active torsions:
REMARK  status: ('A' for Active; 'I' for Inactive)
REMARK    1  A    between atoms: N_5  and  C_12
REMARK    2  A    between atoms: N_6  and  C_19
REMARK    3  A    between atoms: C_19  and  C_20
REMARK                            x       y       z     vdW  Elec       q    Type
REMARK                         _______ _______ _______ _____ _____    ______ ____
ROOT
ATOM      1  O   UNL     1      -0.972  -8.820  13.900  0.00  0.00    -0.364 OA
ATOM      3  O   UNL     1      -1.278  -8.594  10.397  0.00  0.00    -0.273 OA
ATOM      5  N   UNL     1      -3.310 -10.698  15.264  0.00  0.00    -0.295 NA
ATOM      6  N   UNL     1      -2.168 -10.194  11.833  0.00  0.00    -0.284 N 
ATOM      8  C   UNL     1      -2.287 -10.715  13.193  0.00  0.00    +0.121 C 
ATOM      9  C   UNL     1      -1.248 -10.190  14.178  0.00  0.00    +0.154 C 
ATOM     10  C   UNL     1      -3.598 -10.336  13.877  0.00  0.00    +0.110 C 
ATOM     11  C   UNL     1      -1.936 -10.261  15.545  0.00  0.00    +0.118 C 
ATOM     15  C   UNL     1      -1.341  -9.123  11.507  0.00  0.00    +0.242 C 
ATOM     16  C   UNL     1      -0.416  -8.668  12.615  0.00  0.00    +0.256 C 
ENDROOT
BRANCH   5  12
ATOM      2  O   UNL     1      -6.519 -10.578  17.969  0.00  0.00    -0.380 OA
ATOM     12  C   UNL     1      -4.285 -10.150  16.205  0.00  0.00    +0.061 C 
ATOM     13  C   UNL     1      -4.127 -10.780  17.592  0.00  0.00    +0.047 C 
ATOM     14  C   UNL     1      -5.708 -10.373  15.688  0.00  0.00    +0.047 C 
ATOM     17  C   UNL     1      -5.234 -10.297  18.523  0.00  0.00    +0.161 C 
ATOM     18  C   UNL     1      -6.728  -9.912  16.723  0.00  0.00    +0.161 C 
ENDBRANCH   5  12
BRANCH   6  19
ATOM     19  C   UNL     1      -3.035 -10.781  10.821  0.00  0.00    +0.203 C 
BRANCH  19  20
ATOM      4  O   UNL     1      -4.823  -9.174  11.115  0.00  0.00    -0.274 OA
ATOM      7  N   UNL     1      -4.042  -9.591   8.994  0.00  0.00    -0.328 N 
ATOM     20  C   UNL     1      -4.048  -9.758  10.362  0.00  0.00    +0.228 C 
ATOM     21  H   UNL     1      -4.681  -8.945   8.544  0.00  0.00    +0.145 HD
ATOM     22  H   UNL     1      -3.402 -10.095   8.388  0.00  0.00    +0.145 HD
ENDBRANCH  19  20
ENDBRANCH   6  19
TORSDOF 3
ENDMDL
MODEL 7
REMARK VINA RESULT:      -2.4      2.012      3.384
REMARK  Name = 56775375
REMARK  3 active torsions:
REMARK  status: ('A' for Active; 'I' for Inactive)
REMARK    1  A    between atoms: N_5  and  C_12
REMARK    2  A    between atoms: N_6  and  C_19
REMARK    3  A    between atoms: C_19  and  C_20
REMARK                            x       y       z     vdW  Elec       q    Type
REMARK                         _______ _______ _______ _____ _____    ______ ____
ROOT
ATOM      1  O   UNL     1      -4.060   3.280  23.717  0.00  0.00    -0.364 OA
ATOM      3  O   UNL     1      -1.575   5.598  24.649  0.00  0.00    -0.273 OA
ATOM      5  N   UNL     1      -3.625   0.321  25.100  0.00  0.00    -0.295 NA
ATOM      6  N   UNL     1      -2.194   3.624  25.714  0.00  0.00    -0.284 N 
ATOM      8  C   UNL     1      -3.084   2.466  25.768  0.00  0.00    +0.121 C 
ATOM      9  C   UNL     1      -4.351   2.587  24.927  0.00  0.00    +0.154 C 
ATOM     10  C   UNL     1      -2.454   1.190  25.216  0.00  0.00    +0.110 C 
ATOM     11  C   UNL     1      -4.718   1.145  24.565  0.00  0.00    +0.118 C 
ATOM     15  C   UNL     1      -2.352   4.652  24.789  0.00  0.00    +0.242 C 
ATOM     16  C   UNL     1      -3.628   4.594  23.979  0.00  0.00    +0.256 C 
ENDROOT
BRANCH   5  12
ATOM      2  O   UNL     1      -3.301  -3.744  24.099  0.00  0.00    -0.380 OA
ATOM     12  C   UNL     1      -3.366  -0.872  24.297  0.00  0.00    +0.061 C 
ATOM     13  C   UNL     1      -4.636  -1.714  24.136  0.00  0.00    +0.047 C 
ATOM     14  C   UNL     1      -2.259  -1.714  24.936  0.00  0.00    +0.047 C 
ATOM     17  C   UNL     1      -4.319  -3.018  23.412  0.00  0.00    +0.161 C 
ATOM     18  C   UNL     1      -2.073  -3.017  24.168  0.00  0.00    +0.161 C 
ENDBRANCH   5  12
BRANCH   6  19
ATOM     19  C   UNL     1      -1.052   3.623  26.618  0.00  0.00    +0.203 C 
BRANCH  19  20
ATOM      4  O   UNL     1       0.221   2.673  24.789  0.00  0.00    -0.274 OA
ATOM      7  N   UNL     1       0.934   2.312  26.945  0.00  0.00    -0.328 N 
ATOM     20  C   UNL     1       0.088   2.848  25.997  0.00  0.00    +0.228 C 
ATOM     21  H   UNL     1       1.736   1.753  26.672  0.00  0.00    +0.145 HD
ATOM     22  H   UNL     1       0.796   2.456  27.940  0.00  0.00    +0.145 HD
ENDBRANCH  19  20
ENDBRANCH   6  19
TORSDOF 3
ENDMDL
MODEL 8
REMARK VINA RESULT:      -1.8      3.949      5.846
REMARK  Name = 56775375
REMARK  3 active torsions:
REMARK  status: ('A' for Active; 'I' for Inactive)
REMARK    1  A    between atoms: N_5  and  C_12
REMARK    2  A    between atoms: N_6  and  C_19
REMARK    3  A    between atoms: C_19  and  C_20
REMARK                            x       y       z     vdW  Elec       q    Type
REMARK                         _______ _______ _______ _____ _____    ______ ____
ROOT
ATOM      1  O   UNL     1       0.110   1.375  25.244  0.00  0.00    -0.364 OA
ATOM      3  O   UNL     1      -2.326  -0.783  26.596  0.00  0.00    -0.273 OA
ATOM      5  N   UNL     1       1.723   0.041  22.700  0.00  0.00    -0.295 NA
ATOM      6  N   UNL     1      -1.330  -0.851  24.494  0.00  0.00    -0.284 N 
ATOM      8  C   UNL     1      -0.414  -0.242  23.532  0.00  0.00    +0.121 C 
ATOM      9  C   UNL     1      -0.024   1.201  23.837  0.00  0.00    +0.154 C 
ATOM     10  C   UNL     1       0.945  -0.933  23.464  0.00  0.00    +0.110 C 
ATOM     11  C   UNL     1       1.363   1.371  23.210  0.00  0.00    +0.118 C 
ATOM     15  C   UNL     1      -1.634  -0.264  25.719  0.00  0.00    +0.242 C 
ATOM     16  C   UNL     1      -1.115   1.146  25.900  0.00  0.00    +0.256 C 
ENDROOT
BRANCH   5  12
ATOM      2  O   UNL     1       5.602  -0.274  24.277  0.00  0.00    -0.380 OA
ATOM     12  C   UNL     1       3.160  -0.217  22.752  0.00  0.00    +0.061 C 
ATOM     13  C   UNL     1       3.484  -1.339  23.744  0.00  0.00    +0.047 C 
ATOM     14  C   UNL     1       3.917   1.056  23.138  0.00  0.00    +0.047 C 
ATOM     17  C   UNL     1       4.993  -1.504  23.884  0.00  0.00    +0.161 C 
ATOM     18  C   UNL     1       5.402   0.759  23.312  0.00  0.00    +0.161 C 
ENDBRANCH   5  12
BRANCH   6  19
ATOM     19  C   UNL     1      -1.854  -2.169  24.166  0.00  0.00    +0.203 C 
BRANCH  19  20
ATOM      4  O   UNL     1      -4.046  -3.102  24.601  0.00  0.00    -0.274 OA
ATOM      7  N   UNL     1      -3.893  -0.956  23.793  0.00  0.00    -0.328 N 
ATOM     20  C   UNL     1      -3.364  -2.149  24.236  0.00  0.00    +0.228 C 
ATOM     21  H   UNL     1      -4.896  -0.806  23.770  0.00  0.00    +0.145 HD
ATOM     22  H   UNL     1      -3.310  -0.186  23.481  0.00  0.00    +0.145 HD
ENDBRANCH  19  20
ENDBRANCH   6  19
TORSDOF 3
ENDMDL
MODEL 9
REMARK VINA RESULT:      -1.7     17.305     19.600
REMARK  Name = 56775375
REMARK  3 active torsions:
REMARK  status: ('A' for Active; 'I' for Inactive)
REMARK    1  A    between atoms: N_5  and  C_12
REMARK    2  A    between atoms: N_6  and  C_19
REMARK    3  A    between atoms: C_19  and  C_20
REMARK                            x       y       z     vdW  Elec       q    Type
REMARK                         _______ _______ _______ _____ _____    ______ ____
ROOT
ATOM      1  O   UNL     1      14.080   6.470  17.737  0.00  0.00    -0.364 OA
ATOM      3  O   UNL     1      17.394   5.793  18.725  0.00  0.00    -0.273 OA
ATOM      5  N   UNL     1      12.605   8.697  19.666  0.00  0.00    -0.295 NA
ATOM      6  N   UNL     1      16.073   7.640  19.236  0.00  0.00    -0.284 N 
ATOM      8  C   UNL     1      14.808   8.350  19.063  0.00  0.00    +0.121 C 
ATOM      9  C   UNL     1      13.963   7.883  17.882  0.00  0.00    +0.154 C 
ATOM     10  C   UNL     1      13.846   8.173  20.234  0.00  0.00    +0.110 C 
ATOM     11  C   UNL     1      12.519   8.194  18.288  0.00  0.00    +0.118 C 
ATOM     15  C   UNL     1      16.382   6.472  18.544  0.00  0.00    +0.242 C 
ATOM     16  C   UNL     1      15.408   6.101  17.447  0.00  0.00    +0.256 C 
ENDROOT
BRANCH   5  12
ATOM      2  O   UNL     1      10.330   7.215  22.869  0.00  0.00    -0.380 OA
ATOM     12  C   UNL     1      11.430   8.361  20.468  0.00  0.00    +0.061 C 
ATOM     13  C   UNL     1      11.452   9.094  21.812  0.00  0.00    +0.047 C 
ATOM     14  C   UNL     1      11.357   6.849  20.697  0.00  0.00    +0.047 C 
ATOM     17  C   UNL     1      10.293   8.631  22.688  0.00  0.00    +0.161 C 
ATOM     18  C   UNL     1      10.203   6.510  21.634  0.00  0.00    +0.161 C 
ENDBRANCH   5  12
BRANCH   6  19
ATOM     19  C   UNL     1      16.985   8.151  20.250  0.00  0.00    +0.203 C 
BRANCH  19  20
ATOM      4  O   UNL     1      15.982   8.680  22.390  0.00  0.00    -0.274 OA
ATOM      7  N   UNL     1      16.575   6.503  21.949  0.00  0.00    -0.328 N 
ATOM     20  C   UNL     1      16.444   7.837  21.626  0.00  0.00    +0.228 C 
ATOM     21  H   UNL     1      16.267   6.151  22.849  0.00  0.00    +0.145 HD
ATOM     22  H   UNL     1      16.973   5.826  21.307  0.00  0.00    +0.145 HD
ENDBRANCH  19  20
ENDBRANCH   6  19
TORSDOF 3
ENDMDL
MODEL 10
REMARK VINA RESULT:      -1.2      1.954      6.149
REMARK  Name = 56775375
REMARK  3 active torsions:
REMARK  status: ('A' for Active; 'I' for Inactive)
REMARK    1  A    between atoms: N_5  and  C_12
REMARK    2  A    between atoms: N_6  and  C_19
REMARK    3  A    between atoms: C_19  and  C_20
REMARK                            x       y       z     vdW  Elec       q    Type
REMARK                         _______ _______ _______ _____ _____    ______ ____
ROOT
ATOM      1  O   UNL     1      -3.677  -0.765  24.183  0.00  0.00    -0.364 OA
ATOM      3  O   UNL     1      -1.045  -2.869  25.213  0.00  0.00    -0.273 OA
ATOM      5  N   UNL     1      -2.692   2.331  23.632  0.00  0.00    -0.295 NA
ATOM      6  N   UNL     1      -0.925  -0.830  24.099  0.00  0.00    -0.284 N 
ATOM      8  C   UNL     1      -1.626   0.287  23.471  0.00  0.00    +0.121 C 
ATOM      9  C   UNL     1      -3.096   0.029  23.153  0.00  0.00    +0.154 C 
ATOM     10  C   UNL     1      -1.703   1.530  24.353  0.00  0.00    +0.110 C 
ATOM     11  C   UNL     1      -3.753   1.411  23.198  0.00  0.00    +0.118 C 
ATOM     15  C   UNL     1      -1.585  -1.949  24.597  0.00  0.00    +0.242 C 
ATOM     16  C   UNL     1      -3.058  -2.027  24.258  0.00  0.00    +0.256 C 
ENDROOT
BRANCH   5  12
ATOM      2  O   UNL     1      -3.543   4.694  26.997  0.00  0.00    -0.380 OA
ATOM     12  C   UNL     1      -3.198   3.451  24.423  0.00  0.00    +0.061 C 
ATOM     13  C   UNL     1      -2.058   4.176  25.144  0.00  0.00    +0.047 C 
ATOM     14  C   UNL     1      -4.232   2.960  25.440  0.00  0.00    +0.047 C 
ATOM     17  C   UNL     1      -2.616   5.254  26.067  0.00  0.00    +0.161 C 
ATOM     18  C   UNL     1      -4.669   4.105  26.347  0.00  0.00    +0.161 C 
ENDBRANCH   5  12
BRANCH   6  19
ATOM     19  C   UNL     1       0.514  -0.691  24.279  0.00  0.00    +0.203 C 
BRANCH  19  20
ATOM      4  O   UNL     1       1.155   1.555  23.637  0.00  0.00    -0.274 OA
ATOM      7  N   UNL     1       1.343  -0.138  22.094  0.00  0.00    -0.328 N 
ATOM     20  C   UNL     1       1.045   0.369  23.341  0.00  0.00    +0.228 C 
ATOM     21  H   UNL     1       1.695   0.463  21.356  0.00  0.00    +0.145 HD
ATOM     22  H   UNL     1       1.229  -1.120  21.866  0.00  0.00    +0.145 HD
ENDBRANCH  19  20
ENDBRANCH   6  19
TORSDOF 3
ENDMDL
