MODEL 1
REMARK VINA RESULT:      -4.4      0.000      0.000
REMARK  Name = 28959636
REMARK  10 active torsions:
REMARK  status: ('A' for Active; 'I' for Inactive)
REMARK    1  A    between atoms: O_2  and  C_23
REMARK    2  A    between atoms: O_5  and  C_24
REMARK    3  A    between atoms: O_5  and  C_25
REMARK    4  A    between atoms: N_6  and  C_14
REMARK    5  A    between atoms: C_9  and  C_11
REMARK    6  A    between atoms: C_10  and  C_17
REMARK    7  A    between atoms: C_11  and  C_14
REMARK    8  A    between atoms: C_16  and  C_22
REMARK    9  A    between atoms: C_17  and  C_23
REMARK   10  A    between atoms: C_21  and  C_24
REMARK                            x       y       z     vdW  Elec       q    Type
REMARK                         _______ _______ _______ _____ _____    ______ ____
ROOT
ATOM      1  O   UNL     1       1.056   3.081  23.610  0.00  0.00    -0.272 OA
ATOM      7  N   UNL     1      -0.754   2.614  24.988  0.00  0.00    -0.298 N 
ATOM      9  C   UNL     1      -3.112   1.910  25.335  0.00  0.00    +0.011 C 
ATOM     10  C   UNL     1      -3.477   3.394  25.594  0.00  0.00    +0.006 C 
ATOM     12  C   UNL     1      -1.632   1.667  25.688  0.00  0.00    +0.111 C 
ATOM     13  C   UNL     1      -2.502   4.349  24.886  0.00  0.00    +0.023 C 
ATOM     15  C   UNL     1      -1.053   4.024  25.239  0.00  0.00    +0.108 C 
ATOM     21  C   UNL     1       0.315   2.266  24.165  0.00  0.00    +0.253 C 
ENDROOT
BRANCH   9  11
ATOM     11  C   UNL     1      -3.403   1.438  23.906  0.00  0.00    +0.021 C 
BRANCH  11  14
ATOM     14  C   UNL     1      -2.342   0.454  23.432  0.00  0.00    +0.085 C 
BRANCH  14   6
ATOM      6  N   UNL     1      -2.807  -0.911  23.635  0.00  0.00    -0.291 NA
ATOM     16  C   UNL     1      -2.424  -1.463  24.938  0.00  0.00    +0.143 C 
ATOM     18  C   UNL     1      -4.265  -1.016  23.552  0.00  0.00    +0.085 C 
ATOM     19  C   UNL     1      -3.536  -2.441  25.316  0.00  0.00    +0.029 C 
ATOM     20  C   UNL     1      -4.515  -2.385  24.152  0.00  0.00    +0.017 C 
BRANCH  16  22
ATOM      3  O   UNL     1      -0.945  -2.992  23.855  0.00  0.00    -0.274 OA
ATOM      8  N   UNL     1      -0.163  -1.821  25.674  0.00  0.00    -0.328 N 
ATOM     22  C   UNL     1      -1.120  -2.168  24.750  0.00  0.00    +0.228 C 
ATOM     31  H   UNL     1      -0.337  -1.144  26.411  0.00  0.00    +0.145 HD
ATOM     32  H   UNL     1       0.763  -2.236  25.647  0.00  0.00    +0.145 HD
ENDBRANCH  16  22
ENDBRANCH  14   6
ENDBRANCH  11  14
ENDBRANCH   9  11
BRANCH  10  17
ATOM     17  C   UNL     1      -4.923   3.730  25.228  0.00  0.00    +0.124 C 
BRANCH  17  23
ATOM      4  O   UNL     1      -6.342   1.791  24.818  0.00  0.00    -0.251 OA
ATOM     23  C   UNL     1      -5.861   2.611  25.586  0.00  0.00    +0.305 C 
BRANCH  23   2
ATOM      2  O   UNL     1      -6.112   2.633  26.921  0.00  0.00    -0.481 OA
ATOM     33  H   UNL     1      -6.398   3.521  27.224  0.00  0.00    +0.295 HD
ENDBRANCH  23   2
ENDBRANCH  17  23
ENDBRANCH  10  17
BRANCH  21  24
ATOM     24  C   UNL     1       0.556   0.793  23.955  0.00  0.00    +0.324 C 
BRANCH  24   5
ATOM      5  O   UNL     1       1.429   0.678  22.858  0.00  0.00    -0.483 OA
BRANCH   5  25
ATOM     25  C   UNL     1       2.715   0.257  23.115  0.00  0.00    +0.121 A 
ATOM     26  C   UNL     1       2.950  -1.053  23.532  0.00  0.00    +0.045 A 
ATOM     27  C   UNL     1       3.782   1.141  22.956  0.00  0.00    +0.045 A 
ATOM     28  C   UNL     1       4.252  -1.480  23.792  0.00  0.00    +0.004 A 
ATOM     29  C   UNL     1       5.085   0.713  23.216  0.00  0.00    +0.004 A 
ATOM     30  C   UNL     1       5.320  -0.597  23.633  0.00  0.00    +0.000 A 
ENDBRANCH   5  25
ENDBRANCH  24   5
ENDBRANCH  21  24
TORSDOF 10
ENDMDL
MODEL 2
REMARK VINA RESULT:      -4.0      1.355      4.160
REMARK  Name = 28959636
REMARK  10 active torsions:
REMARK  status: ('A' for Active; 'I' for Inactive)
REMARK    1  A    between atoms: O_2  and  C_23
REMARK    2  A    between atoms: O_5  and  C_24
REMARK    3  A    between atoms: O_5  and  C_25
REMARK    4  A    between atoms: N_6  and  C_14
REMARK    5  A    between atoms: C_9  and  C_11
REMARK    6  A    between atoms: C_10  and  C_17
REMARK    7  A    between atoms: C_11  and  C_14
REMARK    8  A    between atoms: C_16  and  C_22
REMARK    9  A    between atoms: C_17  and  C_23
REMARK   10  A    between atoms: C_21  and  C_24
REMARK                            x       y       z     vdW  Elec       q    Type
REMARK                         _______ _______ _______ _____ _____    ______ ____
ROOT
ATOM      1  O   UNL     1      -0.036  -1.889  24.509  0.00  0.00    -0.272 OA
ATOM      7  N   UNL     1      -1.927  -0.664  23.947  0.00  0.00    -0.298 N 
ATOM      9  C   UNL     1      -3.551   1.169  24.377  0.00  0.00    +0.011 C 
ATOM     10  C   UNL     1      -4.560   0.105  24.879  0.00  0.00    +0.006 C 
ATOM     12  C   UNL     1      -2.571   0.527  23.377  0.00  0.00    +0.111 C 
ATOM     13  C   UNL     1      -3.845  -1.144  25.421  0.00  0.00    +0.023 C 
ATOM     15  C   UNL     1      -2.854  -1.701  24.401  0.00  0.00    +0.108 C 
ATOM     21  C   UNL     1      -0.553  -0.867  24.049  0.00  0.00    +0.253 C 
ENDROOT
BRANCH   9  11
ATOM     11  C   UNL     1      -2.780   1.874  25.499  0.00  0.00    +0.021 C 
BRANCH  11  14
ATOM     14  C   UNL     1      -3.181   3.340  25.595  0.00  0.00    +0.085 C 
BRANCH  14   6
ATOM      6  N   UNL     1      -1.991   4.178  25.618  0.00  0.00    -0.291 NA
ATOM     16  C   UNL     1      -0.838   3.560  24.956  0.00  0.00    +0.143 C 
ATOM     18  C   UNL     1      -2.209   5.466  24.957  0.00  0.00    +0.085 C 
ATOM     19  C   UNL     1      -0.022   4.718  24.382  0.00  0.00    +0.029 C 
ATOM     20  C   UNL     1      -0.790   5.970  24.778  0.00  0.00    +0.017 C 
BRANCH  16  22
ATOM      3  O   UNL     1      -0.311   2.955  27.204  0.00  0.00    -0.274 OA
ATOM      8  N   UNL     1       0.919   2.012  25.504  0.00  0.00    -0.328 N 
ATOM     22  C   UNL     1      -0.072   2.822  26.007  0.00  0.00    +0.228 C 
ATOM     31  H   UNL     1       1.103   1.929  24.509  0.00  0.00    +0.145 HD
ATOM     32  H   UNL     1       1.507   1.462  26.122  0.00  0.00    +0.145 HD
ENDBRANCH  16  22
ENDBRANCH  14   6
ENDBRANCH  11  14
ENDBRANCH   9  11
BRANCH  10  17
ATOM     17  C   UNL     1      -5.546   0.652  25.912  0.00  0.00    +0.124 C 
BRANCH  17  23
ATOM      4  O   UNL     1      -6.974   1.844  24.338  0.00  0.00    -0.251 OA
ATOM     23  C   UNL     1      -6.326   1.819  25.373  0.00  0.00    +0.305 C 
BRANCH  23   2
ATOM      2  O   UNL     1      -6.209   2.877  26.216  0.00  0.00    -0.481 OA
ATOM     33  H   UNL     1      -5.509   3.500  25.927  0.00  0.00    +0.295 HD
ENDBRANCH  23   2
ENDBRANCH  17  23
ENDBRANCH  10  17
BRANCH  21  24
ATOM     24  C   UNL     1       0.335   0.250  23.562  0.00  0.00    +0.324 C 
BRANCH  24   5
ATOM      5  O   UNL     1       1.247  -0.324  22.658  0.00  0.00    -0.483 OA
BRANCH   5  25
ATOM     25  C   UNL     1       2.587  -0.215  22.956  0.00  0.00    +0.121 A 
ATOM     26  C   UNL     1       3.260  -1.283  23.547  0.00  0.00    +0.045 A 
ATOM     27  C   UNL     1       3.271   0.966  22.667  0.00  0.00    +0.045 A 
ATOM     28  C   UNL     1       4.618  -1.173  23.849  0.00  0.00    +0.004 A 
ATOM     29  C   UNL     1       4.628   1.077  22.969  0.00  0.00    +0.004 A 
ATOM     30  C   UNL     1       5.302   0.007  23.559  0.00  0.00    +0.000 A 
ENDBRANCH   5  25
ENDBRANCH  24   5
ENDBRANCH  21  24
TORSDOF 10
ENDMDL
MODEL 3
REMARK VINA RESULT:      -4.0      1.514      4.515
REMARK  Name = 28959636
REMARK  10 active torsions:
REMARK  status: ('A' for Active; 'I' for Inactive)
REMARK    1  A    between atoms: O_2  and  C_23
REMARK    2  A    between atoms: O_5  and  C_24
REMARK    3  A    between atoms: O_5  and  C_25
REMARK    4  A    between atoms: N_6  and  C_14
REMARK    5  A    between atoms: C_9  and  C_11
REMARK    6  A    between atoms: C_10  and  C_17
REMARK    7  A    between atoms: C_11  and  C_14
REMARK    8  A    between atoms: C_16  and  C_22
REMARK    9  A    between atoms: C_17  and  C_23
REMARK   10  A    between atoms: C_21  and  C_24
REMARK                            x       y       z     vdW  Elec       q    Type
REMARK                         _______ _______ _______ _____ _____    ______ ____
ROOT
ATOM      1  O   UNL     1       0.280  -2.111  24.793  0.00  0.00    -0.272 OA
ATOM      7  N   UNL     1      -1.672  -0.995  24.211  0.00  0.00    -0.298 N 
ATOM      9  C   UNL     1      -3.352   0.801  24.569  0.00  0.00    +0.011 C 
ATOM     10  C   UNL     1      -4.305  -0.262  25.171  0.00  0.00    +0.006 C 
ATOM     12  C   UNL     1      -2.377   0.130  23.584  0.00  0.00    +0.111 C 
ATOM     13  C   UNL     1      -3.528  -1.446  25.771  0.00  0.00    +0.023 C 
ATOM     15  C   UNL     1      -2.545  -2.033  24.760  0.00  0.00    +0.108 C 
ATOM     21  C   UNL     1      -0.288  -1.141  24.284  0.00  0.00    +0.253 C 
ENDROOT
BRANCH   9  11
ATOM     11  C   UNL     1      -2.578   1.607  25.619  0.00  0.00    +0.021 C 
BRANCH  11  14
ATOM     14  C   UNL     1      -1.257   2.111  25.051  0.00  0.00    +0.085 C 
BRANCH  14   6
ATOM      6  N   UNL     1      -1.409   3.482  24.586  0.00  0.00    -0.291 NA
ATOM     16  C   UNL     1      -2.448   4.224  25.308  0.00  0.00    +0.143 C 
ATOM     18  C   UNL     1      -0.173   4.254  24.728  0.00  0.00    +0.085 C 
ATOM     19  C   UNL     1      -1.988   5.682  25.311  0.00  0.00    +0.029 C 
ATOM     20  C   UNL     1      -0.669   5.675  24.553  0.00  0.00    +0.017 C 
BRANCH  16  22
ATOM      3  O   UNL     1      -3.731   3.766  23.348  0.00  0.00    -0.274 OA
ATOM      8  N   UNL     1      -4.852   4.273  25.292  0.00  0.00    -0.328 N 
ATOM     22  C   UNL     1      -3.720   4.055  24.542  0.00  0.00    +0.228 C 
ATOM     31  H   UNL     1      -4.815   4.522  26.275  0.00  0.00    +0.145 HD
ATOM     32  H   UNL     1      -5.776   4.189  24.879  0.00  0.00    +0.145 HD
ENDBRANCH  16  22
ENDBRANCH  14   6
ENDBRANCH  11  14
ENDBRANCH   9  11
BRANCH  10  17
ATOM     17  C   UNL     1      -5.281   0.316  26.195  0.00  0.00    +0.124 C 
BRANCH  17  23
ATOM      4  O   UNL     1      -6.382   1.627  24.461  0.00  0.00    -0.251 OA
ATOM     23  C   UNL     1      -6.063   1.468  25.629  0.00  0.00    +0.305 C 
BRANCH  23   2
ATOM      2  O   UNL     1      -6.377   2.341  26.622  0.00  0.00    -0.481 OA
ATOM     33  H   UNL     1      -7.111   2.938  26.365  0.00  0.00    +0.295 HD
ENDBRANCH  23   2
ENDBRANCH  17  23
ENDBRANCH  10  17
BRANCH  21  24
ATOM     24  C   UNL     1       0.542  -0.028  23.698  0.00  0.00    +0.324 C 
BRANCH  24   5
ATOM      5  O   UNL     1       1.478  -0.631  22.838  0.00  0.00    -0.483 OA
BRANCH   5  25
ATOM     25  C   UNL     1       2.811  -0.378  23.077  0.00  0.00    +0.121 A 
ATOM     26  C   UNL     1       3.370   0.839  22.692  0.00  0.00    +0.045 A 
ATOM     27  C   UNL     1       3.600  -1.342  23.704  0.00  0.00    +0.045 A 
ATOM     28  C   UNL     1       4.720   1.095  22.934  0.00  0.00    +0.004 A 
ATOM     29  C   UNL     1       4.950  -1.086  23.947  0.00  0.00    +0.004 A 
ATOM     30  C   UNL     1       5.510   0.132  23.563  0.00  0.00    +0.000 A 
ENDBRANCH   5  25
ENDBRANCH  24   5
ENDBRANCH  21  24
TORSDOF 10
ENDMDL
MODEL 4
REMARK VINA RESULT:      -3.2      2.118      5.634
REMARK  Name = 28959636
REMARK  10 active torsions:
REMARK  status: ('A' for Active; 'I' for Inactive)
REMARK    1  A    between atoms: O_2  and  C_23
REMARK    2  A    between atoms: O_5  and  C_24
REMARK    3  A    between atoms: O_5  and  C_25
REMARK    4  A    between atoms: N_6  and  C_14
REMARK    5  A    between atoms: C_9  and  C_11
REMARK    6  A    between atoms: C_10  and  C_17
REMARK    7  A    between atoms: C_11  and  C_14
REMARK    8  A    between atoms: C_16  and  C_22
REMARK    9  A    between atoms: C_17  and  C_23
REMARK   10  A    between atoms: C_21  and  C_24
REMARK                            x       y       z     vdW  Elec       q    Type
REMARK                         _______ _______ _______ _____ _____    ______ ____
ROOT
ATOM      1  O   UNL     1      -5.926   2.196  26.867  0.00  0.00    -0.272 OA
ATOM      7  N   UNL     1      -4.506   3.278  25.380  0.00  0.00    -0.298 N 
ATOM      9  C   UNL     1      -2.443   3.362  23.996  0.00  0.00    +0.011 C 
ATOM     10  C   UNL     1      -1.813   4.296  25.060  0.00  0.00    +0.006 C 
ATOM     12  C   UNL     1      -3.978   3.496  24.027  0.00  0.00    +0.111 C 
ATOM     13  C   UNL     1      -2.431   4.070  26.450  0.00  0.00    +0.023 C 
ATOM     15  C   UNL     1      -3.954   4.168  26.402  0.00  0.00    +0.108 C 
ATOM     21  C   UNL     1      -5.478   2.341  25.726  0.00  0.00    +0.253 C 
ENDROOT
BRANCH   9  11
ATOM     11  C   UNL     1      -2.035   1.891  24.139  0.00  0.00    +0.021 C 
BRANCH  11  14
ATOM     14  C   UNL     1      -1.109   1.473  23.004  0.00  0.00    +0.085 C 
BRANCH  14   6
ATOM      6  N   UNL     1      -0.577   0.142  23.265  0.00  0.00    -0.291 NA
ATOM     16  C   UNL     1       0.883   0.122  23.403  0.00  0.00    +0.143 C 
ATOM     18  C   UNL     1      -1.119  -0.438  24.495  0.00  0.00    +0.085 C 
ATOM     19  C   UNL     1       1.189  -1.014  24.379  0.00  0.00    +0.029 C 
ATOM     20  C   UNL     1      -0.170  -1.594  24.740  0.00  0.00    +0.017 C 
BRANCH  16  22
ATOM      3  O   UNL     1       0.798  -0.719  21.172  0.00  0.00    -0.274 OA
ATOM      8  N   UNL     1       2.751   0.257  21.896  0.00  0.00    -0.328 N 
ATOM     22  C   UNL     1       1.448  -0.156  22.048  0.00  0.00    +0.228 C 
ATOM     31  H   UNL     1       3.270   0.710  22.641  0.00  0.00    +0.145 HD
ATOM     32  H   UNL     1       3.242   0.120  21.018  0.00  0.00    +0.145 HD
ENDBRANCH  16  22
ENDBRANCH  14   6
ENDBRANCH  11  14
ENDBRANCH   9  11
BRANCH  10  17
ATOM     17  C   UNL     1      -0.289   4.192  25.124  0.00  0.00    +0.124 C 
BRANCH  17  23
ATOM      4  O   UNL     1      -0.221   2.613  26.980  0.00  0.00    -0.251 OA
ATOM     23  C   UNL     1       0.153   2.964  25.871  0.00  0.00    +0.305 C 
BRANCH  23   2
ATOM      2  O   UNL     1       1.054   2.274  25.124  0.00  0.00    -0.481 OA
ATOM     33  H   UNL     1       1.001   2.513  24.174  0.00  0.00    +0.295 HD
ENDBRANCH  23   2
ENDBRANCH  17  23
ENDBRANCH  10  17
BRANCH  21  24
ATOM     24  C   UNL     1      -5.994   1.461  24.617  0.00  0.00    +0.324 C 
BRANCH  24   5
ATOM      5  O   UNL     1      -4.867   0.908  23.981  0.00  0.00    -0.483 OA
BRANCH   5  25
ATOM     25  C   UNL     1      -4.415  -0.309  24.442  0.00  0.00    +0.121 A 
ATOM     26  C   UNL     1      -3.964  -0.433  25.755  0.00  0.00    +0.045 A 
ATOM     27  C   UNL     1      -4.408  -1.416  23.593  0.00  0.00    +0.045 A 
ATOM     28  C   UNL     1      -3.506  -1.666  26.223  0.00  0.00    +0.004 A 
ATOM     29  C   UNL     1      -3.950  -2.648  24.061  0.00  0.00    +0.004 A 
ATOM     30  C   UNL     1      -3.500  -2.774  25.375  0.00  0.00    +0.000 A 
ENDBRANCH   5  25
ENDBRANCH  24   5
ENDBRANCH  21  24
TORSDOF 10
ENDMDL
MODEL 5
REMARK VINA RESULT:      -2.7      1.419      2.382
REMARK  Name = 28959636
REMARK  10 active torsions:
REMARK  status: ('A' for Active; 'I' for Inactive)
REMARK    1  A    between atoms: O_2  and  C_23
REMARK    2  A    between atoms: O_5  and  C_24
REMARK    3  A    between atoms: O_5  and  C_25
REMARK    4  A    between atoms: N_6  and  C_14
REMARK    5  A    between atoms: C_9  and  C_11
REMARK    6  A    between atoms: C_10  and  C_17
REMARK    7  A    between atoms: C_11  and  C_14
REMARK    8  A    between atoms: C_16  and  C_22
REMARK    9  A    between atoms: C_17  and  C_23
REMARK   10  A    between atoms: C_21  and  C_24
REMARK                            x       y       z     vdW  Elec       q    Type
REMARK                         _______ _______ _______ _____ _____    ______ ____
ROOT
ATOM      1  O   UNL     1      -0.854   0.414  21.886  0.00  0.00    -0.272 OA
ATOM      7  N   UNL     1      -1.270   2.241  23.258  0.00  0.00    -0.298 N 
ATOM      9  C   UNL     1      -1.993   3.231  25.420  0.00  0.00    +0.011 C 
ATOM     10  C   UNL     1      -3.344   3.598  24.757  0.00  0.00    +0.006 C 
ATOM     12  C   UNL     1      -0.890   3.149  24.348  0.00  0.00    +0.111 C 
ATOM     13  C   UNL     1      -3.678   2.655  23.589  0.00  0.00    +0.023 C 
ATOM     15  C   UNL     1      -2.526   2.581  22.590  0.00  0.00    +0.108 C 
ATOM     21  C   UNL     1      -0.526   1.146  22.823  0.00  0.00    +0.253 C 
ENDROOT
BRANCH   9  11
ATOM     11  C   UNL     1      -2.034   1.936  26.241  0.00  0.00    +0.021 C 
BRANCH  11  14
ATOM     14  C   UNL     1      -2.959   0.913  25.595  0.00  0.00    +0.085 C 
BRANCH  14   6
ATOM      6  N   UNL     1      -2.367  -0.414  25.681  0.00  0.00    -0.291 NA
ATOM     16  C   UNL     1      -2.426  -1.154  24.417  0.00  0.00    +0.143 C 
ATOM     18  C   UNL     1      -0.956  -0.365  26.069  0.00  0.00    +0.085 C 
ATOM     19  C   UNL     1      -1.192  -2.057  24.410  0.00  0.00    +0.029 C 
ATOM     20  C   UNL     1      -0.488  -1.765  25.727  0.00  0.00    +0.017 C 
BRANCH  16  22
ATOM      3  O   UNL     1      -4.732  -1.543  23.942  0.00  0.00    -0.274 OA
ATOM      8  N   UNL     1      -3.562  -3.170  25.070  0.00  0.00    -0.328 N 
ATOM     22  C   UNL     1      -3.687  -1.956  24.437  0.00  0.00    +0.228 C 
ATOM     31  H   UNL     1      -2.688  -3.484  25.481  0.00  0.00    +0.145 HD
ATOM     32  H   UNL     1      -4.353  -3.802  25.148  0.00  0.00    +0.145 HD
ENDBRANCH  16  22
ENDBRANCH  14   6
ENDBRANCH  11  14
ENDBRANCH   9  11
BRANCH  10  17
ATOM     17  C   UNL     1      -4.505   3.658  25.750  0.00  0.00    +0.124 C 
BRANCH  17  23
ATOM      4  O   UNL     1      -5.774   2.115  24.355  0.00  0.00    -0.251 OA
ATOM     23  C   UNL     1      -5.553   2.626  25.442  0.00  0.00    +0.305 C 
BRANCH  23   2
ATOM      2  O   UNL     1      -6.247   2.327  26.571  0.00  0.00    -0.481 OA
ATOM     33  H   UNL     1      -6.075   1.411  26.875  0.00  0.00    +0.295 HD
ENDBRANCH  23   2
ENDBRANCH  17  23
ENDBRANCH  10  17
BRANCH  21  24
ATOM     24  C   UNL     1       0.755   0.860  23.565  0.00  0.00    +0.324 C 
BRANCH  24   5
ATOM      5  O   UNL     1       1.550   0.075  22.710  0.00  0.00    -0.483 OA
BRANCH   5  25
ATOM     25  C   UNL     1       2.881  -0.066  23.038  0.00  0.00    +0.121 A 
ATOM     26  C   UNL     1       3.760   1.001  22.863  0.00  0.00    +0.045 A 
ATOM     27  C   UNL     1       3.347  -1.279  23.545  0.00  0.00    +0.045 A 
ATOM     28  C   UNL     1       5.107   0.858  23.195  0.00  0.00    +0.004 A 
ATOM     29  C   UNL     1       4.695  -1.422  23.878  0.00  0.00    +0.004 A 
ATOM     30  C   UNL     1       5.574  -0.354  23.704  0.00  0.00    +0.000 A 
ENDBRANCH   5  25
ENDBRANCH  24   5
ENDBRANCH  21  24
TORSDOF 10
ENDMDL
MODEL 6
REMARK VINA RESULT:      -2.6      1.856      6.184
REMARK  Name = 28959636
REMARK  10 active torsions:
REMARK  status: ('A' for Active; 'I' for Inactive)
REMARK    1  A    between atoms: O_2  and  C_23
REMARK    2  A    between atoms: O_5  and  C_24
REMARK    3  A    between atoms: O_5  and  C_25
REMARK    4  A    between atoms: N_6  and  C_14
REMARK    5  A    between atoms: C_9  and  C_11
REMARK    6  A    between atoms: C_10  and  C_17
REMARK    7  A    between atoms: C_11  and  C_14
REMARK    8  A    between atoms: C_16  and  C_22
REMARK    9  A    between atoms: C_17  and  C_23
REMARK   10  A    between atoms: C_21  and  C_24
REMARK                            x       y       z     vdW  Elec       q    Type
REMARK                         _______ _______ _______ _____ _____    ______ ____
ROOT
ATOM      1  O   UNL     1      -2.436   4.205  26.966  0.00  0.00    -0.272 OA
ATOM      7  N   UNL     1      -1.073   3.690  25.158  0.00  0.00    -0.298 N 
ATOM      9  C   UNL     1      -0.521   2.323  23.156  0.00  0.00    +0.011 C 
ATOM     10  C   UNL     1       0.558   1.595  23.998  0.00  0.00    +0.006 C 
ATOM     12  C   UNL     1      -0.760   3.735  23.723  0.00  0.00    +0.111 C 
ATOM     13  C   UNL     1       0.217   1.615  25.497  0.00  0.00    +0.023 C 
ATOM     15  C   UNL     1      -0.057   3.037  25.983  0.00  0.00    +0.108 C 
ATOM     21  C   UNL     1      -2.210   4.232  25.754  0.00  0.00    +0.253 C 
ENDROOT
BRANCH   9  11
ATOM     11  C   UNL     1      -1.847   1.561  23.050  0.00  0.00    +0.021 C 
BRANCH  11  14
ATOM     14  C   UNL     1      -2.153   0.821  24.345  0.00  0.00    +0.085 C 
BRANCH  14   6
ATOM      6  N   UNL     1      -2.606  -0.531  24.048  0.00  0.00    -0.291 NA
ATOM     16  C   UNL     1      -2.414  -1.461  25.165  0.00  0.00    +0.143 C 
ATOM     18  C   UNL     1      -4.029  -0.575  23.709  0.00  0.00    +0.085 C 
ATOM     19  C   UNL     1      -3.544  -2.484  25.048  0.00  0.00    +0.029 C 
ATOM     20  C   UNL     1      -4.331  -2.057  23.818  0.00  0.00    +0.017 C 
BRANCH  16  22
ATOM      3  O   UNL     1      -0.853  -2.891  24.063  0.00  0.00    -0.274 OA
ATOM      8  N   UNL     1      -0.151  -1.741  25.927  0.00  0.00    -0.328 N 
ATOM     22  C   UNL     1      -1.077  -2.103  24.978  0.00  0.00    +0.228 C 
ATOM     31  H   UNL     1      -0.366  -1.095  26.680  0.00  0.00    +0.145 HD
ATOM     32  H   UNL     1       0.793  -2.114  25.904  0.00  0.00    +0.145 HD
ENDBRANCH  16  22
ENDBRANCH  14   6
ENDBRANCH  11  14
ENDBRANCH   9  11
BRANCH  10  17
ATOM     17  C   UNL     1       0.825   0.166  23.525  0.00  0.00    +0.124 C 
BRANCH  17  23
ATOM      4  O   UNL     1       3.089   0.413  22.658  0.00  0.00    -0.251 OA
ATOM     23  C   UNL     1       1.916   0.117  22.492  0.00  0.00    +0.305 C 
BRANCH  23   2
ATOM      2  O   UNL     1       1.406  -0.314  21.309  0.00  0.00    -0.481 OA
ATOM     33  H   UNL     1       2.043  -0.197  20.572  0.00  0.00    +0.295 HD
ENDBRANCH  23   2
ENDBRANCH  17  23
ENDBRANCH  10  17
BRANCH  21  24
ATOM     24  C   UNL     1      -3.210   4.885  24.834  0.00  0.00    +0.324 C 
BRANCH  24   5
ATOM      5  O   UNL     1      -3.841   3.849  24.122  0.00  0.00    -0.483 OA
BRANCH   5  25
ATOM     25  C   UNL     1      -4.768   3.089  24.801  0.00  0.00    +0.121 A 
ATOM     26  C   UNL     1      -5.355   1.987  24.181  0.00  0.00    +0.045 A 
ATOM     27  C   UNL     1      -5.118   3.422  26.109  0.00  0.00    +0.045 A 
ATOM     28  C   UNL     1      -6.293   1.216  24.869  0.00  0.00    +0.004 A 
ATOM     29  C   UNL     1      -6.056   2.652  26.797  0.00  0.00    +0.004 A 
ATOM     30  C   UNL     1      -6.643   1.549  26.177  0.00  0.00    +0.000 A 
ENDBRANCH   5  25
ENDBRANCH  24   5
ENDBRANCH  21  24
TORSDOF 10
ENDMDL
MODEL 7
REMARK VINA RESULT:      -2.5      1.833      7.375
REMARK  Name = 28959636
REMARK  10 active torsions:
REMARK  status: ('A' for Active; 'I' for Inactive)
REMARK    1  A    between atoms: O_2  and  C_23
REMARK    2  A    between atoms: O_5  and  C_24
REMARK    3  A    between atoms: O_5  and  C_25
REMARK    4  A    between atoms: N_6  and  C_14
REMARK    5  A    between atoms: C_9  and  C_11
REMARK    6  A    between atoms: C_10  and  C_17
REMARK    7  A    between atoms: C_11  and  C_14
REMARK    8  A    between atoms: C_16  and  C_22
REMARK    9  A    between atoms: C_17  and  C_23
REMARK   10  A    between atoms: C_21  and  C_24
REMARK                            x       y       z     vdW  Elec       q    Type
REMARK                         _______ _______ _______ _____ _____    ______ ____
ROOT
ATOM      1  O   UNL     1      -3.830  -3.047  24.500  0.00  0.00    -0.272 OA
ATOM      7  N   UNL     1      -1.964  -1.726  24.913  0.00  0.00    -0.298 N 
ATOM      9  C   UNL     1      -0.530   0.244  24.424  0.00  0.00    +0.011 C 
ATOM     10  C   UNL     1       0.473  -0.707  23.724  0.00  0.00    +0.006 C 
ATOM     12  C   UNL     1      -1.331  -0.532  25.487  0.00  0.00    +0.111 C 
ATOM     13  C   UNL     1      -0.224  -1.968  23.183  0.00  0.00    +0.023 C 
ATOM     15  C   UNL     1      -1.039  -2.661  24.273  0.00  0.00    +0.108 C 
ATOM     21  C   UNL     1      -3.325  -2.022  24.967  0.00  0.00    +0.253 C 
ENDROOT
BRANCH   9  11
ATOM     11  C   UNL     1      -1.482   0.963  23.461  0.00  0.00    +0.021 C 
BRANCH  11  14
ATOM     14  C   UNL     1      -0.957   2.349  23.112  0.00  0.00    +0.085 C 
BRANCH  14   6
ATOM      6  N   UNL     1      -1.420   3.317  24.097  0.00  0.00    -0.291 NA
ATOM     16  C   UNL     1      -0.350   3.802  24.975  0.00  0.00    +0.143 C 
ATOM     18  C   UNL     1      -2.014   4.500  23.472  0.00  0.00    +0.085 C 
ATOM     19  C   UNL     1      -0.738   5.234  25.344  0.00  0.00    +0.029 C 
ATOM     20  C   UNL     1      -2.059   5.476  24.630  0.00  0.00    +0.017 C 
BRANCH  16  22
ATOM      3  O   UNL     1      -1.343   2.694  26.841  0.00  0.00    -0.274 OA
ATOM      8  N   UNL     1       0.907   2.398  26.468  0.00  0.00    -0.328 N 
ATOM     22  C   UNL     1      -0.334   2.915  26.178  0.00  0.00    +0.228 C 
ATOM     31  H   UNL     1       1.728   2.605  25.909  0.00  0.00    +0.145 HD
ATOM     32  H   UNL     1       1.043   1.782  27.264  0.00  0.00    +0.145 HD
ENDBRANCH  16  22
ENDBRANCH  14   6
ENDBRANCH  11  14
ENDBRANCH   9  11
BRANCH  10  17
ATOM     17  C   UNL     1       1.280  -0.023  22.621  0.00  0.00    +0.124 C 
BRANCH  17  23
ATOM      4  O   UNL     1       3.517  -0.831  23.155  0.00  0.00    -0.251 OA
ATOM     23  C   UNL     1       2.734   0.092  22.986  0.00  0.00    +0.305 C 
BRANCH  23   2
ATOM      2  O   UNL     1       3.073   1.401  23.110  0.00  0.00    -0.481 OA
ATOM     33  H   UNL     1       3.717   1.679  22.424  0.00  0.00    +0.295 HD
ENDBRANCH  23   2
ENDBRANCH  17  23
ENDBRANCH  10  17
BRANCH  21  24
ATOM     24  C   UNL     1      -4.213  -1.008  25.641  0.00  0.00    +0.324 C 
BRANCH  24   5
ATOM      5  O   UNL     1      -4.714  -0.172  24.626  0.00  0.00    -0.483 OA
BRANCH   5  25
ATOM     25  C   UNL     1      -5.030   1.124  24.973  0.00  0.00    +0.121 A 
ATOM     26  C   UNL     1      -4.522   2.188  24.229  0.00  0.00    +0.045 A 
ATOM     27  C   UNL     1      -5.858   1.369  26.068  0.00  0.00    +0.045 A 
ATOM     28  C   UNL     1      -4.842   3.500  24.579  0.00  0.00    +0.004 A 
ATOM     29  C   UNL     1      -6.178   2.681  26.418  0.00  0.00    +0.004 A 
ATOM     30  C   UNL     1      -5.671   3.746  25.674  0.00  0.00    +0.000 A 
ENDBRANCH   5  25
ENDBRANCH  24   5
ENDBRANCH  21  24
TORSDOF 10
ENDMDL
MODEL 8
REMARK VINA RESULT:      -2.4      1.838      7.379
REMARK  Name = 28959636
REMARK  10 active torsions:
REMARK  status: ('A' for Active; 'I' for Inactive)
REMARK    1  A    between atoms: O_2  and  C_23
REMARK    2  A    between atoms: O_5  and  C_24
REMARK    3  A    between atoms: O_5  and  C_25
REMARK    4  A    between atoms: N_6  and  C_14
REMARK    5  A    between atoms: C_9  and  C_11
REMARK    6  A    between atoms: C_10  and  C_17
REMARK    7  A    between atoms: C_11  and  C_14
REMARK    8  A    between atoms: C_16  and  C_22
REMARK    9  A    between atoms: C_17  and  C_23
REMARK   10  A    between atoms: C_21  and  C_24
REMARK                            x       y       z     vdW  Elec       q    Type
REMARK                         _______ _______ _______ _____ _____    ______ ____
ROOT
ATOM      1  O   UNL     1      -3.926  -2.803  24.347  0.00  0.00    -0.272 OA
ATOM      7  N   UNL     1      -1.923  -1.711  24.788  0.00  0.00    -0.298 N 
ATOM      9  C   UNL     1      -0.334   0.167  24.432  0.00  0.00    +0.011 C 
ATOM     10  C   UNL     1       0.535  -0.782  23.568  0.00  0.00    +0.006 C 
ATOM     12  C   UNL     1      -1.149  -0.654  25.450  0.00  0.00    +0.111 C 
ATOM     13  C   UNL     1      -0.307  -1.903  22.935  0.00  0.00    +0.023 C 
ATOM     15  C   UNL     1      -1.126  -2.643  23.990  0.00  0.00    +0.108 C 
ATOM     21  C   UNL     1      -3.302  -1.888  24.893  0.00  0.00    +0.253 C 
ENDROOT
BRANCH   9  11
ATOM     11  C   UNL     1      -1.261   1.076  23.618  0.00  0.00    +0.021 C 
BRANCH  11  14
ATOM     14  C   UNL     1      -0.654   2.462  23.452  0.00  0.00    +0.085 C 
BRANCH  14   6
ATOM      6  N   UNL     1      -0.235   2.978  24.748  0.00  0.00    -0.291 NA
ATOM     16  C   UNL     1      -1.358   3.395  25.592  0.00  0.00    +0.143 C 
ATOM     18  C   UNL     1       0.519   1.987  25.518  0.00  0.00    +0.085 C 
ATOM     19  C   UNL     1      -0.906   3.150  27.032  0.00  0.00    +0.029 C 
ATOM     20  C   UNL     1       0.505   2.594  26.907  0.00  0.00    +0.017 C 
BRANCH  16  22
ATOM      3  O   UNL     1      -2.572   5.443  25.760  0.00  0.00    -0.274 OA
ATOM      8  N   UNL     1      -0.605   5.436  24.567  0.00  0.00    -0.328 N 
ATOM     22  C   UNL     1      -1.586   4.849  25.333  0.00  0.00    +0.228 C 
ATOM     31  H   UNL     1       0.195   4.919  24.218  0.00  0.00    +0.145 HD
ATOM     32  H   UNL     1      -0.652   6.420  24.324  0.00  0.00    +0.145 HD
ENDBRANCH  16  22
ENDBRANCH  14   6
ENDBRANCH  11  14
ENDBRANCH   9  11
BRANCH  10  17
ATOM     17  C   UNL     1       1.346  -0.049  22.500  0.00  0.00    +0.124 C 
BRANCH  17  23
ATOM      4  O   UNL     1       3.596  -0.743  23.128  0.00  0.00    -0.251 OA
ATOM     23  C   UNL     1       2.777   0.139  22.920  0.00  0.00    +0.305 C 
BRANCH  23   2
ATOM      2  O   UNL     1       3.048   1.464  23.044  0.00  0.00    -0.481 OA
ATOM     33  H   UNL     1       2.759   1.972  22.256  0.00  0.00    +0.295 HD
ENDBRANCH  23   2
ENDBRANCH  17  23
ENDBRANCH  10  17
BRANCH  21  24
ATOM     24  C   UNL     1      -4.051  -0.885  25.731  0.00  0.00    +0.324 C 
BRANCH  24   5
ATOM      5  O   UNL     1      -4.975  -0.255  24.877  0.00  0.00    -0.483 OA
BRANCH   5  25
ATOM     25  C   UNL     1      -4.993   1.123  24.869  0.00  0.00    +0.121 A 
ATOM     26  C   UNL     1      -5.725   1.816  25.832  0.00  0.00    +0.045 A 
ATOM     27  C   UNL     1      -4.276   1.823  23.899  0.00  0.00    +0.045 A 
ATOM     28  C   UNL     1      -5.742   3.211  25.825  0.00  0.00    +0.004 A 
ATOM     29  C   UNL     1      -4.294   3.218  23.892  0.00  0.00    +0.004 A 
ATOM     30  C   UNL     1      -5.026   3.912  24.855  0.00  0.00    +0.000 A 
ENDBRANCH   5  25
ENDBRANCH  24   5
ENDBRANCH  21  24
TORSDOF 10
ENDMDL
MODEL 9
REMARK VINA RESULT:      -2.1      2.645      5.708
REMARK  Name = 28959636
REMARK  10 active torsions:
REMARK  status: ('A' for Active; 'I' for Inactive)
REMARK    1  A    between atoms: O_2  and  C_23
REMARK    2  A    between atoms: O_5  and  C_24
REMARK    3  A    between atoms: O_5  and  C_25
REMARK    4  A    between atoms: N_6  and  C_14
REMARK    5  A    between atoms: C_9  and  C_11
REMARK    6  A    between atoms: C_10  and  C_17
REMARK    7  A    between atoms: C_11  and  C_14
REMARK    8  A    between atoms: C_16  and  C_22
REMARK    9  A    between atoms: C_17  and  C_23
REMARK   10  A    between atoms: C_21  and  C_24
REMARK                            x       y       z     vdW  Elec       q    Type
REMARK                         _______ _______ _______ _____ _____    ______ ____
ROOT
ATOM      1  O   UNL     1      -6.698   1.605  26.840  0.00  0.00    -0.272 OA
ATOM      7  N   UNL     1      -5.409   2.968  25.471  0.00  0.00    -0.298 N 
ATOM      9  C   UNL     1      -3.288   3.496  24.287  0.00  0.00    +0.011 C 
ATOM     10  C   UNL     1      -2.982   4.547  25.384  0.00  0.00    +0.006 C 
ATOM     12  C   UNL     1      -4.811   3.293  24.169  0.00  0.00    +0.111 C 
ATOM     13  C   UNL     1      -3.668   4.194  26.714  0.00  0.00    +0.023 C 
ATOM     15  C   UNL     1      -5.164   3.957  26.520  0.00  0.00    +0.108 C 
ATOM     21  C   UNL     1      -6.183   1.842  25.744  0.00  0.00    +0.253 C 
ENDROOT
BRANCH   9  11
ATOM     11  C   UNL     1      -2.587   2.150  24.501  0.00  0.00    +0.021 C 
BRANCH  11  14
ATOM     14  C   UNL     1      -1.893   1.690  23.225  0.00  0.00    +0.085 C 
BRANCH  14   6
ATOM      6  N   UNL     1      -0.825   0.757  23.552  0.00  0.00    -0.291 NA
ATOM     16  C   UNL     1      -0.509   0.720  24.983  0.00  0.00    +0.143 C 
ATOM     18  C   UNL     1      -1.152  -0.616  23.162  0.00  0.00    +0.085 C 
ATOM     19  C   UNL     1      -0.036  -0.706  25.265  0.00  0.00    +0.029 C 
ATOM     20  C   UNL     1      -0.108  -1.413  23.919  0.00  0.00    +0.017 C 
BRANCH  16  22
ATOM      3  O   UNL     1       0.660   2.369  26.252  0.00  0.00    -0.274 OA
ATOM      8  N   UNL     1       1.465   1.824  24.167  0.00  0.00    -0.328 N 
ATOM     22  C   UNL     1       0.584   1.712  25.217  0.00  0.00    +0.228 C 
ATOM     31  H   UNL     1       1.373   1.276  23.318  0.00  0.00    +0.145 HD
ATOM     32  H   UNL     1       2.249   2.468  24.210  0.00  0.00    +0.145 HD
ENDBRANCH  16  22
ENDBRANCH  14   6
ENDBRANCH  11  14
ENDBRANCH   9  11
BRANCH  10  17
ATOM     17  C   UNL     1      -1.485   4.777  25.595  0.00  0.00    +0.124 C 
BRANCH  17  23
ATOM      4  O   UNL     1       0.128   4.611  23.776  0.00  0.00    -0.251 OA
ATOM     23  C   UNL     1      -0.801   5.186  24.320  0.00  0.00    +0.305 C 
BRANCH  23   2
ATOM      2  O   UNL     1      -1.373   6.321  23.838  0.00  0.00    -0.481 OA
ATOM     33  H   UNL     1      -0.732   6.868  23.336  0.00  0.00    +0.295 HD
ENDBRANCH  23   2
ENDBRANCH  17  23
ENDBRANCH  10  17
BRANCH  21  24
ATOM     24  C   UNL     1      -6.387   0.868  24.611  0.00  0.00    +0.324 C 
BRANCH  24   5
ATOM      5  O   UNL     1      -5.112   0.587  24.086  0.00  0.00    -0.483 OA
BRANCH   5  25
ATOM     25  C   UNL     1      -4.490  -0.564  24.518  0.00  0.00    +0.121 A 
ATOM     26  C   UNL     1      -3.873  -0.597  25.767  0.00  0.00    +0.045 A 
ATOM     27  C   UNL     1      -4.480  -1.696  23.703  0.00  0.00    +0.045 A 
ATOM     28  C   UNL     1      -3.243  -1.763  26.204  0.00  0.00    +0.004 A 
ATOM     29  C   UNL     1      -3.851  -2.862  24.140  0.00  0.00    +0.004 A 
ATOM     30  C   UNL     1      -3.233  -2.896  25.390  0.00  0.00    +0.000 A 
ENDBRANCH   5  25
ENDBRANCH  24   5
ENDBRANCH  21  24
TORSDOF 10
ENDMDL
MODEL 10
REMARK VINA RESULT:      -1.7      1.996      5.622
REMARK  Name = 28959636
REMARK  10 active torsions:
REMARK  status: ('A' for Active; 'I' for Inactive)
REMARK    1  A    between atoms: O_2  and  C_23
REMARK    2  A    between atoms: O_5  and  C_24
REMARK    3  A    between atoms: O_5  and  C_25
REMARK    4  A    between atoms: N_6  and  C_14
REMARK    5  A    between atoms: C_9  and  C_11
REMARK    6  A    between atoms: C_10  and  C_17
REMARK    7  A    between atoms: C_11  and  C_14
REMARK    8  A    between atoms: C_16  and  C_22
REMARK    9  A    between atoms: C_17  and  C_23
REMARK   10  A    between atoms: C_21  and  C_24
REMARK                            x       y       z     vdW  Elec       q    Type
REMARK                         _______ _______ _______ _____ _____    ______ ____
ROOT
ATOM      1  O   UNL     1      -6.545   2.330  26.745  0.00  0.00    -0.272 OA
ATOM      7  N   UNL     1      -5.054   3.185  25.183  0.00  0.00    -0.298 N 
ATOM      9  C   UNL     1      -2.755   3.458  24.279  0.00  0.00    +0.011 C 
ATOM     10  C   UNL     1      -2.729   4.887  24.878  0.00  0.00    +0.006 C 
ATOM     12  C   UNL     1      -4.209   3.038  23.991  0.00  0.00    +0.111 C 
ATOM     13  C   UNL     1      -3.666   5.010  26.092  0.00  0.00    +0.023 C 
ATOM     15  C   UNL     1      -5.076   4.532  25.754  0.00  0.00    +0.108 C 
ATOM     21  C   UNL     1      -5.822   2.174  25.758  0.00  0.00    +0.253 C 
ENDROOT
BRANCH   9  11
ATOM     11  C   UNL     1      -2.059   2.405  25.150  0.00  0.00    +0.021 C 
BRANCH  11  14
ATOM     14  C   UNL     1      -1.961   1.073  24.419  0.00  0.00    +0.085 C 
BRANCH  14   6
ATOM      6  N   UNL     1      -0.568   0.658  24.332  0.00  0.00    -0.291 NA
ATOM     16  C   UNL     1      -0.409  -0.785  24.125  0.00  0.00    +0.143 C 
ATOM     18  C   UNL     1       0.137   1.316  23.230  0.00  0.00    +0.085 C 
ATOM     19  C   UNL     1       0.877  -0.946  23.314  0.00  0.00    +0.029 C 
ATOM     20  C   UNL     1       1.390   0.472  23.112  0.00  0.00    +0.017 C 
BRANCH  16  22
ATOM      3  O   UNL     1       0.265  -2.496  25.646  0.00  0.00    -0.274 OA
ATOM      8  N   UNL     1      -0.848  -0.667  26.487  0.00  0.00    -0.328 N 
ATOM     22  C   UNL     1      -0.282  -1.410  25.477  0.00  0.00    +0.228 C 
ATOM     31  H   UNL     1      -1.305   0.224  26.318  0.00  0.00    +0.145 HD
ATOM     32  H   UNL     1      -0.826  -0.991  27.448  0.00  0.00    +0.145 HD
ENDBRANCH  16  22
ENDBRANCH  14   6
ENDBRANCH  11  14
ENDBRANCH   9  11
BRANCH  10  17
ATOM     17  C   UNL     1      -1.321   5.365  25.233  0.00  0.00    +0.124 C 
BRANCH  17  23
ATOM      4  O   UNL     1       0.071   4.628  23.373  0.00  0.00    -0.251 OA
ATOM     23  C   UNL     1      -0.266   4.545  24.544  0.00  0.00    +0.305 C 
BRANCH  23   2
ATOM      2  O   UNL     1       0.281   3.669  25.427  0.00  0.00    -0.481 OA
ATOM     33  H   UNL     1       0.965   4.093  25.987  0.00  0.00    +0.295 HD
ENDBRANCH  23   2
ENDBRANCH  17  23
ENDBRANCH  10  17
BRANCH  21  24
ATOM     24  C   UNL     1      -5.742   0.814  25.114  0.00  0.00    +0.324 C 
BRANCH  24   5
ATOM      5  O   UNL     1      -4.685   0.130  25.742  0.00  0.00    -0.483 OA
BRANCH   5  25
ATOM     25  C   UNL     1      -4.261  -1.047  25.165  0.00  0.00    +0.121 A 
ATOM     26  C   UNL     1      -4.537  -1.305  23.824  0.00  0.00    +0.045 A 
ATOM     27  C   UNL     1      -3.554  -1.979  25.925  0.00  0.00    +0.045 A 
ATOM     28  C   UNL     1      -4.107  -2.496  23.239  0.00  0.00    +0.004 A 
ATOM     29  C   UNL     1      -3.124  -3.171  25.340  0.00  0.00    +0.004 A 
ATOM     30  C   UNL     1      -3.400  -3.429  23.997  0.00  0.00    +0.000 A 
ENDBRANCH   5  25
ENDBRANCH  24   5
ENDBRANCH  21  24
TORSDOF 10
ENDMDL
