MODEL 1
REMARK VINA RESULT:      -3.6      0.000      0.000
REMARK  Name = 45783825
REMARK  7 active torsions:
REMARK  status: ('A' for Active; 'I' for Inactive)
REMARK    1  A    between atoms: N_2  and  C_10
REMARK    2  A    between atoms: N_6  and  C_21
REMARK    3  A    between atoms: N_6  and  C_22
REMARK    4  A    between atoms: N_6  and  C_23
REMARK    5  A    between atoms: C_7  and  C_10
REMARK    6  A    between atoms: C_11  and  C_15
REMARK    7  A    between atoms: C_16  and  C_17
REMARK                            x       y       z     vdW  Elec       q    Type
REMARK                         _______ _______ _______ _____ _____    ______ ____
ROOT
ATOM      1  O   UNL     1      -6.167  -9.573   9.340  0.00  0.00    -0.336 OA
ATOM      3  N   UNL     1      -7.118  -9.722  11.363  0.00  0.00    -0.190 NA
ATOM      4  N   UNL     1      -5.121  -9.783  10.248  0.00  0.00    -0.056 NA
ATOM     15  C   UNL     1      -7.308  -9.550  10.079  0.00  0.00    +0.245 A 
ATOM     16  C   UNL     1      -5.762  -9.860  11.418  0.00  0.00    +0.204 A 
ENDROOT
BRANCH  16  17
ATOM      5  N   UNL     1      -5.148 -10.134  15.075  0.00  0.00    -0.240 NA
ATOM     17  C   UNL     1      -5.076 -10.074  12.660  0.00  0.00    +0.041 A 
ATOM     18  C   UNL     1      -3.728 -10.415  12.684  0.00  0.00    +0.016 A 
ATOM     19  C   UNL     1      -5.735  -9.947  13.871  0.00  0.00    +0.124 A 
ATOM     20  C   UNL     1      -3.090 -10.616  13.904  0.00  0.00    +0.044 A 
ATOM     21  C   UNL     1      -3.837 -10.465  15.060  0.00  0.00    +0.121 A 
BRANCH  21   6
ATOM      6  N   UNL     1      -3.173 -10.674  16.294  0.00  0.00    -0.321 N 
ATOM     22  C   UNL     1      -3.932 -10.780  17.519  0.00  0.00    +0.130 C 
ATOM     23  C   UNL     1      -1.732 -10.776  16.335  0.00  0.00    +0.130 C 
ENDBRANCH  21   6
ENDBRANCH  16  17
BRANCH  15  11
ATOM      2  N   UNL     1      -9.677  -8.795  10.172  0.00  0.00    -0.291 NA
ATOM     11  C   UNL     1      -8.599  -9.335   9.318  0.00  0.00    +0.146 C 
ATOM     12  C   UNL     1     -10.541  -8.003   9.296  0.00  0.00    +0.085 C 
ATOM     13  C   UNL     1      -8.454  -8.310   8.178  0.00  0.00    +0.030 C 
ATOM     14  C   UNL     1      -9.529  -7.265   8.441  0.00  0.00    +0.017 C 
BRANCH   2  10
ATOM     10  C   UNL     1     -10.417  -9.829  10.883  0.00  0.00    +0.088 C 
BRANCH  10   7
ATOM      7  C   UNL     1     -10.606  -9.469  12.321  0.00  0.00    +0.003 C 
ATOM      8  C   UNL     1      -9.459  -9.633  13.275  0.00  0.00    +0.005 C 
ATOM      9  C   UNL     1     -10.636 -10.559  13.351  0.00  0.00    +0.005 C 
ENDBRANCH  10   7
ENDBRANCH   2  10
ENDBRANCH  15  11
TORSDOF 5
ENDMDL
MODEL 2
REMARK VINA RESULT:      -2.3      2.747      4.437
REMARK  Name = 45783825
REMARK  7 active torsions:
REMARK  status: ('A' for Active; 'I' for Inactive)
REMARK    1  A    between atoms: N_2  and  C_10
REMARK    2  A    between atoms: N_6  and  C_21
REMARK    3  A    between atoms: N_6  and  C_22
REMARK    4  A    between atoms: N_6  and  C_23
REMARK    5  A    between atoms: C_7  and  C_10
REMARK    6  A    between atoms: C_11  and  C_15
REMARK    7  A    between atoms: C_16  and  C_17
REMARK                            x       y       z     vdW  Elec       q    Type
REMARK                         _______ _______ _______ _____ _____    ______ ____
ROOT
ATOM      1  O   UNL     1      -7.435 -10.627  10.882  0.00  0.00    -0.336 OA
ATOM      3  N   UNL     1      -6.158 -10.218  12.676  0.00  0.00    -0.190 NA
ATOM      4  N   UNL     1      -6.152 -10.354  10.393  0.00  0.00    -0.056 NA
ATOM     15  C   UNL     1      -7.351 -10.526  12.235  0.00  0.00    +0.245 A 
ATOM     16  C   UNL     1      -5.456 -10.123  11.510  0.00  0.00    +0.204 A 
ENDROOT
BRANCH  16  17
ATOM      5  N   UNL     1      -2.226  -8.614  10.452  0.00  0.00    -0.240 NA
ATOM     17  C   UNL     1      -4.060  -9.794  11.495  0.00  0.00    +0.041 A 
ATOM     18  C   UNL     1      -3.195 -10.300  12.460  0.00  0.00    +0.016 A 
ATOM     19  C   UNL     1      -3.531  -8.963  10.522  0.00  0.00    +0.124 A 
ATOM     20  C   UNL     1      -1.846  -9.964  12.420  0.00  0.00    +0.044 A 
ATOM     21  C   UNL     1      -1.415  -9.125  11.405  0.00  0.00    +0.121 A 
BRANCH  21   6
ATOM      6  N   UNL     1      -0.039  -8.791  11.380  0.00  0.00    -0.321 N 
ATOM     22  C   UNL     1       0.455  -7.683  12.166  0.00  0.00    +0.130 C 
ATOM     23  C   UNL     1       0.878  -9.551  10.561  0.00  0.00    +0.130 C 
ENDBRANCH  21   6
ENDBRANCH  16  17
BRANCH  15  11
ATOM      2  N   UNL     1      -8.704  -9.985  14.252  0.00  0.00    -0.291 NA
ATOM     11  C   UNL     1      -8.627 -10.781  13.010  0.00  0.00    +0.146 C 
ATOM     12  C   UNL     1     -10.125  -9.754  14.508  0.00  0.00    +0.085 C 
ATOM     13  C   UNL     1      -9.890 -10.393  12.219  0.00  0.00    +0.030 C 
ATOM     14  C   UNL     1     -10.644  -9.426  13.122  0.00  0.00    +0.017 C 
BRANCH   2  10
ATOM     10  C   UNL     1      -8.040 -10.622  15.383  0.00  0.00    +0.088 C 
BRANCH  10   7
ATOM      7  C   UNL     1      -7.242  -9.634  16.171  0.00  0.00    +0.003 C 
ATOM      8  C   UNL     1      -5.746  -9.632  16.044  0.00  0.00    +0.005 C 
ATOM      9  C   UNL     1      -6.392 -10.119  17.308  0.00  0.00    +0.005 C 
ENDBRANCH  10   7
ENDBRANCH   2  10
ENDBRANCH  15  11
TORSDOF 5
ENDMDL
MODEL 3
REMARK VINA RESULT:      -2.3     15.527     17.269
REMARK  Name = 45783825
REMARK  7 active torsions:
REMARK  status: ('A' for Active; 'I' for Inactive)
REMARK    1  A    between atoms: N_2  and  C_10
REMARK    2  A    between atoms: N_6  and  C_21
REMARK    3  A    between atoms: N_6  and  C_22
REMARK    4  A    between atoms: N_6  and  C_23
REMARK    5  A    between atoms: C_7  and  C_10
REMARK    6  A    between atoms: C_11  and  C_15
REMARK    7  A    between atoms: C_16  and  C_17
REMARK                            x       y       z     vdW  Elec       q    Type
REMARK                         _______ _______ _______ _____ _____    ______ ____
ROOT
ATOM      1  O   UNL     1      -2.459   3.433  24.189  0.00  0.00    -0.336 OA
ATOM      3  N   UNL     1      -2.098   1.233  23.963  0.00  0.00    -0.190 NA
ATOM      4  N   UNL     1      -1.078   3.280  24.016  0.00  0.00    -0.056 NA
ATOM     15  C   UNL     1      -2.984   2.180  24.145  0.00  0.00    +0.245 A 
ATOM     16  C   UNL     1      -0.943   1.956  23.890  0.00  0.00    +0.204 A 
ENDROOT
BRANCH  16  17
ATOM      5  N   UNL     1       2.728   1.534  23.481  0.00  0.00    -0.240 NA
ATOM     17  C   UNL     1       0.329   1.325  23.691  0.00  0.00    +0.041 A 
ATOM     18  C   UNL     1       0.426  -0.051  23.520  0.00  0.00    +0.016 A 
ATOM     19  C   UNL     1       1.499   2.066  23.664  0.00  0.00    +0.124 A 
ATOM     20  C   UNL     1       1.675  -0.636  23.328  0.00  0.00    +0.044 A 
ATOM     21  C   UNL     1       2.784   0.193  23.318  0.00  0.00    +0.121 A 
BRANCH  21   6
ATOM      6  N   UNL     1       4.048  -0.418  23.123  0.00  0.00    -0.321 N 
ATOM     22  C   UNL     1       4.336  -1.701  23.724  0.00  0.00    +0.130 C 
ATOM     23  C   UNL     1       5.059   0.242  22.329  0.00  0.00    +0.130 C 
ENDBRANCH  21   6
ENDBRANCH  16  17
BRANCH  15  11
ATOM      2  N   UNL     1      -4.887   0.889  25.096  0.00  0.00    -0.291 NA
ATOM     11  C   UNL     1      -4.486   2.073  24.309  0.00  0.00    +0.146 C 
ATOM     12  C   UNL     1      -6.140   1.242  25.764  0.00  0.00    +0.085 C 
ATOM     13  C   UNL     1      -5.088   3.270  25.069  0.00  0.00    +0.030 C 
ATOM     14  C   UNL     1      -5.859   2.657  26.230  0.00  0.00    +0.017 C 
BRANCH   2  10
ATOM     10  C   UNL     1      -5.017  -0.318  24.291  0.00  0.00    +0.088 C 
BRANCH  10   7
ATOM      7  C   UNL     1      -3.758  -1.123  24.312  0.00  0.00    +0.003 C 
ATOM      8  C   UNL     1      -3.846  -2.622  24.307  0.00  0.00    +0.005 C 
ATOM      9  C   UNL     1      -3.406  -1.900  25.546  0.00  0.00    +0.005 C 
ENDBRANCH  10   7
ENDBRANCH   2  10
ENDBRANCH  15  11
TORSDOF 5
ENDMDL
MODEL 4
REMARK VINA RESULT:      -1.7     16.310     17.958
REMARK  Name = 45783825
REMARK  7 active torsions:
REMARK  status: ('A' for Active; 'I' for Inactive)
REMARK    1  A    between atoms: N_2  and  C_10
REMARK    2  A    between atoms: N_6  and  C_21
REMARK    3  A    between atoms: N_6  and  C_22
REMARK    4  A    between atoms: N_6  and  C_23
REMARK    5  A    between atoms: C_7  and  C_10
REMARK    6  A    between atoms: C_11  and  C_15
REMARK    7  A    between atoms: C_16  and  C_17
REMARK                            x       y       z     vdW  Elec       q    Type
REMARK                         _______ _______ _______ _____ _____    ______ ____
ROOT
ATOM      1  O   UNL     1      -3.377  -0.291  24.770  0.00  0.00    -0.336 OA
ATOM      3  N   UNL     1      -1.979   1.459  24.847  0.00  0.00    -0.190 NA
ATOM      4  N   UNL     1      -2.165  -0.736  24.227  0.00  0.00    -0.056 NA
ATOM     15  C   UNL     1      -3.181   1.011  25.109  0.00  0.00    +0.245 A 
ATOM     16  C   UNL     1      -1.392   0.351  24.306  0.00  0.00    +0.204 A 
ENDROOT
BRANCH  16  17
ATOM      5  N   UNL     1       2.102   1.497  23.757  0.00  0.00    -0.240 NA
ATOM     17  C   UNL     1      -0.031   0.365  23.854  0.00  0.00    +0.041 A 
ATOM     18  C   UNL     1       0.484  -0.686  23.103  0.00  0.00    +0.016 A 
ATOM     19  C   UNL     1       0.811   1.423  24.152  0.00  0.00    +0.124 A 
ATOM     20  C   UNL     1       1.808  -0.645  22.678  0.00  0.00    +0.044 A 
ATOM     21  C   UNL     1       2.568   0.458  23.028  0.00  0.00    +0.121 A 
BRANCH  21   6
ATOM      6  N   UNL     1       3.915   0.484  22.589  0.00  0.00    -0.321 N 
ATOM     22  C   UNL     1       4.218   0.505  21.175  0.00  0.00    +0.130 C 
ATOM     23  C   UNL     1       4.994   0.482  23.550  0.00  0.00    +0.130 C 
ENDBRANCH  21   6
ENDBRANCH  16  17
BRANCH  15  11
ATOM      2  N   UNL     1      -4.587   3.064  25.133  0.00  0.00    -0.291 NA
ATOM     11  C   UNL     1      -4.361   1.731  25.728  0.00  0.00    +0.146 C 
ATOM     12  C   UNL     1      -6.022   3.329  25.246  0.00  0.00    +0.085 C 
ATOM     13  C   UNL     1      -5.690   0.980  25.522  0.00  0.00    +0.030 C 
ATOM     14  C   UNL     1      -6.619   1.990  24.862  0.00  0.00    +0.017 C 
BRANCH   2  10
ATOM     10  C   UNL     1      -3.786   4.112  25.752  0.00  0.00    +0.088 C 
BRANCH  10   7
ATOM      7  C   UNL     1      -2.661   4.532  24.863  0.00  0.00    +0.003 C 
ATOM      8  C   UNL     1      -1.247   4.365  25.341  0.00  0.00    +0.005 C 
ATOM      9  C   UNL     1      -1.846   5.737  25.232  0.00  0.00    +0.005 C 
ENDBRANCH  10   7
ENDBRANCH   2  10
ENDBRANCH  15  11
TORSDOF 5
ENDMDL
MODEL 5
REMARK VINA RESULT:      -0.6     15.737     17.529
REMARK  Name = 45783825
REMARK  7 active torsions:
REMARK  status: ('A' for Active; 'I' for Inactive)
REMARK    1  A    between atoms: N_2  and  C_10
REMARK    2  A    between atoms: N_6  and  C_21
REMARK    3  A    between atoms: N_6  and  C_22
REMARK    4  A    between atoms: N_6  and  C_23
REMARK    5  A    between atoms: C_7  and  C_10
REMARK    6  A    between atoms: C_11  and  C_15
REMARK    7  A    between atoms: C_16  and  C_17
REMARK                            x       y       z     vdW  Elec       q    Type
REMARK                         _______ _______ _______ _____ _____    ______ ____
ROOT
ATOM      1  O   UNL     1      -2.634   1.732  22.522  0.00  0.00    -0.336 OA
ATOM      3  N   UNL     1      -1.143   2.154  24.140  0.00  0.00    -0.190 NA
ATOM      4  N   UNL     1      -1.474   1.027  22.178  0.00  0.00    -0.056 NA
ATOM     15  C   UNL     1      -2.354   2.369  23.691  0.00  0.00    +0.245 A 
ATOM     16  C   UNL     1      -0.641   1.326  23.179  0.00  0.00    +0.204 A 
ENDROOT
BRANCH  16  17
ATOM      5  N   UNL     1       3.070   1.250  23.386  0.00  0.00    -0.240 NA
ATOM     17  C   UNL     1       0.697   0.814  23.248  0.00  0.00    +0.041 A 
ATOM     18  C   UNL     1       0.940  -0.555  23.246  0.00  0.00    +0.016 A 
ATOM     19  C   UNL     1       1.785   1.667  23.319  0.00  0.00    +0.124 A 
ATOM     20  C   UNL     1       2.249  -1.022  23.314  0.00  0.00    +0.044 A 
ATOM     21  C   UNL     1       3.269  -0.087  23.383  0.00  0.00    +0.121 A 
BRANCH  21   6
ATOM      6  N   UNL     1       4.596  -0.579  23.452  0.00  0.00    -0.321 N 
ATOM     22  C   UNL     1       5.712   0.302  23.189  0.00  0.00    +0.130 C 
ATOM     23  C   UNL     1       4.842  -1.965  23.780  0.00  0.00    +0.130 C 
ENDBRANCH  21   6
ENDBRANCH  16  17
BRANCH  15  11
ATOM      2  N   UNL     1      -4.224   2.494  25.326  0.00  0.00    -0.291 NA
ATOM     11  C   UNL     1      -3.464   3.211  24.282  0.00  0.00    +0.146 C 
ATOM     12  C   UNL     1      -4.715   3.513  26.254  0.00  0.00    +0.085 C 
ATOM     13  C   UNL     1      -2.940   4.479  24.982  0.00  0.00    +0.030 C 
ATOM     14  C   UNL     1      -3.507   4.418  26.394  0.00  0.00    +0.017 C 
BRANCH   2  10
ATOM     10  C   UNL     1      -5.304   1.676  24.789  0.00  0.00    +0.088 C 
BRANCH  10   7
ATOM      7  C   UNL     1      -5.122   0.236  25.142  0.00  0.00    +0.003 C 
ATOM      8  C   UNL     1      -3.746  -0.272  25.463  0.00  0.00    +0.005 C 
ATOM      9  C   UNL     1      -4.414  -0.671  24.180  0.00  0.00    +0.005 C 
ENDBRANCH  10   7
ENDBRANCH   2  10
ENDBRANCH  15  11
TORSDOF 5
ENDMDL
