MODEL 1
REMARK VINA RESULT:      10.5      0.000      0.000
REMARK  Name = 25389753
REMARK  10 active torsions:
REMARK  status: ('A' for Active; 'I' for Inactive)
REMARK    1  A    between atoms: O_4  and  C_23
REMARK    2  A    between atoms: O_4  and  C_35
REMARK    3  A    between atoms: O_6  and  C_29
REMARK    4  A    between atoms: O_7  and  C_34
REMARK    5  A    between atoms: O_7  and  C_36
REMARK    6  A    between atoms: N_10  and  C_14
REMARK    7  A    between atoms: N_10  and  C_24
REMARK    8  A    between atoms: C_12  and  C_20
REMARK    9  A    between atoms: C_16  and  C_23
REMARK   10  A    between atoms: C_24  and  C_29
REMARK                            x       y       z     vdW  Elec       q    Type
REMARK                         _______ _______ _______ _____ _____    ______ ____
ROOT
ATOM      8  N   UNL     1      -1.139   0.553  25.547  0.00  0.00    -0.274 NA
ATOM      9  N   UNL     1       1.912  -1.204  24.157  0.00  0.00    -0.356 N 
ATOM     11  C   UNL     1      -0.141  -0.580  25.576  0.00  0.00    +0.106 C 
ATOM     12  C   UNL     1      -2.018   0.496  24.338  0.00  0.00    +0.090 C 
ATOM     13  C   UNL     1      -0.787  -1.955  25.367  0.00  0.00    +0.044 C 
ATOM     14  C   UNL     1      -1.606  -2.006  24.081  0.00  0.00    +0.057 C 
ATOM     15  C   UNL     1      -2.655  -0.903  24.132  0.00  0.00    +0.042 C 
ATOM     16  C   UNL     1      -0.365   1.828  25.720  0.00  0.00    +0.172 C 
ATOM     17  C   UNL     1       1.011  -0.299  24.642  0.00  0.00    +0.038 A 
ATOM     18  C   UNL     1       0.592   2.167  24.553  0.00  0.00    +0.068 C 
ATOM     19  C   UNL     1       1.370   0.952  24.178  0.00  0.00    -0.016 A 
ATOM     21  C   UNL     1       2.512   0.797  23.348  0.00  0.00    +0.003 A 
ATOM     22  C   UNL     1       2.832  -0.565  23.352  0.00  0.00    +0.047 A 
ATOM     27  C   UNL     1       3.312   1.678  22.594  0.00  0.00    +0.010 A 
ATOM     28  C   UNL     1       3.915  -1.086  22.636  0.00  0.00    +0.026 A 
ATOM     30  C   UNL     1       4.397   1.169  21.873  0.00  0.00    +0.001 A 
ATOM     33  C   UNL     1       4.693  -0.192  21.894  0.00  0.00    +0.002 A 
ATOM     37  H   UNL     1       1.910  -2.197  24.347  0.00  0.00    +0.166 HD
ENDROOT
BRANCH  12  20
ATOM     20  C   UNL     1      -3.170   1.497  24.346  0.00  0.00    -0.030 A 
ATOM     25  C   UNL     1      -4.212   1.354  25.262  0.00  0.00    +0.009 A 
ATOM     26  C   UNL     1      -3.181   2.556  23.437  0.00  0.00    +0.009 A 
ATOM     31  C   UNL     1      -5.266   2.269  25.269  0.00  0.00    +0.046 A 
ATOM     32  C   UNL     1      -4.233   3.471  23.445  0.00  0.00    +0.046 A 
ATOM     34  C   UNL     1      -5.276   3.327  24.361  0.00  0.00    +0.130 A 
BRANCH  34   7
ATOM      7  O   UNL     1      -6.303   4.221  24.368  0.00  0.00    -0.406 OA
BRANCH   7  36
ATOM      1  F   UNL     1      -5.057   5.444  25.798  0.00  0.00    -0.133 F 
ATOM      2  F   UNL     1      -6.830   6.376  24.924  0.00  0.00    -0.133 F 
ATOM      3  F   UNL     1      -7.038   4.797  26.457  0.00  0.00    -0.133 F 
ATOM     36  C   UNL     1      -6.325   5.213  25.388  0.00  0.00    +0.575 C 
ENDBRANCH   7  36
ENDBRANCH  34   7
ENDBRANCH  12  20
BRANCH  16  23
ATOM      5  O   UNL     1      -2.183   2.911  26.860  0.00  0.00    -0.249 OA
ATOM     23  C   UNL     1      -1.266   2.972  26.051  0.00  0.00    +0.325 C 
BRANCH  23   4
ATOM      4  O   UNL     1      -0.905   4.063  25.318  0.00  0.00    -0.467 OA
ATOM     35  C   UNL     1      -1.821   5.162  25.358  0.00  0.00    +0.280 C 
ENDBRANCH  23   4
ENDBRANCH  16  23
BRANCH  14  10
ATOM     10  N   UNL     1      -2.254  -3.309  23.930  0.00  0.00    -0.311 NA
ATOM     38  H   UNL     1      -1.676  -4.032  24.361  0.00  0.00    +0.122 HD
BRANCH  10  24
ATOM     24  C   UNL     1      -3.560  -3.313  24.569  0.00  0.00    +0.109 C 
BRANCH  24  29
ATOM     29  C   UNL     1      -4.642  -2.904  23.583  0.00  0.00    +0.171 C 
BRANCH  29   6
ATOM      6  O   UNL     1      -5.074  -1.587  23.899  0.00  0.00    -0.394 OA
ATOM     39  H   UNL     1      -5.875  -1.416  23.376  0.00  0.00    +0.209 HD
ENDBRANCH  29   6
ENDBRANCH  24  29
ENDBRANCH  10  24
ENDBRANCH  14  10
TORSDOF 9
ENDMDL
MODEL 2
REMARK VINA RESULT:      14.2      4.264      7.550
REMARK  Name = 25389753
REMARK  10 active torsions:
REMARK  status: ('A' for Active; 'I' for Inactive)
REMARK    1  A    between atoms: O_4  and  C_23
REMARK    2  A    between atoms: O_4  and  C_35
REMARK    3  A    between atoms: O_6  and  C_29
REMARK    4  A    between atoms: O_7  and  C_34
REMARK    5  A    between atoms: O_7  and  C_36
REMARK    6  A    between atoms: N_10  and  C_14
REMARK    7  A    between atoms: N_10  and  C_24
REMARK    8  A    between atoms: C_12  and  C_20
REMARK    9  A    between atoms: C_16  and  C_23
REMARK   10  A    between atoms: C_24  and  C_29
REMARK                            x       y       z     vdW  Elec       q    Type
REMARK                         _______ _______ _______ _____ _____    ______ ____
ROOT
ATOM      8  N   UNL     1      -2.619   0.341  23.280  0.00  0.00    -0.274 NA
ATOM      9  N   UNL     1      -5.665   1.355  25.286  0.00  0.00    -0.356 N 
ATOM     11  C   UNL     1      -4.006   0.060  23.807  0.00  0.00    +0.106 C 
ATOM     12  C   UNL     1      -1.597   0.362  24.372  0.00  0.00    +0.090 C 
ATOM     13  C   UNL     1      -4.065  -1.179  24.709  0.00  0.00    +0.044 C 
ATOM     14  C   UNL     1      -3.071  -1.088  25.863  0.00  0.00    +0.057 C 
ATOM     15  C   UNL     1      -1.675  -0.890  25.284  0.00  0.00    +0.042 C 
ATOM     16  C   UNL     1      -2.705   1.593  22.456  0.00  0.00    +0.172 C 
ATOM     17  C   UNL     1      -4.600   1.298  24.432  0.00  0.00    +0.038 A 
ATOM     18  C   UNL     1      -3.048   2.872  23.257  0.00  0.00    +0.068 C 
ATOM     19  C   UNL     1      -4.186   2.592  24.179  0.00  0.00    -0.016 A 
ATOM     21  C   UNL     1      -5.006   3.467  24.938  0.00  0.00    +0.003 A 
ATOM     22  C   UNL     1      -5.925   2.667  25.624  0.00  0.00    +0.047 A 
ATOM     27  C   UNL     1      -5.064   4.865  25.111  0.00  0.00    +0.010 A 
ATOM     28  C   UNL     1      -6.901   3.199  26.474  0.00  0.00    +0.026 A 
ATOM     30  C   UNL     1      -6.034   5.409  25.960  0.00  0.00    +0.001 A 
ATOM     33  C   UNL     1      -6.937   4.588  26.631  0.00  0.00    +0.002 A 
ATOM     37  H   UNL     1      -6.185   0.560  25.632  0.00  0.00    +0.166 HD
ENDROOT
BRANCH  12  20
ATOM     20  C   UNL     1      -0.153   0.450  23.885  0.00  0.00    -0.030 A 
ATOM     25  C   UNL     1       0.362  -0.538  23.046  0.00  0.00    +0.009 A 
ATOM     26  C   UNL     1       0.653   1.519  24.279  0.00  0.00    +0.009 A 
ATOM     31  C   UNL     1       1.682  -0.459  22.601  0.00  0.00    +0.046 A 
ATOM     32  C   UNL     1       1.972   1.600  23.834  0.00  0.00    +0.046 A 
ATOM     34  C   UNL     1       2.486   0.610  22.995  0.00  0.00    +0.130 A 
BRANCH  34   7
ATOM      7  O   UNL     1       3.774   0.690  22.560  0.00  0.00    -0.406 OA
BRANCH   7  36
ATOM      1  F   UNL     1       5.885  -0.106  22.555  0.00  0.00    -0.133 F 
ATOM      2  F   UNL     1       5.127   0.780  24.402  0.00  0.00    -0.133 F 
ATOM      3  F   UNL     1       4.384  -1.186  23.719  0.00  0.00    -0.133 F 
ATOM     36  C   UNL     1       4.784   0.042  23.325  0.00  0.00    +0.575 C 
ENDBRANCH   7  36
ENDBRANCH  34   7
ENDBRANCH  12  20
BRANCH  16  23
ATOM      5  O   UNL     1      -1.003   0.899  20.908  0.00  0.00    -0.249 OA
ATOM     23  C   UNL     1      -1.487   1.776  21.612  0.00  0.00    +0.325 C 
BRANCH  23   4
ATOM      4  O   UNL     1      -1.019   3.048  21.757  0.00  0.00    -0.467 OA
ATOM     35  C   UNL     1      -0.814   3.477  23.107  0.00  0.00    +0.280 C 
ENDBRANCH  23   4
ENDBRANCH  16  23
BRANCH  14  10
ATOM     10  N   UNL     1      -3.109  -2.302  26.678  0.00  0.00    -0.311 NA
ATOM     38  H   UNL     1      -4.054  -2.445  27.037  0.00  0.00    +0.122 HD
BRANCH  10  24
ATOM     24  C   UNL     1      -2.726  -3.464  25.892  0.00  0.00    +0.109 C 
BRANCH  24  29
ATOM     29  C   UNL     1      -3.397  -3.434  24.528  0.00  0.00    +0.171 C 
BRANCH  29   6
ATOM      6  O   UNL     1      -2.400  -3.590  23.526  0.00  0.00    -0.394 OA
ATOM     39  H   UNL     1      -1.544  -3.392  23.942  0.00  0.00    +0.209 HD
ENDBRANCH  29   6
ENDBRANCH  24  29
ENDBRANCH  10  24
ENDBRANCH  14  10
TORSDOF 9
ENDMDL
