MODEL 1
REMARK VINA RESULT:      -4.9      0.000      0.000
REMARK  Name = 28960638
REMARK  6 active torsions:
REMARK  status: ('A' for Active; 'I' for Inactive)
REMARK    1  A    between atoms: O_1  and  C_9
REMARK    2  A    between atoms: N_3  and  C_11
REMARK    3  A    between atoms: C_7  and  C_12
REMARK    4  A    between atoms: C_11  and  C_13
REMARK    5  A    between atoms: C_11  and  C_14
REMARK    6  A    between atoms: C_15  and  C_16
REMARK                            x       y       z     vdW  Elec       q    Type
REMARK                         _______ _______ _______ _____ _____    ______ ____
ROOT
ATOM      2  O   UNL     1      -1.989 -10.677  14.810  0.00  0.00    -0.336 OA
ATOM      4  N   UNL     1      -4.170 -10.421  14.367  0.00  0.00    -0.190 NA
ATOM      5  N   UNL     1      -2.636 -10.628  16.051  0.00  0.00    -0.056 NA
ATOM     12  C   UNL     1      -2.965 -10.548  13.872  0.00  0.00    +0.245 A 
ATOM     15  C   UNL     1      -3.919 -10.477  15.706  0.00  0.00    +0.204 A 
ENDROOT
BRANCH  15  16
ATOM      6  N   UNL     1      -7.248  -9.749  17.191  0.00  0.00    -0.263 NA
ATOM     16  C   UNL     1      -4.971 -10.375  16.675  0.00  0.00    +0.041 A 
ATOM     17  C   UNL     1      -4.776 -10.780  17.991  0.00  0.00    +0.014 A 
ATOM     18  C   UNL     1      -6.214  -9.871  16.329  0.00  0.00    +0.122 A 
ATOM     19  C   UNL     1      -5.816 -10.670  18.908  0.00  0.00    +0.020 A 
ATOM     20  C   UNL     1      -7.022 -10.151  18.462  0.00  0.00    +0.111 A 
ENDBRANCH  15  16
BRANCH  12   7
ATOM      3  N   UNL     1      -3.344  -9.705  11.562  0.00  0.00    -0.286 NA
ATOM      7  C   UNL     1      -2.517 -10.571  12.425  0.00  0.00    +0.149 C 
ATOM      8  C   UNL     1      -1.079 -10.053  12.239  0.00  0.00    +0.061 C 
ATOM      9  C   UNL     1      -1.193  -8.928  11.218  0.00  0.00    +0.130 C 
ATOM     10  C   UNL     1      -2.476  -9.251  10.476  0.00  0.00    +0.116 C 
BRANCH   3  11
ATOM     11  C   UNL     1      -4.543 -10.367  11.063  0.00  0.00    +0.051 C 
ATOM     13  C   UNL     1      -4.395 -10.683   9.579  0.00  0.00    +0.024 C 
ATOM     14  C   UNL     1      -5.757  -9.479  11.318  0.00  0.00    +0.024 C 
ENDBRANCH   3  11
BRANCH   9   1
ATOM      1  O   UNL     1      -0.075  -8.919  10.353  0.00  0.00    -0.390 OA
ATOM     21  H   UNL     1       0.689  -9.245  10.859  0.00  0.00    +0.210 HD
ENDBRANCH   9   1
ENDBRANCH  12   7
TORSDOF 4
ENDMDL
MODEL 2
REMARK VINA RESULT:      -4.8      2.050      2.619
REMARK  Name = 28960638
REMARK  6 active torsions:
REMARK  status: ('A' for Active; 'I' for Inactive)
REMARK    1  A    between atoms: O_1  and  C_9
REMARK    2  A    between atoms: N_3  and  C_11
REMARK    3  A    between atoms: C_7  and  C_12
REMARK    4  A    between atoms: C_11  and  C_13
REMARK    5  A    between atoms: C_11  and  C_14
REMARK    6  A    between atoms: C_15  and  C_16
REMARK                            x       y       z     vdW  Elec       q    Type
REMARK                         _______ _______ _______ _____ _____    ______ ____
ROOT
ATOM      2  O   UNL     1      -3.748 -10.423  13.535  0.00  0.00    -0.336 OA
ATOM      4  N   UNL     1      -5.900 -10.326  14.149  0.00  0.00    -0.190 NA
ATOM      5  N   UNL     1      -3.755 -10.452  14.935  0.00  0.00    -0.056 NA
ATOM     12  C   UNL     1      -5.050 -10.349  13.154  0.00  0.00    +0.245 A 
ATOM     15  C   UNL     1      -5.060 -10.392  15.221  0.00  0.00    +0.204 A 
ENDROOT
BRANCH  15  16
ATOM      6  N   UNL     1      -7.393 -10.013  18.092  0.00  0.00    -0.263 NA
ATOM     16  C   UNL     1      -5.555 -10.393  16.568  0.00  0.00    +0.041 A 
ATOM     17  C   UNL     1      -4.737 -10.757  17.633  0.00  0.00    +0.014 A 
ATOM     18  C   UNL     1      -6.863 -10.032  16.848  0.00  0.00    +0.122 A 
ATOM     19  C   UNL     1      -5.246 -10.749  18.926  0.00  0.00    +0.020 A 
ATOM     20  C   UNL     1      -6.568 -10.371  19.102  0.00  0.00    +0.111 A 
ENDBRANCH  15  16
BRANCH  12   7
ATOM      3  N   UNL     1      -6.550  -9.566  11.328  0.00  0.00    -0.286 NA
ATOM      7  C   UNL     1      -5.315 -10.304  11.663  0.00  0.00    +0.149 C 
ATOM      8  C   UNL     1      -4.201  -9.584  10.882  0.00  0.00    +0.061 C 
ATOM      9  C   UNL     1      -4.914  -8.485  10.101  0.00  0.00    +0.130 C 
ATOM     10  C   UNL     1      -6.340  -8.991  10.000  0.00  0.00    +0.116 C 
BRANCH   3  11
ATOM     11  C   UNL     1      -7.747 -10.395  11.382  0.00  0.00    +0.051 C 
ATOM     13  C   UNL     1      -8.213 -10.746   9.973  0.00  0.00    +0.024 C 
ATOM     14  C   UNL     1      -8.838  -9.659  12.154  0.00  0.00    +0.024 C 
ENDBRANCH   3  11
BRANCH   9   1
ATOM      1  O   UNL     1      -4.327  -8.314   8.826  0.00  0.00    -0.390 OA
ATOM     21  H   UNL     1      -3.599  -8.955   8.750  0.00  0.00    +0.210 HD
ENDBRANCH   9   1
ENDBRANCH  12   7
TORSDOF 4
ENDMDL
MODEL 3
REMARK VINA RESULT:      -4.5      1.072      1.544
REMARK  Name = 28960638
REMARK  6 active torsions:
REMARK  status: ('A' for Active; 'I' for Inactive)
REMARK    1  A    between atoms: O_1  and  C_9
REMARK    2  A    between atoms: N_3  and  C_11
REMARK    3  A    between atoms: C_7  and  C_12
REMARK    4  A    between atoms: C_11  and  C_13
REMARK    5  A    between atoms: C_11  and  C_14
REMARK    6  A    between atoms: C_15  and  C_16
REMARK                            x       y       z     vdW  Elec       q    Type
REMARK                         _______ _______ _______ _____ _____    ______ ____
ROOT
ATOM      2  O   UNL     1      -3.043 -10.748  14.763  0.00  0.00    -0.336 OA
ATOM      4  N   UNL     1      -5.077 -10.329  13.922  0.00  0.00    -0.190 NA
ATOM      5  N   UNL     1      -3.905 -10.641  15.862  0.00  0.00    -0.056 NA
ATOM     12  C   UNL     1      -3.813 -10.552  13.661  0.00  0.00    +0.245 A 
ATOM     15  C   UNL     1      -5.085 -10.393  15.284  0.00  0.00    +0.204 A 
ENDROOT
BRANCH  15  16
ATOM      6  N   UNL     1      -7.383 -10.117  18.194  0.00  0.00    -0.263 NA
ATOM     16  C   UNL     1      -6.290 -10.204  16.039  0.00  0.00    +0.041 A 
ATOM     17  C   UNL     1      -7.498  -9.930  15.407  0.00  0.00    +0.014 A 
ATOM     18  C   UNL     1      -6.286 -10.286  17.422  0.00  0.00    +0.122 A 
ATOM     19  C   UNL     1      -8.648  -9.750  16.167  0.00  0.00    +0.020 A 
ATOM     20  C   UNL     1      -8.539  -9.854  17.544  0.00  0.00    +0.111 A 
ENDBRANCH  15  16
BRANCH  12   7
ATOM      3  N   UNL     1      -3.702  -9.716  11.319  0.00  0.00    -0.286 NA
ATOM      7  C   UNL     1      -3.106 -10.620  12.323  0.00  0.00    +0.149 C 
ATOM      8  C   UNL     1      -1.629 -10.194  12.409  0.00  0.00    +0.061 C 
ATOM      9  C   UNL     1      -1.481  -9.076  11.383  0.00  0.00    +0.130 C 
ATOM     10  C   UNL     1      -2.620  -9.330  10.415  0.00  0.00    +0.116 C 
BRANCH   3  11
ATOM     11  C   UNL     1      -4.825 -10.311  10.606  0.00  0.00    +0.051 C 
ATOM     13  C   UNL     1      -4.386 -10.781   9.223  0.00  0.00    +0.024 C 
ATOM     14  C   UNL     1      -5.958  -9.294  10.506  0.00  0.00    +0.024 C 
ENDBRANCH   3  11
BRANCH   9   1
ATOM      1  O   UNL     1      -0.222  -9.146  10.742  0.00  0.00    -0.390 OA
ATOM     21  H   UNL     1       0.461  -9.027  11.425  0.00  0.00    +0.210 HD
ENDBRANCH   9   1
ENDBRANCH  12   7
TORSDOF 4
ENDMDL
MODEL 4
REMARK VINA RESULT:      -4.2     14.581     16.847
REMARK  Name = 28960638
REMARK  6 active torsions:
REMARK  status: ('A' for Active; 'I' for Inactive)
REMARK    1  A    between atoms: O_1  and  C_9
REMARK    2  A    between atoms: N_3  and  C_11
REMARK    3  A    between atoms: C_7  and  C_12
REMARK    4  A    between atoms: C_11  and  C_13
REMARK    5  A    between atoms: C_11  and  C_14
REMARK    6  A    between atoms: C_15  and  C_16
REMARK                            x       y       z     vdW  Elec       q    Type
REMARK                         _______ _______ _______ _____ _____    ______ ____
ROOT
ATOM      2  O   UNL     1      -1.924  -0.585  24.741  0.00  0.00    -0.336 OA
ATOM      4  N   UNL     1      -0.832   1.300  24.220  0.00  0.00    -0.190 NA
ATOM      5  N   UNL     1      -0.747  -0.982  24.093  0.00  0.00    -0.056 NA
ATOM     12  C   UNL     1      -1.894   0.773  24.774  0.00  0.00    +0.245 A 
ATOM     15  C   UNL     1      -0.158   0.186  23.817  0.00  0.00    +0.204 A 
ENDROOT
BRANCH  15  16
ATOM      6  N   UNL     1       2.486  -0.371  21.262  0.00  0.00    -0.263 NA
ATOM     16  C   UNL     1       1.103   0.272  23.138  0.00  0.00    +0.041 A 
ATOM     17  C   UNL     1       2.142   1.043  23.649  0.00  0.00    +0.014 A 
ATOM     18  C   UNL     1       1.324  -0.409  21.953  0.00  0.00    +0.122 A 
ATOM     19  C   UNL     1       3.352   1.108  22.968  0.00  0.00    +0.020 A 
ATOM     20  C   UNL     1       3.473   0.388  21.790  0.00  0.00    +0.111 A 
ENDBRANCH  15  16
BRANCH  12   7
ATOM      3  N   UNL     1      -3.186   2.881  25.061  0.00  0.00    -0.286 NA
ATOM      7  C   UNL     1      -3.074   1.457  25.435  0.00  0.00    +0.149 C 
ATOM      8  C   UNL     1      -4.424   0.837  25.032  0.00  0.00    +0.061 C 
ATOM      9  C   UNL     1      -5.244   1.999  24.485  0.00  0.00    +0.130 C 
ATOM     10  C   UNL     1      -4.608   3.216  25.128  0.00  0.00    +0.116 C 
BRANCH   3  11
ATOM     11  C   UNL     1      -2.377   3.760  25.897  0.00  0.00    +0.051 C 
ATOM     13  C   UNL     1      -3.261   4.507  26.891  0.00  0.00    +0.024 C 
ATOM     14  C   UNL     1      -1.604   4.732  25.011  0.00  0.00    +0.024 C 
ENDBRANCH   3  11
BRANCH   9   1
ATOM      1  O   UNL     1      -6.605   1.867  24.846  0.00  0.00    -0.390 OA
ATOM     21  H   UNL     1      -6.766   0.927  25.042  0.00  0.00    +0.210 HD
ENDBRANCH   9   1
ENDBRANCH  12   7
TORSDOF 4
ENDMDL
MODEL 5
REMARK VINA RESULT:      -4.2     23.284     24.791
REMARK  Name = 28960638
REMARK  6 active torsions:
REMARK  status: ('A' for Active; 'I' for Inactive)
REMARK    1  A    between atoms: O_1  and  C_9
REMARK    2  A    between atoms: N_3  and  C_11
REMARK    3  A    between atoms: C_7  and  C_12
REMARK    4  A    between atoms: C_11  and  C_13
REMARK    5  A    between atoms: C_11  and  C_14
REMARK    6  A    between atoms: C_15  and  C_16
REMARK                            x       y       z     vdW  Elec       q    Type
REMARK                         _______ _______ _______ _____ _____    ______ ____
ROOT
ATOM      2  O   UNL     1      17.341  -5.398  27.482  0.00  0.00    -0.336 OA
ATOM      4  N   UNL     1      17.057  -5.630  25.272  0.00  0.00    -0.190 NA
ATOM      5  N   UNL     1      17.405  -4.107  26.944  0.00  0.00    -0.056 NA
ATOM     12  C   UNL     1      17.134  -6.234  26.431  0.00  0.00    +0.245 A 
ATOM     15  C   UNL     1      17.229  -4.327  25.637  0.00  0.00    +0.204 A 
ENDROOT
BRANCH  15  16
ATOM      6  N   UNL     1      17.329  -2.585  22.354  0.00  0.00    -0.263 NA
ATOM     16  C   UNL     1      17.221  -3.267  24.671  0.00  0.00    +0.041 A 
ATOM     17  C   UNL     1      17.103  -1.938  25.064  0.00  0.00    +0.014 A 
ATOM     18  C   UNL     1      17.330  -3.534  23.316  0.00  0.00    +0.122 A 
ATOM     19  C   UNL     1      17.098  -0.932  24.104  0.00  0.00    +0.020 A 
ATOM     20  C   UNL     1      17.213  -1.304  22.774  0.00  0.00    +0.111 A 
ENDBRANCH  15  16
BRANCH  12   7
ATOM      3  N   UNL     1      15.709  -8.073  27.315  0.00  0.00    -0.286 NA
ATOM      7  C   UNL     1      17.026  -7.710  26.754  0.00  0.00    +0.149 C 
ATOM      8  C   UNL     1      17.184  -8.605  25.511  0.00  0.00    +0.061 C 
ATOM      9  C   UNL     1      15.928  -9.467  25.483  0.00  0.00    +0.130 C 
ATOM     10  C   UNL     1      15.461  -9.461  26.926  0.00  0.00    +0.116 C 
BRANCH   3  11
ATOM     11  C   UNL     1      15.628  -7.886  28.758  0.00  0.00    +0.051 C 
ATOM     13  C   UNL     1      15.168  -9.174  29.434  0.00  0.00    +0.024 C 
ATOM     14  C   UNL     1      14.678  -6.734  29.068  0.00  0.00    +0.024 C 
ENDBRANCH   3  11
BRANCH   9   1
ATOM      1  O   UNL     1      16.226 -10.775  25.034  0.00  0.00    -0.390 OA
ATOM     21  H   UNL     1      15.456 -11.096  24.535  0.00  0.00    +0.210 HD
ENDBRANCH   9   1
ENDBRANCH  12   7
TORSDOF 4
ENDMDL
MODEL 6
REMARK VINA RESULT:      -4.1     14.467     16.712
REMARK  Name = 28960638
REMARK  6 active torsions:
REMARK  status: ('A' for Active; 'I' for Inactive)
REMARK    1  A    between atoms: O_1  and  C_9
REMARK    2  A    between atoms: N_3  and  C_11
REMARK    3  A    between atoms: C_7  and  C_12
REMARK    4  A    between atoms: C_11  and  C_13
REMARK    5  A    between atoms: C_11  and  C_14
REMARK    6  A    between atoms: C_15  and  C_16
REMARK                            x       y       z     vdW  Elec       q    Type
REMARK                         _______ _______ _______ _____ _____    ______ ____
ROOT
ATOM      2  O   UNL     1      -1.486   2.364  25.385  0.00  0.00    -0.336 OA
ATOM      4  N   UNL     1      -1.333   1.165  23.499  0.00  0.00    -0.190 NA
ATOM      5  N   UNL     1      -0.118   2.169  25.157  0.00  0.00    -0.056 NA
ATOM     12  C   UNL     1      -2.130   1.742  24.363  0.00  0.00    +0.245 A 
ATOM     15  C   UNL     1      -0.110   1.454  24.027  0.00  0.00    +0.204 A 
ENDROOT
BRANCH  15  16
ATOM      6  N   UNL     1       3.479   1.310  23.066  0.00  0.00    -0.263 NA
ATOM     16  C   UNL     1       1.104   1.012  23.403  0.00  0.00    +0.041 A 
ATOM     17  C   UNL     1       1.115  -0.094  22.560  0.00  0.00    +0.014 A 
ATOM     18  C   UNL     1       2.301   1.674  23.621  0.00  0.00    +0.122 A 
ATOM     19  C   UNL     1       2.307  -0.499  21.970  0.00  0.00    +0.020 A 
ATOM     20  C   UNL     1       3.451   0.230  22.252  0.00  0.00    +0.111 A 
ENDBRANCH  15  16
BRANCH  12   7
ATOM      3  N   UNL     1      -4.234   1.036  25.491  0.00  0.00    -0.286 NA
ATOM      7  C   UNL     1      -3.644   1.809  24.379  0.00  0.00    +0.149 C 
ATOM      8  C   UNL     1      -4.174   3.242  24.571  0.00  0.00    +0.061 C 
ATOM      9  C   UNL     1      -5.090   3.164  25.787  0.00  0.00    +0.130 C 
ATOM     10  C   UNL     1      -5.489   1.702  25.837  0.00  0.00    +0.116 C 
BRANCH   3  11
ATOM     11  C   UNL     1      -4.431  -0.372  25.170  0.00  0.00    +0.051 C 
ATOM     13  C   UNL     1      -3.450  -1.237  25.955  0.00  0.00    +0.024 C 
ATOM     14  C   UNL     1      -4.264  -0.578  23.667  0.00  0.00    +0.024 C 
ENDBRANCH   3  11
BRANCH   9   1
ATOM      1  O   UNL     1      -6.212   4.009  25.624  0.00  0.00    -0.390 OA
ATOM     21  H   UNL     1      -6.559   3.865  24.727  0.00  0.00    +0.210 HD
ENDBRANCH   9   1
ENDBRANCH  12   7
TORSDOF 4
ENDMDL
MODEL 7
REMARK VINA RESULT:      -3.7      2.368      3.037
REMARK  Name = 28960638
REMARK  6 active torsions:
REMARK  status: ('A' for Active; 'I' for Inactive)
REMARK    1  A    between atoms: O_1  and  C_9
REMARK    2  A    between atoms: N_3  and  C_11
REMARK    3  A    between atoms: C_7  and  C_12
REMARK    4  A    between atoms: C_11  and  C_13
REMARK    5  A    between atoms: C_11  and  C_14
REMARK    6  A    between atoms: C_15  and  C_16
REMARK                            x       y       z     vdW  Elec       q    Type
REMARK                         _______ _______ _______ _____ _____    ______ ____
ROOT
ATOM      2  O   UNL     1      -7.238  -9.899  12.030  0.00  0.00    -0.336 OA
ATOM      4  N   UNL     1      -6.073 -10.429  13.869  0.00  0.00    -0.190 NA
ATOM      5  N   UNL     1      -8.114  -9.726  13.110  0.00  0.00    -0.056 NA
ATOM     12  C   UNL     1      -6.059 -10.313  12.565  0.00  0.00    +0.245 A 
ATOM     15  C   UNL     1      -7.353 -10.058  14.158  0.00  0.00    +0.204 A 
ENDROOT
BRANCH  15  16
ATOM      6  N   UNL     1      -9.681 -10.362  17.041  0.00  0.00    -0.263 NA
ATOM     16  C   UNL     1      -7.843 -10.032  15.506  0.00  0.00    +0.041 A 
ATOM     17  C   UNL     1      -7.015  -9.672  16.564  0.00  0.00    +0.014 A 
ATOM     18  C   UNL     1      -9.156 -10.365  15.795  0.00  0.00    +0.122 A 
ATOM     19  C   UNL     1      -7.518  -9.657  17.860  0.00  0.00    +0.020 A 
ATOM     20  C   UNL     1      -8.847 -10.006  18.044  0.00  0.00    +0.111 A 
ENDBRANCH  15  16
BRANCH  12   7
ATOM      3  N   UNL     1      -4.720  -9.450  10.653  0.00  0.00    -0.286 NA
ATOM      7  C   UNL     1      -4.931 -10.573  11.588  0.00  0.00    +0.149 C 
ATOM      8  C   UNL     1      -3.572 -10.763  12.287  0.00  0.00    +0.061 C 
ATOM      9  C   UNL     1      -2.650  -9.733  11.644  0.00  0.00    +0.130 C 
ATOM     10  C   UNL     1      -3.301  -9.464  10.301  0.00  0.00    +0.116 C 
BRANCH   3  11
ATOM     11  C   UNL     1      -5.577  -9.514   9.475  0.00  0.00    +0.051 C 
ATOM     13  C   UNL     1      -4.769  -9.946   8.256  0.00  0.00    +0.024 C 
ATOM     14  C   UNL     1      -6.230  -8.155   9.248  0.00  0.00    +0.024 C 
ENDBRANCH   3  11
BRANCH   9   1
ATOM      1  O   UNL     1      -1.342 -10.252  11.498  0.00  0.00    -0.390 OA
ATOM     21  H   UNL     1      -1.424 -11.200  11.296  0.00  0.00    +0.210 HD
ENDBRANCH   9   1
ENDBRANCH  12   7
TORSDOF 4
ENDMDL
MODEL 8
REMARK VINA RESULT:      -3.2     24.307     25.893
REMARK  Name = 28960638
REMARK  6 active torsions:
REMARK  status: ('A' for Active; 'I' for Inactive)
REMARK    1  A    between atoms: O_1  and  C_9
REMARK    2  A    between atoms: N_3  and  C_11
REMARK    3  A    between atoms: C_7  and  C_12
REMARK    4  A    between atoms: C_11  and  C_13
REMARK    5  A    between atoms: C_11  and  C_14
REMARK    6  A    between atoms: C_15  and  C_16
REMARK                            x       y       z     vdW  Elec       q    Type
REMARK                         _______ _______ _______ _____ _____    ______ ____
ROOT
ATOM      2  O   UNL     1      17.403  -3.620  28.511  0.00  0.00    -0.336 OA
ATOM      4  N   UNL     1      17.124  -4.662  26.547  0.00  0.00    -0.190 NA
ATOM      5  N   UNL     1      17.405  -2.617  27.533  0.00  0.00    -0.056 NA
ATOM     12  C   UNL     1      17.232  -4.793  27.846  0.00  0.00    +0.245 A 
ATOM     15  C   UNL     1      17.236  -3.311  26.403  0.00  0.00    +0.204 A 
ENDROOT
BRANCH  15  16
ATOM      6  N   UNL     1      17.245  -0.655  23.801  0.00  0.00    -0.263 NA
ATOM     16  C   UNL     1      17.177  -2.684  25.114  0.00  0.00    +0.041 A 
ATOM     17  C   UNL     1      17.005  -3.436  23.957  0.00  0.00    +0.014 A 
ATOM     18  C   UNL     1      17.291  -1.309  24.983  0.00  0.00    +0.122 A 
ATOM     19  C   UNL     1      16.953  -2.800  22.722  0.00  0.00    +0.020 A 
ATOM     20  C   UNL     1      17.076  -1.419  22.698  0.00  0.00    +0.111 A 
ENDBRANCH  15  16
BRANCH  12   7
ATOM      3  N   UNL     1      15.910  -6.212  29.406  0.00  0.00    -0.286 NA
ATOM      7  C   UNL     1      17.193  -6.049  28.692  0.00  0.00    +0.149 C 
ATOM      8  C   UNL     1      17.345  -7.334  27.857  0.00  0.00    +0.061 C 
ATOM      9  C   UNL     1      16.124  -8.177  28.205  0.00  0.00    +0.130 C 
ATOM     10  C   UNL     1      15.705  -7.651  29.564  0.00  0.00    +0.116 C 
BRANCH   3  11
ATOM     11  C   UNL     1      15.870  -5.509  30.682  0.00  0.00    +0.051 C 
ATOM     13  C   UNL     1      16.438  -6.391  31.790  0.00  0.00    +0.024 C 
ATOM     14  C   UNL     1      14.434  -5.098  30.990  0.00  0.00    +0.024 C 
ENDBRANCH   3  11
BRANCH   9   1
ATOM      1  O   UNL     1      16.459  -9.550  28.254  0.00  0.00    -0.390 OA
ATOM     21  H   UNL     1      17.416  -9.612  28.417  0.00  0.00    +0.210 HD
ENDBRANCH   9   1
ENDBRANCH  12   7
TORSDOF 4
ENDMDL
MODEL 9
REMARK VINA RESULT:      -3.2     23.483     25.179
REMARK  Name = 28960638
REMARK  6 active torsions:
REMARK  status: ('A' for Active; 'I' for Inactive)
REMARK    1  A    between atoms: O_1  and  C_9
REMARK    2  A    between atoms: N_3  and  C_11
REMARK    3  A    between atoms: C_7  and  C_12
REMARK    4  A    between atoms: C_11  and  C_13
REMARK    5  A    between atoms: C_11  and  C_14
REMARK    6  A    between atoms: C_15  and  C_16
REMARK                            x       y       z     vdW  Elec       q    Type
REMARK                         _______ _______ _______ _____ _____    ______ ____
ROOT
ATOM      2  O   UNL     1      15.780  -8.529  27.939  0.00  0.00    -0.336 OA
ATOM      4  N   UNL     1      16.097  -6.313  28.022  0.00  0.00    -0.190 NA
ATOM      5  N   UNL     1      16.140  -8.138  26.643  0.00  0.00    -0.056 NA
ATOM     12  C   UNL     1      15.779  -7.395  28.687  0.00  0.00    +0.245 A 
ATOM     15  C   UNL     1      16.310  -6.819  26.773  0.00  0.00    +0.204 A 
ENDROOT
BRANCH  15  16
ATOM      6  N   UNL     1      17.072  -3.751  24.816  0.00  0.00    -0.263 NA
ATOM     16  C   UNL     1      16.691  -5.978  25.675  0.00  0.00    +0.041 A 
ATOM     17  C   UNL     1      17.040  -6.521  24.443  0.00  0.00    +0.014 A 
ATOM     18  C   UNL     1      16.723  -4.600  25.808  0.00  0.00    +0.122 A 
ATOM     19  C   UNL     1      17.405  -5.681  23.398  0.00  0.00    +0.020 A 
ATOM     20  C   UNL     1      17.404  -4.315  23.632  0.00  0.00    +0.111 A 
ENDBRANCH  15  16
BRANCH  12   7
ATOM      3  N   UNL     1      13.959  -7.660  30.365  0.00  0.00    -0.286 NA
ATOM      7  C   UNL     1      15.416  -7.551  30.150  0.00  0.00    +0.149 C 
ATOM      8  C   UNL     1      16.002  -8.831  30.774  0.00  0.00    +0.061 C 
ATOM      9  C   UNL     1      14.804  -9.571  31.356  0.00  0.00    +0.130 C 
ATOM     10  C   UNL     1      13.777  -8.475  31.565  0.00  0.00    +0.116 C 
BRANCH   3  11
ATOM     11  C   UNL     1      13.297  -6.366  30.476  0.00  0.00    +0.051 C 
ATOM     13  C   UNL     1      14.087  -5.444  31.398  0.00  0.00    +0.024 C 
ATOM     14  C   UNL     1      11.874  -6.567  30.987  0.00  0.00    +0.024 C 
ENDBRANCH   3  11
BRANCH   9   1
ATOM      1  O   UNL     1      15.147 -10.207  32.571  0.00  0.00    -0.390 OA
ATOM     21  H   UNL     1      14.879  -9.617  33.296  0.00  0.00    +0.210 HD
ENDBRANCH   9   1
ENDBRANCH  12   7
TORSDOF 4
ENDMDL
MODEL 10
REMARK VINA RESULT:      -3.0      3.423      4.486
REMARK  Name = 28960638
REMARK  6 active torsions:
REMARK  status: ('A' for Active; 'I' for Inactive)
REMARK    1  A    between atoms: O_1  and  C_9
REMARK    2  A    between atoms: N_3  and  C_11
REMARK    3  A    between atoms: C_7  and  C_12
REMARK    4  A    between atoms: C_11  and  C_13
REMARK    5  A    between atoms: C_11  and  C_14
REMARK    6  A    between atoms: C_15  and  C_16
REMARK                            x       y       z     vdW  Elec       q    Type
REMARK                         _______ _______ _______ _____ _____    ______ ____
ROOT
ATOM      2  O   UNL     1      -8.315 -10.781  11.543  0.00  0.00    -0.336 OA
ATOM      4  N   UNL     1      -7.290  -9.320  12.897  0.00  0.00    -0.190 NA
ATOM      5  N   UNL     1      -9.123 -10.673  12.683  0.00  0.00    -0.056 NA
ATOM     12  C   UNL     1      -7.258  -9.953  11.752  0.00  0.00    +0.245 A 
ATOM     15  C   UNL     1      -8.452  -9.793  13.433  0.00  0.00    +0.204 A 
ENDROOT
BRANCH  15  16
ATOM      6  N   UNL     1      -9.016  -9.753  17.108  0.00  0.00    -0.263 NA
ATOM     16  C   UNL     1      -8.914  -9.369  14.723  0.00  0.00    +0.041 A 
ATOM     17  C   UNL     1      -9.675  -8.215  14.869  0.00  0.00    +0.014 A 
ATOM     18  C   UNL     1      -8.614 -10.096  15.864  0.00  0.00    +0.122 A 
ATOM     19  C   UNL     1     -10.108  -7.829  16.133  0.00  0.00    +0.020 A 
ATOM     20  C   UNL     1      -9.756  -8.626  17.210  0.00  0.00    +0.111 A 
ENDBRANCH  15  16
BRANCH  12   7
ATOM      3  N   UNL     1      -6.258  -8.608   9.911  0.00  0.00    -0.286 NA
ATOM      7  C   UNL     1      -6.224  -9.888  10.647  0.00  0.00    +0.149 C 
ATOM      8  C   UNL     1      -4.782 -10.000  11.174  0.00  0.00    +0.061 C 
ATOM      9  C   UNL     1      -4.071  -8.761  10.645  0.00  0.00    +0.130 C 
ATOM     10  C   UNL     1      -4.897  -8.367   9.435  0.00  0.00    +0.116 C 
BRANCH   3  11
ATOM     11  C   UNL     1      -7.228  -8.597   8.823  0.00  0.00    +0.051 C 
ATOM     13  C   UNL     1      -8.448  -7.768   9.210  0.00  0.00    +0.024 C 
ATOM     14  C   UNL     1      -7.624 -10.030   8.482  0.00  0.00    +0.024 C 
ENDBRANCH   3  11
BRANCH   9   1
ATOM      1  O   UNL     1      -2.734  -9.061  10.292  0.00  0.00    -0.390 OA
ATOM     21  H   UNL     1      -2.384  -9.670  10.965  0.00  0.00    +0.210 HD
ENDBRANCH   9   1
ENDBRANCH  12   7
TORSDOF 4
ENDMDL
