MODEL 1
REMARK VINA RESULT:      -6.4      0.000      0.000
REMARK  Name = 75536936
REMARK  4 active torsions:
REMARK  status: ('A' for Active; 'I' for Inactive)
REMARK    1  A    between atoms: O_2  and  C_6
REMARK    2  A    between atoms: O_2  and  C_16
REMARK    3  A    between atoms: N_3  and  C_8
REMARK    4  A    between atoms: C_8  and  C_11
REMARK                            x       y       z     vdW  Elec       q    Type
REMARK                         _______ _______ _______ _____ _____    ______ ____
ROOT
ATOM      8  C   UNL     1      -4.818   0.347  24.984  0.00  0.00    +0.121 C 
ENDROOT
BRANCH   8  11
ATOM      4  N   UNL     1      -4.225   4.025  25.643  0.00  0.00    -0.255 NA
ATOM     11  C   UNL     1      -4.129   1.683  25.068  0.00  0.00    -0.015 A 
ATOM     12  C   UNL     1      -2.809   1.837  24.670  0.00  0.00    +0.016 A 
ATOM     13  C   UNL     1      -4.786   2.799  25.543  0.00  0.00    +0.116 A 
ATOM     14  C   UNL     1      -2.188   3.091  24.756  0.00  0.00    +0.001 A 
ATOM     15  C   UNL     1      -2.943   4.172  25.255  0.00  0.00    +0.071 A 
ATOM     17  C   UNL     1      -0.853   3.280  24.362  0.00  0.00    +0.010 A 
ATOM     18  C   UNL     1      -2.327   5.417  25.341  0.00  0.00    +0.028 A 
ATOM     19  C   UNL     1      -0.262   4.536  24.459  0.00  0.00    +0.001 A 
ATOM     20  C   UNL     1      -0.999   5.606  24.949  0.00  0.00    +0.002 A 
ENDBRANCH   8  11
BRANCH   8   3
ATOM      1  O   UNL     1      -2.433  -3.381  23.997  0.00  0.00    -0.376 OA
ATOM      3  N   UNL     1      -3.861  -0.755  24.887  0.00  0.00    -0.293 NA
ATOM      5  C   UNL     1      -2.501  -0.229  24.718  0.00  0.00    +0.118 C 
ATOM      6  C   UNL     1      -1.418  -1.194  24.211  0.00  0.00    +0.157 C 
ATOM      7  C   UNL     1      -4.263  -1.726  23.869  0.00  0.00    +0.113 C 
ATOM      9  C   UNL     1      -1.522  -2.607  24.770  0.00  0.00    +0.192 C 
ATOM     10  C   UNL     1      -3.803  -3.128  24.272  0.00  0.00    +0.175 C 
BRANCH   6   2
ATOM      2  O   UNL     1      -0.143  -0.666  24.583  0.00  0.00    -0.376 OA
ATOM     16  C   UNL     1       0.553  -0.157  23.456  0.00  0.00    +0.194 C 
ENDBRANCH   6   2
ENDBRANCH   8   3
TORSDOF 3
ENDMDL
MODEL 2
REMARK VINA RESULT:      -6.4     14.529     16.850
REMARK  Name = 75536936
REMARK  4 active torsions:
REMARK  status: ('A' for Active; 'I' for Inactive)
REMARK    1  A    between atoms: O_2  and  C_6
REMARK    2  A    between atoms: O_2  and  C_16
REMARK    3  A    between atoms: N_3  and  C_8
REMARK    4  A    between atoms: C_8  and  C_11
REMARK                            x       y       z     vdW  Elec       q    Type
REMARK                         _______ _______ _______ _____ _____    ______ ____
ROOT
ATOM      8  C   UNL     1      -3.835 -10.543  12.662  0.00  0.00    +0.121 C 
ENDROOT
BRANCH   8  11
ATOM      4  N   UNL     1      -3.554 -10.775  16.428  0.00  0.00    -0.255 NA
ATOM     11  C   UNL     1      -4.212 -10.520  14.120  0.00  0.00    -0.015 A 
ATOM     12  C   UNL     1      -5.508 -10.236  14.523  0.00  0.00    +0.016 A 
ATOM     13  C   UNL     1      -3.280 -10.780  15.104  0.00  0.00    +0.116 A 
ATOM     14  C   UNL     1      -5.836 -10.220  15.885  0.00  0.00    +0.001 A 
ATOM     15  C   UNL     1      -4.814 -10.499  16.816  0.00  0.00    +0.071 A 
ATOM     17  C   UNL     1      -7.139  -9.935  16.326  0.00  0.00    +0.010 A 
ATOM     18  C   UNL     1      -5.139 -10.485  18.170  0.00  0.00    +0.028 A 
ATOM     19  C   UNL     1      -7.436  -9.926  17.686  0.00  0.00    +0.001 A 
ATOM     20  C   UNL     1      -6.435 -10.201  18.609  0.00  0.00    +0.002 A 
ENDBRANCH   8  11
BRANCH   8   3
ATOM      1  O   UNL     1      -6.073  -8.160   9.521  0.00  0.00    -0.376 OA
ATOM      3  N   UNL     1      -4.795  -9.807  11.839  0.00  0.00    -0.293 NA
ATOM      5  C   UNL     1      -5.996 -10.621  11.616  0.00  0.00    +0.118 C 
ATOM      6  C   UNL     1      -6.941 -10.206  10.478  0.00  0.00    +0.157 C 
ATOM      7  C   UNL     1      -4.174  -9.300  10.616  0.00  0.00    +0.113 C 
ATOM      9  C   UNL     1      -7.116  -8.701  10.324  0.00  0.00    +0.192 C 
ATOM     10  C   UNL     1      -4.837  -7.986  10.199  0.00  0.00    +0.175 C 
BRANCH   6   2
ATOM      2  O   UNL     1      -8.225 -10.775  10.738  0.00  0.00    -0.376 OA
ATOM     16  C   UNL     1      -8.855 -10.144  11.841  0.00  0.00    +0.194 C 
ENDBRANCH   6   2
ENDBRANCH   8   3
TORSDOF 3
ENDMDL
MODEL 3
REMARK VINA RESULT:      -6.3      2.477      6.466
REMARK  Name = 75536936
REMARK  4 active torsions:
REMARK  status: ('A' for Active; 'I' for Inactive)
REMARK    1  A    between atoms: O_2  and  C_6
REMARK    2  A    between atoms: O_2  and  C_16
REMARK    3  A    between atoms: N_3  and  C_8
REMARK    4  A    between atoms: C_8  and  C_11
REMARK                            x       y       z     vdW  Elec       q    Type
REMARK                         _______ _______ _______ _____ _____    ______ ____
ROOT
ATOM      8  C   UNL     1       0.121   1.751  24.610  0.00  0.00    +0.121 C 
ENDROOT
BRANCH   8  11
ATOM      4  N   UNL     1      -0.748  -1.906  25.049  0.00  0.00    -0.255 NA
ATOM     11  C   UNL     1      -0.663   0.465  24.602  0.00  0.00    -0.015 A 
ATOM     12  C   UNL     1      -1.979   0.427  24.164  0.00  0.00    +0.016 A 
ATOM     13  C   UNL     1      -0.099  -0.719  25.030  0.00  0.00    +0.116 A 
ATOM     14  C   UNL     1      -2.689  -0.781  24.167  0.00  0.00    +0.001 A 
ATOM     15  C   UNL     1      -2.026  -1.939  24.623  0.00  0.00    +0.071 A 
ATOM     17  C   UNL     1      -4.022  -0.852  23.730  0.00  0.00    +0.010 A 
ATOM     18  C   UNL     1      -2.730  -3.140  24.624  0.00  0.00    +0.028 A 
ATOM     19  C   UNL     1      -4.703  -2.066  23.743  0.00  0.00    +0.001 A 
ATOM     20  C   UNL     1      -4.057  -3.211  24.191  0.00  0.00    +0.002 A 
ENDBRANCH   8  11
BRANCH   8   3
ATOM      1  O   UNL     1      -2.049   5.695  25.145  0.00  0.00    -0.376 OA
ATOM      3  N   UNL     1      -0.700   2.887  25.029  0.00  0.00    -0.293 NA
ATOM      5  C   UNL     1      -2.093   2.463  25.213  0.00  0.00    +0.118 C 
ATOM      6  C   UNL     1      -3.172   3.555  25.268  0.00  0.00    +0.157 C 
ATOM      7  C   UNL     1      -0.530   4.031  24.133  0.00  0.00    +0.113 C 
ATOM      9  C   UNL     1      -2.754   4.815  26.013  0.00  0.00    +0.192 C 
ATOM     10  C   UNL     1      -0.695   5.335  24.913  0.00  0.00    +0.175 C 
BRANCH   6   2
ATOM      2  O   UNL     1      -4.319   3.013  25.926  0.00  0.00    -0.376 OA
ATOM     16  C   UNL     1      -5.228   2.446  24.996  0.00  0.00    +0.194 C 
ENDBRANCH   6   2
ENDBRANCH   8   3
TORSDOF 3
ENDMDL
MODEL 4
REMARK VINA RESULT:      -5.2      1.854      5.718
REMARK  Name = 75536936
REMARK  4 active torsions:
REMARK  status: ('A' for Active; 'I' for Inactive)
REMARK    1  A    between atoms: O_2  and  C_6
REMARK    2  A    between atoms: O_2  and  C_16
REMARK    3  A    between atoms: N_3  and  C_8
REMARK    4  A    between atoms: C_8  and  C_11
REMARK                            x       y       z     vdW  Elec       q    Type
REMARK                         _______ _______ _______ _____ _____    ______ ____
ROOT
ATOM      8  C   UNL     1      -4.073   2.825  25.560  0.00  0.00    +0.121 C 
ENDROOT
BRANCH   8  11
ATOM      4  N   UNL     1      -5.298  -0.504  24.243  0.00  0.00    -0.255 NA
ATOM     11  C   UNL     1      -4.082   1.380  25.137  0.00  0.00    -0.015 A 
ATOM     12  C   UNL     1      -2.942   0.596  25.233  0.00  0.00    +0.016 A 
ATOM     13  C   UNL     1      -5.224   0.787  24.640  0.00  0.00    +0.116 A 
ATOM     14  C   UNL     1      -2.974  -0.747  24.834  0.00  0.00    +0.001 A 
ATOM     15  C   UNL     1      -4.189  -1.263  24.338  0.00  0.00    +0.071 A 
ATOM     17  C   UNL     1      -1.837  -1.567  24.918  0.00  0.00    +0.010 A 
ATOM     18  C   UNL     1      -4.221  -2.597  23.941  0.00  0.00    +0.028 A 
ATOM     19  C   UNL     1      -1.897  -2.898  24.514  0.00  0.00    +0.001 A 
ATOM     20  C   UNL     1      -3.090  -3.413  24.025  0.00  0.00    +0.002 A 
ENDBRANCH   8  11
BRANCH   8   3
ATOM      1  O   UNL     1      -0.528   5.588  24.966  0.00  0.00    -0.376 OA
ATOM      3  N   UNL     1      -2.833   3.498  25.176  0.00  0.00    -0.293 NA
ATOM      5  C   UNL     1      -1.690   2.597  25.363  0.00  0.00    +0.118 C 
ATOM      6  C   UNL     1      -0.285   3.218  25.394  0.00  0.00    +0.157 C 
ATOM      7  C   UNL     1      -2.696   4.793  25.843  0.00  0.00    +0.113 C 
ATOM      9  C   UNL     1      -0.080   4.358  24.405  0.00  0.00    +0.192 C 
ATOM     10  C   UNL     1      -1.936   5.768  24.943  0.00  0.00    +0.175 C 
BRANCH   6   2
ATOM      2  O   UNL     1       0.661   2.192  25.086  0.00  0.00    -0.376 OA
ATOM     16  C   UNL     1       0.236   1.415  23.977  0.00  0.00    +0.194 C 
ENDBRANCH   6   2
ENDBRANCH   8   3
TORSDOF 3
ENDMDL
MODEL 5
REMARK VINA RESULT:      -4.9      1.727      4.076
REMARK  Name = 75536936
REMARK  4 active torsions:
REMARK  status: ('A' for Active; 'I' for Inactive)
REMARK    1  A    between atoms: O_2  and  C_6
REMARK    2  A    between atoms: O_2  and  C_16
REMARK    3  A    between atoms: N_3  and  C_8
REMARK    4  A    between atoms: C_8  and  C_11
REMARK                            x       y       z     vdW  Elec       q    Type
REMARK                         _______ _______ _______ _____ _____    ______ ____
ROOT
ATOM      8  C   UNL     1      -0.145   2.981  24.435  0.00  0.00    +0.121 C 
ENDROOT
BRANCH   8  11
ATOM      4  N   UNL     1      -3.280   4.522  25.889  0.00  0.00    -0.255 NA
ATOM     11  C   UNL     1      -1.586   3.166  24.832  0.00  0.00    -0.015 A 
ATOM     12  C   UNL     1      -2.543   2.207  24.534  0.00  0.00    +0.016 A 
ATOM     13  C   UNL     1      -2.003   4.296  25.505  0.00  0.00    +0.116 A 
ATOM     14  C   UNL     1      -3.878   2.401  24.914  0.00  0.00    +0.001 A 
ATOM     15  C   UNL     1      -4.207   3.589  25.599  0.00  0.00    +0.071 A 
ATOM     17  C   UNL     1      -4.870   1.449  24.627  0.00  0.00    +0.010 A 
ATOM     18  C   UNL     1      -5.533   3.782  25.977  0.00  0.00    +0.028 A 
ATOM     19  C   UNL     1      -6.189   1.668  25.016  0.00  0.00    +0.001 A 
ATOM     20  C   UNL     1      -6.520   2.835  25.691  0.00  0.00    +0.002 A 
ENDBRANCH   8  11
BRANCH   8   3
ATOM      1  O   UNL     1       1.588  -0.961  23.016  0.00  0.00    -0.376 OA
ATOM      3  N   UNL     1       0.120   1.621  23.965  0.00  0.00    -0.293 NA
ATOM      5  C   UNL     1      -0.546   0.646  24.837  0.00  0.00    +0.118 C 
ATOM      6  C   UNL     1      -0.085  -0.817  24.759  0.00  0.00    +0.157 C 
ATOM      7  C   UNL     1       1.553   1.387  23.782  0.00  0.00    +0.113 C 
ATOM      9  C   UNL     1       0.246  -1.297  23.352  0.00  0.00    +0.192 C 
ATOM     10  C   UNL     1       1.779   0.395  22.641  0.00  0.00    +0.175 C 
BRANCH   6   2
ATOM      2  O   UNL     1      -1.135  -1.641  25.270  0.00  0.00    -0.376 OA
ATOM     16  C   UNL     1      -2.350  -1.420  24.572  0.00  0.00    +0.194 C 
ENDBRANCH   6   2
ENDBRANCH   8   3
TORSDOF 3
ENDMDL
MODEL 6
REMARK VINA RESULT:      -4.8     14.703     16.112
REMARK  Name = 75536936
REMARK  4 active torsions:
REMARK  status: ('A' for Active; 'I' for Inactive)
REMARK    1  A    between atoms: O_2  and  C_6
REMARK    2  A    between atoms: O_2  and  C_16
REMARK    3  A    between atoms: N_3  and  C_8
REMARK    4  A    between atoms: C_8  and  C_11
REMARK                            x       y       z     vdW  Elec       q    Type
REMARK                         _______ _______ _______ _____ _____    ______ ____
ROOT
ATOM      8  C   UNL     1      -3.322 -10.537  15.607  0.00  0.00    +0.121 C 
ENDROOT
BRANCH   8  11
ATOM      4  N   UNL     1      -7.080 -10.102  15.541  0.00  0.00    -0.255 NA
ATOM     11  C   UNL     1      -4.753 -10.459  16.071  0.00  0.00    -0.015 A 
ATOM     12  C   UNL     1      -5.089 -10.660  17.402  0.00  0.00    +0.016 A 
ATOM     13  C   UNL     1      -5.777 -10.186  15.189  0.00  0.00    +0.116 A 
ATOM     14  C   UNL     1      -6.427 -10.583  17.810  0.00  0.00    +0.001 A 
ATOM     15  C   UNL     1      -7.404 -10.297  16.834  0.00  0.00    +0.071 A 
ATOM     17  C   UNL     1      -6.800 -10.781  19.150  0.00  0.00    +0.010 A 
ATOM     18  C   UNL     1      -8.733 -10.219  17.240  0.00  0.00    +0.028 A 
ATOM     19  C   UNL     1      -8.138 -10.699  19.528  0.00  0.00    +0.001 A 
ATOM     20  C   UNL     1      -9.105 -10.417  18.572  0.00  0.00    +0.002 A 
ENDBRANCH   8  11
BRANCH   8   3
ATOM      1  O   UNL     1      -2.105 -10.050  11.267  0.00  0.00    -0.376 OA
ATOM      3  N   UNL     1      -3.193 -10.225  14.184  0.00  0.00    -0.293 NA
ATOM      5  C   UNL     1      -4.402 -10.643  13.464  0.00  0.00    +0.118 C 
ATOM      6  C   UNL     1      -4.318 -10.765  11.935  0.00  0.00    +0.157 C 
ATOM      7  C   UNL     1      -1.947 -10.755  13.630  0.00  0.00    +0.113 C 
ATOM      9  C   UNL     1      -3.481  -9.686  11.262  0.00  0.00    +0.192 C 
ATOM     10  C   UNL     1      -1.445  -9.845  12.508  0.00  0.00    +0.175 C 
BRANCH   6   2
ATOM      2  O   UNL     1      -5.645 -10.685  11.410  0.00  0.00    -0.376 OA
ATOM     16  C   UNL     1      -5.911  -9.398  10.876  0.00  0.00    +0.194 C 
ENDBRANCH   6   2
ENDBRANCH   8   3
TORSDOF 3
ENDMDL
MODEL 7
REMARK VINA RESULT:      -4.5     14.743     16.426
REMARK  Name = 75536936
REMARK  4 active torsions:
REMARK  status: ('A' for Active; 'I' for Inactive)
REMARK    1  A    between atoms: O_2  and  C_6
REMARK    2  A    between atoms: O_2  and  C_16
REMARK    3  A    between atoms: N_3  and  C_8
REMARK    4  A    between atoms: C_8  and  C_11
REMARK                            x       y       z     vdW  Elec       q    Type
REMARK                         _______ _______ _______ _____ _____    ______ ____
ROOT
ATOM      8  C   UNL     1      -3.887 -10.501  15.297  0.00  0.00    +0.121 C 
ENDROOT
BRANCH   8  11
ATOM      4  N   UNL     1      -6.641 -10.210  17.875  0.00  0.00    -0.255 NA
ATOM     11  C   UNL     1      -5.250 -10.304  15.904  0.00  0.00    -0.015 A 
ATOM     12  C   UNL     1      -6.359 -10.043  15.113  0.00  0.00    +0.016 A 
ATOM     13  C   UNL     1      -5.444 -10.377  17.269  0.00  0.00    +0.116 A 
ATOM     14  C   UNL     1      -7.619  -9.863  15.700  0.00  0.00    +0.001 A 
ATOM     15  C   UNL     1      -7.715  -9.957  17.104  0.00  0.00    +0.071 A 
ATOM     17  C   UNL     1      -8.760  -9.597  14.926  0.00  0.00    +0.010 A 
ATOM     18  C   UNL     1      -8.967  -9.780  17.688  0.00  0.00    +0.028 A 
ATOM     19  C   UNL     1     -10.000  -9.423  15.536  0.00  0.00    +0.001 A 
ATOM     20  C   UNL     1     -10.103  -9.514  16.918  0.00  0.00    +0.002 A 
ENDBRANCH   8  11
BRANCH   8   3
ATOM      1  O   UNL     1      -3.063 -10.118  10.856  0.00  0.00    -0.376 OA
ATOM      3  N   UNL     1      -3.883 -10.218  13.863  0.00  0.00    -0.293 NA
ATOM      5  C   UNL     1      -5.159 -10.626  13.264  0.00  0.00    +0.118 C 
ATOM      6  C   UNL     1      -5.218 -10.779  11.736  0.00  0.00    +0.157 C 
ATOM      7  C   UNL     1      -2.702 -10.781  13.208  0.00  0.00    +0.113 C 
ATOM      9  C   UNL     1      -4.427  -9.728  10.969  0.00  0.00    +0.192 C 
ATOM     10  C   UNL     1      -2.289  -9.902  12.027  0.00  0.00    +0.175 C 
BRANCH   6   2
ATOM      2  O   UNL     1      -6.585 -10.683  11.333  0.00  0.00    -0.376 OA
ATOM     16  C   UNL     1      -6.699 -10.164  10.017  0.00  0.00    +0.194 C 
ENDBRANCH   6   2
ENDBRANCH   8   3
TORSDOF 3
ENDMDL
MODEL 8
REMARK VINA RESULT:      -4.4      2.875      5.243
REMARK  Name = 75536936
REMARK  4 active torsions:
REMARK  status: ('A' for Active; 'I' for Inactive)
REMARK    1  A    between atoms: O_2  and  C_6
REMARK    2  A    between atoms: O_2  and  C_16
REMARK    3  A    between atoms: N_3  and  C_8
REMARK    4  A    between atoms: C_8  and  C_11
REMARK                            x       y       z     vdW  Elec       q    Type
REMARK                         _______ _______ _______ _____ _____    ______ ____
ROOT
ATOM      8  C   UNL     1      -2.582   0.083  24.814  0.00  0.00    +0.121 C 
ENDROOT
BRANCH   8  11
ATOM      4  N   UNL     1       0.814   1.751  24.782  0.00  0.00    -0.255 NA
ATOM     11  C   UNL     1      -1.169   0.423  24.421  0.00  0.00    -0.015 A 
ATOM     12  C   UNL     1      -0.536  -0.234  23.376  0.00  0.00    +0.016 A 
ATOM     13  C   UNL     1      -0.456   1.399  25.086  0.00  0.00    +0.116 A 
ATOM     14  C   UNL     1       0.780   0.100  23.027  0.00  0.00    +0.001 A 
ATOM     15  C   UNL     1       1.426   1.112  23.767  0.00  0.00    +0.071 A 
ATOM     17  C   UNL     1       1.449  -0.546  21.975  0.00  0.00    +0.010 A 
ATOM     18  C   UNL     1       2.733   1.444  23.420  0.00  0.00    +0.028 A 
ATOM     19  C   UNL     1       2.756  -0.195  21.650  0.00  0.00    +0.001 A 
ATOM     20  C   UNL     1       3.399   0.801  22.374  0.00  0.00    +0.002 A 
ENDBRANCH   8  11
BRANCH   8   3
ATOM      1  O   UNL     1      -5.857   3.171  25.353  0.00  0.00    -0.376 OA
ATOM      3  N   UNL     1      -3.436   1.269  24.858  0.00  0.00    -0.293 NA
ATOM      5  C   UNL     1      -2.726   2.379  25.507  0.00  0.00    +0.118 C 
ATOM      6  C   UNL     1      -3.560   3.571  26.000  0.00  0.00    +0.157 C 
ATOM      7  C   UNL     1      -4.744   0.967  25.441  0.00  0.00    +0.113 C 
ATOM      9  C   UNL     1      -4.706   3.962  25.077  0.00  0.00    +0.192 C 
ATOM     10  C   UNL     1      -5.815   1.859  24.811  0.00  0.00    +0.175 C 
BRANCH   6   2
ATOM      2  O   UNL     1      -2.691   4.699  26.124  0.00  0.00    -0.376 OA
ATOM     16  C   UNL     1      -1.671   4.675  25.138  0.00  0.00    +0.194 C 
ENDBRANCH   6   2
ENDBRANCH   8   3
TORSDOF 3
ENDMDL
MODEL 9
REMARK VINA RESULT:      -4.3      2.111      3.930
REMARK  Name = 75536936
REMARK  4 active torsions:
REMARK  status: ('A' for Active; 'I' for Inactive)
REMARK    1  A    between atoms: O_2  and  C_6
REMARK    2  A    between atoms: O_2  and  C_16
REMARK    3  A    between atoms: N_3  and  C_8
REMARK    4  A    between atoms: C_8  and  C_11
REMARK                            x       y       z     vdW  Elec       q    Type
REMARK                         _______ _______ _______ _____ _____    ______ ____
ROOT
ATOM      8  C   UNL     1      -0.025   3.031  24.584  0.00  0.00    +0.121 C 
ENDROOT
BRANCH   8  11
ATOM      4  N   UNL     1      -3.221   4.515  25.963  0.00  0.00    -0.255 NA
ATOM     11  C   UNL     1      -1.480   3.194  24.938  0.00  0.00    -0.015 A 
ATOM     12  C   UNL     1      -2.416   2.231  24.595  0.00  0.00    +0.016 A 
ATOM     13  C   UNL     1      -1.930   4.308  25.616  0.00  0.00    +0.116 A 
ATOM     14  C   UNL     1      -3.765   2.405  24.935  0.00  0.00    +0.001 A 
ATOM     15  C   UNL     1      -4.128   3.577  25.629  0.00  0.00    +0.071 A 
ATOM     17  C   UNL     1      -4.737   1.448  24.602  0.00  0.00    +0.010 A 
ATOM     18  C   UNL     1      -5.467   3.750  25.968  0.00  0.00    +0.028 A 
ATOM     19  C   UNL     1      -6.070   1.646  24.952  0.00  0.00    +0.001 A 
ATOM     20  C   UNL     1      -6.435   2.799  25.636  0.00  0.00    +0.002 A 
ENDBRANCH   8  11
BRANCH   8   3
ATOM      1  O   UNL     1       0.168  -1.466  24.039  0.00  0.00    -0.376 OA
ATOM      3  N   UNL     1       0.340   1.624  24.419  0.00  0.00    -0.293 NA
ATOM      5  C   UNL     1       1.294   1.477  23.313  0.00  0.00    +0.118 C 
ATOM      6  C   UNL     1       1.501   0.071  22.728  0.00  0.00    +0.157 C 
ATOM      7  C   UNL     1      -0.843   0.771  24.313  0.00  0.00    +0.113 C 
ATOM      9  C   UNL     1       1.500  -1.047  23.762  0.00  0.00    +0.192 C 
ATOM     10  C   UNL     1      -0.551  -0.606  24.910  0.00  0.00    +0.175 C 
BRANCH   6   2
ATOM      2  O   UNL     1       2.762   0.051  22.057  0.00  0.00    -0.376 OA
ATOM     16  C   UNL     1       3.744   0.772  22.783  0.00  0.00    +0.194 C 
ENDBRANCH   6   2
ENDBRANCH   8   3
TORSDOF 3
ENDMDL
MODEL 10
REMARK VINA RESULT:      -4.3      2.518      4.207
REMARK  Name = 75536936
REMARK  4 active torsions:
REMARK  status: ('A' for Active; 'I' for Inactive)
REMARK    1  A    between atoms: O_2  and  C_6
REMARK    2  A    between atoms: O_2  and  C_16
REMARK    3  A    between atoms: N_3  and  C_8
REMARK    4  A    between atoms: C_8  and  C_11
REMARK                            x       y       z     vdW  Elec       q    Type
REMARK                         _______ _______ _______ _____ _____    ______ ____
ROOT
ATOM      8  C   UNL     1      -1.383  -1.424  24.154  0.00  0.00    +0.121 C 
ENDROOT
BRANCH   8  11
ATOM      4  N   UNL     1      -4.649  -0.272  25.678  0.00  0.00    -0.255 NA
ATOM     11  C   UNL     1      -2.528  -0.532  24.555  0.00  0.00    -0.015 A 
ATOM     12  C   UNL     1      -2.552   0.810  24.204  0.00  0.00    +0.016 A 
ATOM     13  C   UNL     1      -3.592  -1.019  25.287  0.00  0.00    +0.116 A 
ATOM     14  C   UNL     1      -3.628   1.620  24.589  0.00  0.00    +0.001 A 
ATOM     15  C   UNL     1      -4.669   1.031  25.335  0.00  0.00    +0.071 A 
ATOM     17  C   UNL     1      -3.682   2.982  24.249  0.00  0.00    +0.010 A 
ATOM     18  C   UNL     1      -5.739   1.836  25.717  0.00  0.00    +0.028 A 
ATOM     19  C   UNL     1      -4.763   3.764  24.645  0.00  0.00    +0.001 A 
ATOM     20  C   UNL     1      -5.793   3.190  25.379  0.00  0.00    +0.002 A 
ENDBRANCH   8  11
BRANCH   8   3
ATOM      1  O   UNL     1       2.227   0.756  22.488  0.00  0.00    -0.376 OA
ATOM      3  N   UNL     1      -0.158  -0.662  23.911  0.00  0.00    -0.293 NA
ATOM      5  C   UNL     1      -0.230   0.639  24.587  0.00  0.00    +0.118 C 
ATOM      6  C   UNL     1       0.759   1.729  24.148  0.00  0.00    +0.157 C 
ATOM      7  C   UNL     1       0.151  -0.585  22.483  0.00  0.00    +0.113 C 
ATOM      9  C   UNL     1       2.159   1.219  23.832  0.00  0.00    +0.192 C 
ATOM     10  C   UNL     1       1.666  -0.532  22.279  0.00  0.00    +0.175 C 
BRANCH   6   2
ATOM      2  O   UNL     1       0.866   2.683  25.207  0.00  0.00    -0.376 OA
ATOM     16  C   UNL     1      -0.113   2.455  26.207  0.00  0.00    +0.194 C 
ENDBRANCH   6   2
ENDBRANCH   8   3
TORSDOF 3
ENDMDL
