MODEL 1
REMARK VINA RESULT:      -4.6      0.000      0.000
REMARK  Name = 45783440
REMARK  9 active torsions:
REMARK  status: ('A' for Active; 'I' for Inactive)
REMARK    1  A    between atoms: O_3  and  C_24
REMARK    2  A    between atoms: O_3  and  C_27
REMARK    3  A    between atoms: O_4  and  C_28
REMARK    4  A    between atoms: O_4  and  C_29
REMARK    5  A    between atoms: N_5  and  C_13
REMARK    6  A    between atoms: C_9  and  C_14
REMARK    7  A    between atoms: C_13  and  C_15
REMARK    8  A    between atoms: C_18  and  C_21
REMARK    9  A    between atoms: C_27  and  C_28
REMARK                            x       y       z     vdW  Elec       q    Type
REMARK                         _______ _______ _______ _____ _____    ______ ____
ROOT
ATOM      2  O   UNL     1      -1.941   2.787  25.173  0.00  0.00    -0.336 OA
ATOM      6  N   UNL     1      -1.957   1.382  23.429  0.00  0.00    -0.189 NA
ATOM      7  N   UNL     1      -0.602   2.462  24.923  0.00  0.00    -0.054 NA
ATOM     14  C   UNL     1      -2.672   2.109  24.250  0.00  0.00    +0.245 A 
ATOM     18  C   UNL     1      -0.694   1.630  23.881  0.00  0.00    +0.221 A 
ENDROOT
BRANCH  18  21
ATOM      8  N   UNL     1       0.211  -0.057  22.503  0.00  0.00    -0.252 NA
ATOM     21  C   UNL     1       0.457   1.029  23.270  0.00  0.00    +0.115 A 
ATOM     23  C   UNL     1       1.718   1.561  23.480  0.00  0.00    +0.077 A 
ATOM     24  C   UNL     1       2.799   0.939  22.863  0.00  0.00    +0.124 A 
ATOM     25  C   UNL     1       1.285  -0.635  21.919  0.00  0.00    +0.115 A 
ATOM     26  C   UNL     1       2.586  -0.181  22.066  0.00  0.00    +0.065 A 
BRANCH  24   3
ATOM      3  O   UNL     1       4.057   1.423  23.039  0.00  0.00    -0.490 OA
BRANCH   3  27
ATOM     27  C   UNL     1       5.131   0.488  22.952  0.00  0.00    +0.257 C 
BRANCH  27  28
ATOM     28  C   UNL     1       5.760   0.328  24.324  0.00  0.00    +0.200 C 
BRANCH  28   4
ATOM      4  O   UNL     1       5.704  -1.042  24.702  0.00  0.00    -0.380 OA
ATOM     29  C   UNL     1       4.728  -1.749  23.949  0.00  0.00    +0.194 C 
ENDBRANCH  28   4
ENDBRANCH  27  28
ENDBRANCH   3  27
ENDBRANCH  24   3
ENDBRANCH  18  21
BRANCH  14   9
ATOM      5  N   UNL     1      -4.799   1.530  25.402  0.00  0.00    -0.287 NA
ATOM      9  C   UNL     1      -4.174   2.297  24.307  0.00  0.00    +0.146 C 
ATOM     10  C   UNL     1      -4.581   3.759  24.571  0.00  0.00    +0.030 C 
ATOM     11  C   UNL     1      -5.482   3.705  25.796  0.00  0.00    +0.017 C 
ATOM     12  C   UNL     1      -5.992   2.278  25.802  0.00  0.00    +0.085 C 
BRANCH   5  13
ATOM     13  C   UNL     1      -5.113   0.154  25.034  0.00  0.00    +0.123 C 
BRANCH  13  15
ATOM      1  F   UNL     1      -4.762  -2.061  23.305  0.00  0.00    -0.205 F 
ATOM     15  C   UNL     1      -3.893  -0.726  25.065  0.00  0.00    +0.002 A 
ATOM     16  C   UNL     1      -3.784  -1.802  24.185  0.00  0.00    +0.128 A 
ATOM     17  C   UNL     1      -2.870  -0.464  25.976  0.00  0.00    +0.008 A 
ATOM     19  C   UNL     1      -2.653  -2.617  24.215  0.00  0.00    +0.038 A 
ATOM     20  C   UNL     1      -1.738  -1.279  26.006  0.00  0.00    +0.000 A 
ATOM     22  C   UNL     1      -1.629  -2.355  25.126  0.00  0.00    +0.003 A 
ENDBRANCH  13  15
ENDBRANCH   5  13
ENDBRANCH  14   9
TORSDOF 8
ENDMDL
MODEL 2
REMARK VINA RESULT:      -1.1      2.298      3.369
REMARK  Name = 45783440
REMARK  9 active torsions:
REMARK  status: ('A' for Active; 'I' for Inactive)
REMARK    1  A    between atoms: O_3  and  C_24
REMARK    2  A    between atoms: O_3  and  C_27
REMARK    3  A    between atoms: O_4  and  C_28
REMARK    4  A    between atoms: O_4  and  C_29
REMARK    5  A    between atoms: N_5  and  C_13
REMARK    6  A    between atoms: C_9  and  C_14
REMARK    7  A    between atoms: C_13  and  C_15
REMARK    8  A    between atoms: C_18  and  C_21
REMARK    9  A    between atoms: C_27  and  C_28
REMARK                            x       y       z     vdW  Elec       q    Type
REMARK                         _______ _______ _______ _____ _____    ______ ____
ROOT
ATOM      2  O   UNL     1      -3.204   2.093  23.126  0.00  0.00    -0.336 OA
ATOM      6  N   UNL     1      -1.843   0.848  24.396  0.00  0.00    -0.189 NA
ATOM      7  N   UNL     1      -2.060   1.855  22.353  0.00  0.00    -0.054 NA
ATOM     14  C   UNL     1      -2.994   1.466  24.313  0.00  0.00    +0.245 A 
ATOM     18  C   UNL     1      -1.305   1.115  23.171  0.00  0.00    +0.221 A 
ENDROOT
BRANCH  18  21
ATOM      8  N   UNL     1      -0.003  -0.391  21.906  0.00  0.00    -0.252 NA
ATOM     21  C   UNL     1      -0.009   0.628  22.795  0.00  0.00    +0.115 A 
ATOM     23  C   UNL     1       1.134   1.194  23.333  0.00  0.00    +0.077 A 
ATOM     24  C   UNL     1       2.365   0.684  22.934  0.00  0.00    +0.124 A 
ATOM     25  C   UNL     1       1.211  -0.862  21.540  0.00  0.00    +0.115 A 
ATOM     26  C   UNL     1       2.412  -0.364  22.020  0.00  0.00    +0.065 A 
BRANCH  24   3
ATOM      3  O   UNL     1       3.516   1.206  23.434  0.00  0.00    -0.490 OA
BRANCH   3  27
ATOM     27  C   UNL     1       4.741   0.726  22.882  0.00  0.00    +0.257 C 
BRANCH  27  28
ATOM     28  C   UNL     1       5.744   0.525  24.003  0.00  0.00    +0.200 C 
BRANCH  28   4
ATOM      4  O   UNL     1       5.381  -0.632  24.747  0.00  0.00    -0.380 OA
ATOM     29  C   UNL     1       4.999  -1.701  23.892  0.00  0.00    +0.194 C 
ENDBRANCH  28   4
ENDBRANCH  27  28
ENDBRANCH   3  27
ENDBRANCH  24   3
ENDBRANCH  18  21
BRANCH  14   9
ATOM      5  N   UNL     1      -4.623   2.948  25.470  0.00  0.00    -0.287 NA
ATOM      9  C   UNL     1      -4.103   1.573  25.339  0.00  0.00    +0.146 C 
ATOM     10  C   UNL     1      -5.334   0.722  24.974  0.00  0.00    +0.030 C 
ATOM     11  C   UNL     1      -6.506   1.693  24.984  0.00  0.00    +0.017 C 
ATOM     12  C   UNL     1      -6.025   2.823  25.872  0.00  0.00    +0.085 C 
BRANCH   5  13
ATOM     13  C   UNL     1      -3.856   3.766  26.401  0.00  0.00    +0.123 C 
BRANCH  13  15
ATOM      1  F   UNL     1      -2.842   5.538  24.437  0.00  0.00    -0.205 F 
ATOM     15  C   UNL     1      -2.400   3.829  26.025  0.00  0.00    +0.002 A 
ATOM     16  C   UNL     1      -1.968   4.725  25.048  0.00  0.00    +0.128 A 
ATOM     17  C   UNL     1      -1.483   2.988  26.656  0.00  0.00    +0.008 A 
ATOM     19  C   UNL     1      -0.619   4.781  24.701  0.00  0.00    +0.038 A 
ATOM     20  C   UNL     1      -0.133   3.044  26.309  0.00  0.00    +0.000 A 
ATOM     22  C   UNL     1       0.300   3.940  25.332  0.00  0.00    +0.003 A 
ENDBRANCH  13  15
ENDBRANCH   5  13
ENDBRANCH  14   9
TORSDOF 8
ENDMDL
