MODEL 1
REMARK VINA RESULT:      15.0      0.000      0.000
REMARK  Name = 7165085
REMARK  8 active torsions:
REMARK  status: ('A' for Active; 'I' for Inactive)
REMARK    1  A    between atoms: O_3  and  C_23
REMARK    2  A    between atoms: O_6  and  C_30
REMARK    3  A    between atoms: O_6  and  C_31
REMARK    4  A    between atoms: N_9  and  C_25
REMARK    5  A    between atoms: C_10  and  C_13
REMARK    6  A    between atoms: C_10  and  C_17
REMARK    7  A    between atoms: C_13  and  C_20
REMARK    8  A    between atoms: C_17  and  C_23
REMARK                            x       y       z     vdW  Elec       q    Type
REMARK                         _______ _______ _______ _____ _____    ______ ____
ROOT
ATOM      1  O   UNL     1      -3.147   3.176  27.133  0.00  0.00    -0.276 OA
ATOM      2  O   UNL     1      -1.557   1.374  25.173  0.00  0.00    -0.273 OA
ATOM      5  O   UNL     1      -2.793  -3.151  24.844  0.00  0.00    -0.252 OA
ATOM      7  N   UNL     1      -4.172   2.051  25.390  0.00  0.00    -0.288 N 
ATOM      8  N   UNL     1      -4.365  -1.535  24.982  0.00  0.00    -0.293 N 
ATOM      9  N   UNL     1      -2.073  -0.914  24.997  0.00  0.00    -0.193 N 
ATOM     16  C   UNL     1      -3.774   0.703  25.799  0.00  0.00    +0.183 C 
ATOM     18  C   UNL     1      -4.796  -0.174  25.106  0.00  0.00    +0.105 C 
ATOM     19  C   UNL     1      -5.029   0.544  23.777  0.00  0.00    +0.043 C 
ATOM     20  C   UNL     1      -3.864   3.181  26.131  0.00  0.00    +0.217 C 
ATOM     21  C   UNL     1      -5.017   2.009  24.196  0.00  0.00    +0.110 C 
ATOM     22  C   UNL     1      -2.359   0.445  25.290  0.00  0.00    +0.250 C 
ATOM     24  C   UNL     1      -3.047  -1.945  24.917  0.00  0.00    +0.313 C 
ATOM     37  H   UNL     1      -5.080  -2.253  24.920  0.00  0.00    +0.151 HD
ENDROOT
BRANCH   9  25
ATOM     25  C   UNL     1      -0.692  -1.270  24.742  0.00  0.00    +0.046 A 
ATOM     26  C   UNL     1       0.022  -0.620  23.735  0.00  0.00    +0.027 A 
ATOM     27  C   UNL     1      -0.075  -2.261  25.505  0.00  0.00    +0.027 A 
ATOM     28  C   UNL     1       1.352  -0.961  23.491  0.00  0.00    +0.048 A 
ATOM     29  C   UNL     1       1.255  -2.604  25.261  0.00  0.00    +0.048 A 
ATOM     30  C   UNL     1       1.968  -1.954  24.254  0.00  0.00    +0.129 A 
BRANCH  30   6
ATOM      6  O   UNL     1       3.267  -2.286  24.017  0.00  0.00    -0.456 OA
BRANCH   6  31
ATOM     31  C   UNL     1       4.167  -1.256  23.800  0.00  0.00    +0.128 A 
ATOM     32  C   UNL     1       3.757  -0.103  23.130  0.00  0.00    +0.046 A 
ATOM     33  C   UNL     1       5.481  -1.371  24.251  0.00  0.00    +0.046 A 
ATOM     34  C   UNL     1       4.663   0.935  22.911  0.00  0.00    +0.004 A 
ATOM     35  C   UNL     1       6.387  -0.333  24.032  0.00  0.00    +0.004 A 
ATOM     36  C   UNL     1       5.979   0.819  23.361  0.00  0.00    +0.000 A 
ENDBRANCH   6  31
ENDBRANCH  30   6
ENDBRANCH   9  25
BRANCH  20  13
ATOM     13  C   UNL     1      -4.464   4.469  25.628  0.00  0.00    +0.103 C 
BRANCH  13  10
ATOM     10  C   UNL     1      -3.609   5.033  24.485  0.00  0.00    -0.011 C 
ATOM     11  C   UNL     1      -3.097   3.887  23.581  0.00  0.00    +0.008 C 
ATOM     12  C   UNL     1      -4.462   5.929  23.557  0.00  0.00    +0.008 C 
ATOM     14  C   UNL     1      -3.456   4.293  22.157  0.00  0.00    +0.001 C 
ATOM     15  C   UNL     1      -4.743   5.077  22.327  0.00  0.00    +0.001 C 
BRANCH  10  17
ATOM     17  C   UNL     1      -2.442   5.831  25.077  0.00  0.00    +0.127 C 
BRANCH  17  23
ATOM      4  O   UNL     1      -0.310   5.327  24.010  0.00  0.00    -0.251 OA
ATOM     23  C   UNL     1      -1.137   5.117  24.884  0.00  0.00    +0.305 C 
BRANCH  23   3
ATOM      3  O   UNL     1      -0.994   4.172  25.849  0.00  0.00    -0.481 OA
ATOM     38  H   UNL     1      -0.208   3.606  25.692  0.00  0.00    +0.295 HD
ENDBRANCH  23   3
ENDBRANCH  17  23
ENDBRANCH  10  17
ENDBRANCH  13  10
ENDBRANCH  20  13
TORSDOF 8
ENDMDL
MODEL 2
REMARK VINA RESULT:      15.0      1.760      2.629
REMARK  Name = 7165085
REMARK  8 active torsions:
REMARK  status: ('A' for Active; 'I' for Inactive)
REMARK    1  A    between atoms: O_3  and  C_23
REMARK    2  A    between atoms: O_6  and  C_30
REMARK    3  A    between atoms: O_6  and  C_31
REMARK    4  A    between atoms: N_9  and  C_25
REMARK    5  A    between atoms: C_10  and  C_13
REMARK    6  A    between atoms: C_10  and  C_17
REMARK    7  A    between atoms: C_13  and  C_20
REMARK    8  A    between atoms: C_17  and  C_23
REMARK                            x       y       z     vdW  Elec       q    Type
REMARK                         _______ _______ _______ _____ _____    ______ ____
ROOT
ATOM      1  O   UNL     1      -3.528   1.762  26.693  0.00  0.00    -0.276 OA
ATOM      2  O   UNL     1      -1.782   0.908  24.276  0.00  0.00    -0.273 OA
ATOM      5  O   UNL     1      -0.552  -3.618  23.937  0.00  0.00    -0.252 OA
ATOM      7  N   UNL     1      -4.223   0.155  25.181  0.00  0.00    -0.288 N 
ATOM      8  N   UNL     1      -2.639  -3.037  24.576  0.00  0.00    -0.293 N 
ATOM      9  N   UNL     1      -1.074  -1.325  24.068  0.00  0.00    -0.193 N 
ATOM     16  C   UNL     1      -3.102  -0.765  25.380  0.00  0.00    +0.183 C 
ATOM     18  C   UNL     1      -3.662  -2.087  24.900  0.00  0.00    +0.105 C 
ATOM     19  C   UNL     1      -4.552  -1.684  23.726  0.00  0.00    +0.043 C 
ATOM     20  C   UNL     1      -4.367   1.329  25.903  0.00  0.00    +0.217 C 
ATOM     21  C   UNL     1      -5.192  -0.397  24.233  0.00  0.00    +0.110 C 
ATOM     22  C   UNL     1      -1.934  -0.291  24.520  0.00  0.00    +0.250 C 
ATOM     24  C   UNL     1      -1.363  -2.713  24.157  0.00  0.00    +0.313 C 
ATOM     37  H   UNL     1      -2.872  -4.022  24.641  0.00  0.00    +0.151 HD
ENDROOT
BRANCH   9  25
ATOM     25  C   UNL     1       0.180  -0.936  23.454  0.00  0.00    +0.046 A 
ATOM     26  C   UNL     1       0.213  -0.563  22.111  0.00  0.00    +0.027 A 
ATOM     27  C   UNL     1       1.354  -0.931  24.208  0.00  0.00    +0.027 A 
ATOM     28  C   UNL     1       1.419  -0.187  21.521  0.00  0.00    +0.048 A 
ATOM     29  C   UNL     1       2.561  -0.554  23.619  0.00  0.00    +0.048 A 
ATOM     30  C   UNL     1       2.593  -0.182  22.276  0.00  0.00    +0.129 A 
BRANCH  30   6
ATOM      6  O   UNL     1       3.770   0.187  21.700  0.00  0.00    -0.456 OA
BRANCH   6  31
ATOM     31  C   UNL     1       4.911   0.147  22.484  0.00  0.00    +0.128 A 
ATOM     32  C   UNL     1       6.014  -0.602  22.073  0.00  0.00    +0.046 A 
ATOM     33  C   UNL     1       4.958   0.856  23.684  0.00  0.00    +0.046 A 
ATOM     34  C   UNL     1       7.163  -0.642  22.863  0.00  0.00    +0.004 A 
ATOM     35  C   UNL     1       6.107   0.816  24.474  0.00  0.00    +0.004 A 
ATOM     36  C   UNL     1       7.209   0.067  24.064  0.00  0.00    +0.000 A 
ENDBRANCH   6  31
ENDBRANCH  30   6
ENDBRANCH   9  25
BRANCH  20  13
ATOM     13  C   UNL     1      -5.647   2.088  25.658  0.00  0.00    +0.103 C 
BRANCH  13  10
ATOM     10  C   UNL     1      -5.342   3.414  24.949  0.00  0.00    -0.011 C 
ATOM     11  C   UNL     1      -6.562   4.363  25.033  0.00  0.00    +0.008 C 
ATOM     12  C   UNL     1      -4.196   4.166  25.665  0.00  0.00    +0.008 C 
ATOM     14  C   UNL     1      -6.020   5.687  25.556  0.00  0.00    +0.001 C 
ATOM     15  C   UNL     1      -4.879   5.267  26.463  0.00  0.00    +0.001 C 
BRANCH  10  17
ATOM     17  C   UNL     1      -4.967   3.128  23.490  0.00  0.00    +0.127 C 
BRANCH  17  23
ATOM      4  O   UNL     1      -2.686   3.890  23.887  0.00  0.00    -0.251 OA
ATOM     23  C   UNL     1      -3.482   3.184  23.286  0.00  0.00    +0.305 C 
BRANCH  23   3
ATOM      3  O   UNL     1      -3.128   2.312  22.307  0.00  0.00    -0.481 OA
ATOM     38  H   UNL     1      -3.486   2.579  21.434  0.00  0.00    +0.295 HD
ENDBRANCH  23   3
ENDBRANCH  17  23
ENDBRANCH  10  17
ENDBRANCH  13  10
ENDBRANCH  20  13
TORSDOF 8
ENDMDL
MODEL 3
REMARK VINA RESULT:      15.3      1.603      2.686
REMARK  Name = 7165085
REMARK  8 active torsions:
REMARK  status: ('A' for Active; 'I' for Inactive)
REMARK    1  A    between atoms: O_3  and  C_23
REMARK    2  A    between atoms: O_6  and  C_30
REMARK    3  A    between atoms: O_6  and  C_31
REMARK    4  A    between atoms: N_9  and  C_25
REMARK    5  A    between atoms: C_10  and  C_13
REMARK    6  A    between atoms: C_10  and  C_17
REMARK    7  A    between atoms: C_13  and  C_20
REMARK    8  A    between atoms: C_17  and  C_23
REMARK                            x       y       z     vdW  Elec       q    Type
REMARK                         _______ _______ _______ _____ _____    ______ ____
ROOT
ATOM      1  O   UNL     1      -1.817   2.698  27.351  0.00  0.00    -0.276 OA
ATOM      2  O   UNL     1      -0.524   1.558  24.772  0.00  0.00    -0.273 OA
ATOM      5  O   UNL     1      -0.900  -3.062  23.976  0.00  0.00    -0.252 OA
ATOM      7  N   UNL     1      -3.051   1.575  25.748  0.00  0.00    -0.288 N 
ATOM      8  N   UNL     1      -2.651  -1.885  24.782  0.00  0.00    -0.293 N 
ATOM      9  N   UNL     1      -0.615  -0.751  24.333  0.00  0.00    -0.193 N 
ATOM     16  C   UNL     1      -2.301   0.318  25.803  0.00  0.00    +0.183 C 
ATOM     18  C   UNL     1      -3.286  -0.687  25.245  0.00  0.00    +0.105 C 
ATOM     19  C   UNL     1      -4.018   0.105  24.162  0.00  0.00    +0.043 C 
ATOM     20  C   UNL     1      -2.772   2.651  26.575  0.00  0.00    +0.217 C 
ATOM     21  C   UNL     1      -4.173   1.474  24.814  0.00  0.00    +0.110 C 
ATOM     22  C   UNL     1      -1.064   0.460  24.921  0.00  0.00    +0.250 C 
ATOM     24  C   UNL     1      -1.352  -1.965  24.320  0.00  0.00    +0.313 C 
ATOM     37  H   UNL     1      -3.201  -2.738  24.775  0.00  0.00    +0.151 HD
ENDROOT
BRANCH   9  25
ATOM     25  C   UNL     1       0.681  -0.742  23.684  0.00  0.00    +0.046 A 
ATOM     26  C   UNL     1       0.852  -0.064  22.477  0.00  0.00    +0.027 A 
ATOM     27  C   UNL     1       1.758  -1.410  24.267  0.00  0.00    +0.027 A 
ATOM     28  C   UNL     1       2.099  -0.053  21.854  0.00  0.00    +0.048 A 
ATOM     29  C   UNL     1       3.006  -1.400  23.644  0.00  0.00    +0.048 A 
ATOM     30  C   UNL     1       3.176  -0.722  22.437  0.00  0.00    +0.129 A 
BRANCH  30   6
ATOM      6  O   UNL     1       4.394  -0.711  21.829  0.00  0.00    -0.456 OA
BRANCH   6  31
ATOM     31  C   UNL     1       5.481  -0.281  22.572  0.00  0.00    +0.128 A 
ATOM     32  C   UNL     1       6.746  -0.820  22.332  0.00  0.00    +0.046 A 
ATOM     33  C   UNL     1       5.313   0.689  23.559  0.00  0.00    +0.046 A 
ATOM     34  C   UNL     1       7.841  -0.388  23.079  0.00  0.00    +0.004 A 
ATOM     35  C   UNL     1       6.408   1.121  24.307  0.00  0.00    +0.004 A 
ATOM     36  C   UNL     1       7.672   0.582  24.068  0.00  0.00    +0.000 A 
ENDBRANCH   6  31
ENDBRANCH  30   6
ENDBRANCH   9  25
BRANCH  20  13
ATOM     13  C   UNL     1      -3.728   3.813  26.471  0.00  0.00    +0.103 C 
BRANCH  13  10
ATOM     10  C   UNL     1      -3.396   4.653  25.230  0.00  0.00    -0.011 C 
ATOM     11  C   UNL     1      -2.682   5.962  25.642  0.00  0.00    +0.008 C 
ATOM     12  C   UNL     1      -2.388   3.912  24.322  0.00  0.00    +0.008 C 
ATOM     14  C   UNL     1      -1.429   6.038  24.779  0.00  0.00    +0.001 C 
ATOM     15  C   UNL     1      -1.048   4.583  24.582  0.00  0.00    +0.001 C 
BRANCH  10  17
ATOM     17  C   UNL     1      -4.691   4.950  24.465  0.00  0.00    +0.127 C 
BRANCH  17  23
ATOM      4  O   UNL     1      -6.258   3.308  25.355  0.00  0.00    -0.251 OA
ATOM     23  C   UNL     1      -5.895   4.467  25.218  0.00  0.00    +0.305 C 
BRANCH  23   3
ATOM      3  O   UNL     1      -6.551   5.531  25.749  0.00  0.00    -0.481 OA
ATOM     38  H   UNL     1      -7.522   5.396  25.754  0.00  0.00    +0.295 HD
ENDBRANCH  23   3
ENDBRANCH  17  23
ENDBRANCH  10  17
ENDBRANCH  13  10
ENDBRANCH  20  13
TORSDOF 8
ENDMDL
MODEL 4
REMARK VINA RESULT:      15.4      1.118      2.049
REMARK  Name = 7165085
REMARK  8 active torsions:
REMARK  status: ('A' for Active; 'I' for Inactive)
REMARK    1  A    between atoms: O_3  and  C_23
REMARK    2  A    between atoms: O_6  and  C_30
REMARK    3  A    between atoms: O_6  and  C_31
REMARK    4  A    between atoms: N_9  and  C_25
REMARK    5  A    between atoms: C_10  and  C_13
REMARK    6  A    between atoms: C_10  and  C_17
REMARK    7  A    between atoms: C_13  and  C_20
REMARK    8  A    between atoms: C_17  and  C_23
REMARK                            x       y       z     vdW  Elec       q    Type
REMARK                         _______ _______ _______ _____ _____    ______ ____
ROOT
ATOM      1  O   UNL     1      -3.018   3.133  27.026  0.00  0.00    -0.276 OA
ATOM      2  O   UNL     1      -1.443   1.294  25.087  0.00  0.00    -0.273 OA
ATOM      5  O   UNL     1      -2.589  -3.264  24.955  0.00  0.00    -0.252 OA
ATOM      7  N   UNL     1      -4.065   1.925  25.354  0.00  0.00    -0.288 N 
ATOM      8  N   UNL     1      -4.191  -1.677  25.080  0.00  0.00    -0.293 N 
ATOM      9  N   UNL     1      -1.914  -1.008  25.007  0.00  0.00    -0.193 N 
ATOM     16  C   UNL     1      -3.627   0.600  25.799  0.00  0.00    +0.183 C 
ATOM     18  C   UNL     1      -4.649  -0.322  25.167  0.00  0.00    +0.105 C 
ATOM     19  C   UNL     1      -4.933   0.342  23.821  0.00  0.00    +0.043 C 
ATOM     20  C   UNL     1      -3.761   3.087  26.045  0.00  0.00    +0.217 C 
ATOM     21  C   UNL     1      -4.941   1.822  24.186  0.00  0.00    +0.110 C 
ATOM     22  C   UNL     1      -2.221   0.353  25.260  0.00  0.00    +0.250 C 
ATOM     24  C   UNL     1      -2.868  -2.061  24.992  0.00  0.00    +0.313 C 
ATOM     37  H   UNL     1      -4.892  -2.411  25.064  0.00  0.00    +0.151 HD
ENDROOT
BRANCH   9  25
ATOM     25  C   UNL     1      -0.533  -1.345  24.726  0.00  0.00    +0.046 A 
ATOM     26  C   UNL     1       0.144  -0.705  23.688  0.00  0.00    +0.027 A 
ATOM     27  C   UNL     1       0.121  -2.308  25.496  0.00  0.00    +0.027 A 
ATOM     28  C   UNL     1       1.473  -1.028  23.419  0.00  0.00    +0.048 A 
ATOM     29  C   UNL     1       1.451  -2.631  25.227  0.00  0.00    +0.048 A 
ATOM     30  C   UNL     1       2.127  -1.991  24.189  0.00  0.00    +0.129 A 
BRANCH  30   6
ATOM      6  O   UNL     1       3.425  -2.305  23.927  0.00  0.00    -0.456 OA
BRANCH   6  31
ATOM     31  C   UNL     1       4.323  -1.261  23.779  0.00  0.00    +0.128 A 
ATOM     32  C   UNL     1       5.617  -1.378  24.289  0.00  0.00    +0.046 A 
ATOM     33  C   UNL     1       3.935  -0.094  23.122  0.00  0.00    +0.046 A 
ATOM     34  C   UNL     1       6.522  -0.327  24.141  0.00  0.00    +0.004 A 
ATOM     35  C   UNL     1       4.840   0.957  22.974  0.00  0.00    +0.004 A 
ATOM     36  C   UNL     1       6.133   0.841  23.484  0.00  0.00    +0.000 A 
ENDBRANCH   6  31
ENDBRANCH  30   6
ENDBRANCH   9  25
BRANCH  20  13
ATOM     13  C   UNL     1      -4.403   4.344  25.514  0.00  0.00    +0.103 C 
BRANCH  13  10
ATOM     10  C   UNL     1      -3.519   4.960  24.421  0.00  0.00    -0.011 C 
ATOM     11  C   UNL     1      -3.059   6.378  24.837  0.00  0.00    +0.008 C 
ATOM     12  C   UNL     1      -2.215   4.146  24.249  0.00  0.00    +0.008 C 
ATOM     14  C   UNL     1      -1.547   6.392  24.649  0.00  0.00    +0.001 C 
ATOM     15  C   UNL     1      -1.140   4.963  24.951  0.00  0.00    +0.001 C 
BRANCH  10  17
ATOM     17  C   UNL     1      -4.304   5.000  23.105  0.00  0.00    +0.127 C 
BRANCH  17  23
ATOM      4  O   UNL     1      -3.190   2.932  22.455  0.00  0.00    -0.251 OA
ATOM     23  C   UNL     1      -3.865   3.911  22.172  0.00  0.00    +0.305 C 
BRANCH  23   3
ATOM      3  O   UNL     1      -4.336   4.168  20.925  0.00  0.00    -0.481 OA
ATOM     38  H   UNL     1      -3.852   3.661  20.240  0.00  0.00    +0.295 HD
ENDBRANCH  23   3
ENDBRANCH  17  23
ENDBRANCH  10  17
ENDBRANCH  13  10
ENDBRANCH  20  13
TORSDOF 8
ENDMDL
