MODEL 1
REMARK VINA RESULT:      -3.3      0.000      0.000
REMARK  Name = 9424479
REMARK  3 active torsions:
REMARK  status: ('A' for Active; 'I' for Inactive)
REMARK    1  A    between atoms: S_2  and  N_8
REMARK    2  A    between atoms: S_2  and  C_19
REMARK    3  A    between atoms: N_8  and  C_10
REMARK                            x       y       z     vdW  Elec       q    Type
REMARK                         _______ _______ _______ _____ _____    ______ ____
ROOT
ATOM      1 BR   UNL     1       7.015  -8.533  32.187  0.00  0.00    -0.050 Br
ATOM      3  O   UNL     1      15.244  -9.030  31.503  0.00  0.00    -0.273 OA
ATOM      4  O   UNL     1      11.470  -5.623  32.670  0.00  0.00    -0.270 OA
ATOM      7  N   UNL     1      13.152  -6.528  31.352  0.00  0.00    -0.286 N 
ATOM      9  N   UNL     1      13.063  -9.393  32.088  0.00  0.00    -0.283 N 
ATOM     10  C   UNL     1      15.671  -6.240  29.922  0.00  0.00    +0.080 C 
ATOM     11  C   UNL     1      13.583  -7.613  30.477  0.00  0.00    +0.164 C 
ATOM     12  C   UNL     1      14.608  -7.206  29.411  0.00  0.00    +0.052 C 
ATOM     13  C   UNL     1      15.005  -5.044  30.586  0.00  0.00    +0.039 C 
ATOM     14  C   UNL     1      14.129  -5.506  31.739  0.00  0.00    +0.110 C 
ATOM     15  C   UNL     1      14.057  -8.715  31.407  0.00  0.00    +0.238 C 
ATOM     16  C   UNL     1      11.920  -6.558  32.007  0.00  0.00    +0.249 C 
ATOM     17  C   UNL     1      11.123  -7.813  31.971  0.00  0.00    +0.059 A 
ATOM     18  C   UNL     1      11.682  -9.095  32.124  0.00  0.00    +0.046 A 
ATOM     20  C   UNL     1       9.726  -7.658  31.988  0.00  0.00    +0.030 A 
ATOM     21  C   UNL     1      10.827 -10.184  32.359  0.00  0.00    +0.025 A 
ATOM     22  C   UNL     1       8.891  -8.760  32.171  0.00  0.00    +0.019 A 
ATOM     23  C   UNL     1       9.442 -10.020  32.370  0.00  0.00    +0.017 A 
ATOM     25  H   UNL     1      13.346 -10.265  32.530  0.00  0.00    +0.155 HD
ENDROOT
BRANCH  10   8
ATOM      8  N   UNL     1      16.501  -5.771  28.785  0.00  0.00    -0.192 NA
ATOM     24  H   UNL     1      16.718  -4.767  28.750  0.00  0.00    +0.148 HD
BRANCH   8   2
ATOM      2  S   UNL     1      16.493  -6.666  27.336  0.00  0.00    +0.027 S 
ATOM      5  O   UNL     1      15.141  -6.766  26.822  0.00  0.00    -0.158 OA
ATOM      6  O   UNL     1      17.302  -7.853  27.534  0.00  0.00    -0.158 OA
ATOM     19  C   UNL     1      17.405  -5.573  26.271  0.00  0.00    +0.214 C 
ENDBRANCH   8   2
ENDBRANCH  10   8
TORSDOF 2
ENDMDL
MODEL 2
REMARK VINA RESULT:      -2.6      2.796      4.218
REMARK  Name = 9424479
REMARK  3 active torsions:
REMARK  status: ('A' for Active; 'I' for Inactive)
REMARK    1  A    between atoms: S_2  and  N_8
REMARK    2  A    between atoms: S_2  and  C_19
REMARK    3  A    between atoms: N_8  and  C_10
REMARK                            x       y       z     vdW  Elec       q    Type
REMARK                         _______ _______ _______ _____ _____    ______ ____
ROOT
ATOM      1 BR   UNL     1      11.034  -8.714  32.295  0.00  0.00    -0.050 Br
ATOM      3  O   UNL     1      17.085  -9.241  26.679  0.00  0.00    -0.273 OA
ATOM      4  O   UNL     1      15.571  -6.351  30.751  0.00  0.00    -0.270 OA
ATOM      7  N   UNL     1      15.959  -6.778  28.502  0.00  0.00    -0.286 N 
ATOM      9  N   UNL     1      15.582  -9.708  28.337  0.00  0.00    -0.283 N 
ATOM     10  C   UNL     1      17.247  -6.084  25.986  0.00  0.00    +0.080 C 
ATOM     11  C   UNL     1      15.549  -7.484  27.294  0.00  0.00    +0.164 C 
ATOM     12  C   UNL     1      15.878  -6.757  25.985  0.00  0.00    +0.052 C 
ATOM     13  C   UNL     1      17.380  -5.188  27.209  0.00  0.00    +0.039 C 
ATOM     14  C   UNL     1      17.204  -6.005  28.478  0.00  0.00    +0.110 C 
ATOM     15  C   UNL     1      16.166  -8.867  27.409  0.00  0.00    +0.238 C 
ATOM     16  C   UNL     1      15.332  -6.997  29.730  0.00  0.00    +0.249 C 
ATOM     17  C   UNL     1      14.365  -8.121  29.847  0.00  0.00    +0.059 A 
ATOM     18  C   UNL     1      14.576  -9.391  29.279  0.00  0.00    +0.046 A 
ATOM     20  C   UNL     1      13.301  -7.930  30.744  0.00  0.00    +0.030 A 
ATOM     21  C   UNL     1      13.754 -10.457  29.678  0.00  0.00    +0.025 A 
ATOM     22  C   UNL     1      12.463  -8.990  31.090  0.00  0.00    +0.019 A 
ATOM     23  C   UNL     1      12.698 -10.256  30.567  0.00  0.00    +0.017 A 
ATOM     25  H   UNL     1      15.834 -10.691  28.264  0.00  0.00    +0.155 HD
ENDROOT
BRANCH  10   8
ATOM      8  N   UNL     1      17.397  -5.265  24.758  0.00  0.00    -0.192 NA
ATOM     24  H   UNL     1      18.237  -5.428  24.189  0.00  0.00    +0.148 HD
BRANCH   8   2
ATOM      2  S   UNL     1      16.631  -3.747  24.683  0.00  0.00    +0.027 S 
ATOM      5  O   UNL     1      17.379  -2.774  25.455  0.00  0.00    -0.158 OA
ATOM      6  O   UNL     1      15.213  -3.944  24.913  0.00  0.00    -0.158 OA
ATOM     19  C   UNL     1      16.841  -3.357  22.961  0.00  0.00    +0.214 C 
ENDBRANCH   8   2
ENDBRANCH  10   8
TORSDOF 2
ENDMDL
MODEL 3
REMARK VINA RESULT:      -1.3     16.955     18.409
REMARK  Name = 9424479
REMARK  3 active torsions:
REMARK  status: ('A' for Active; 'I' for Inactive)
REMARK    1  A    between atoms: S_2  and  N_8
REMARK    2  A    between atoms: S_2  and  C_19
REMARK    3  A    between atoms: N_8  and  C_10
REMARK                            x       y       z     vdW  Elec       q    Type
REMARK                         _______ _______ _______ _____ _____    ______ ____
ROOT
ATOM      1 BR   UNL     1      -6.585   5.340  25.377  0.00  0.00    -0.050 Br
ATOM      3  O   UNL     1      -1.713  -1.301  24.618  0.00  0.00    -0.273 OA
ATOM      4  O   UNL     1      -1.561   3.688  26.136  0.00  0.00    -0.270 OA
ATOM      7  N   UNL     1      -1.095   1.902  24.727  0.00  0.00    -0.286 N 
ATOM      9  N   UNL     1      -3.415   0.120  25.171  0.00  0.00    -0.283 N 
ATOM     10  C   UNL     1       0.829   0.227  23.324  0.00  0.00    +0.080 C 
ATOM     11  C   UNL     1      -1.592   0.945  23.745  0.00  0.00    +0.164 C 
ATOM     12  C   UNL     1      -0.550   0.478  22.722  0.00  0.00    +0.052 C 
ATOM     13  C   UNL     1       1.279   1.452  24.108  0.00  0.00    +0.039 C 
ATOM     14  C   UNL     1       0.281   1.763  25.212  0.00  0.00    +0.110 C 
ATOM     15  C   UNL     1      -2.212  -0.177  24.559  0.00  0.00    +0.238 C 
ATOM     16  C   UNL     1      -1.947   2.795  25.380  0.00  0.00    +0.249 C 
ATOM     17  C   UNL     1      -3.416   2.626  25.221  0.00  0.00    +0.059 A 
ATOM     18  C   UNL     1      -4.062   1.376  25.242  0.00  0.00    +0.046 A 
ATOM     20  C   UNL     1      -4.181   3.804  25.258  0.00  0.00    +0.030 A 
ATOM     21  C   UNL     1      -5.460   1.338  25.368  0.00  0.00    +0.025 A 
ATOM     22  C   UNL     1      -5.572   3.746  25.333  0.00  0.00    +0.019 A 
ATOM     23  C   UNL     1      -6.210   2.513  25.401  0.00  0.00    +0.017 A 
ATOM     25  H   UNL     1      -3.942  -0.676  25.521  0.00  0.00    +0.155 HD
ENDROOT
BRANCH  10   8
ATOM      8  N   UNL     1       1.801  -0.045  22.238  0.00  0.00    -0.192 NA
ATOM     24  H   UNL     1       1.573  -0.807  21.588  0.00  0.00    +0.148 HD
BRANCH   8   2
ATOM      2  S   UNL     1       3.433   0.384  22.467  0.00  0.00    +0.027 S 
ATOM      5  O   UNL     1       3.521   1.607  23.241  0.00  0.00    -0.158 OA
ATOM      6  O   UNL     1       4.116   0.261  21.194  0.00  0.00    -0.158 OA
ATOM     19  C   UNL     1       3.983  -0.956  23.497  0.00  0.00    +0.214 C 
ENDBRANCH   8   2
ENDBRANCH  10   8
TORSDOF 2
ENDMDL
MODEL 4
REMARK VINA RESULT:      -0.1     16.987     18.495
REMARK  Name = 9424479
REMARK  3 active torsions:
REMARK  status: ('A' for Active; 'I' for Inactive)
REMARK    1  A    between atoms: S_2  and  N_8
REMARK    2  A    between atoms: S_2  and  C_19
REMARK    3  A    between atoms: N_8  and  C_10
REMARK                            x       y       z     vdW  Elec       q    Type
REMARK                         _______ _______ _______ _____ _____    ______ ____
ROOT
ATOM      1 BR   UNL     1      -7.219   1.235  27.199  0.00  0.00    -0.050 Br
ATOM      3  O   UNL     1      -0.427   4.030  23.393  0.00  0.00    -0.273 OA
ATOM      4  O   UNL     1      -3.540  -0.152  23.580  0.00  0.00    -0.270 OA
ATOM      7  N   UNL     1      -1.576   1.027  23.957  0.00  0.00    -0.286 N 
ATOM      9  N   UNL     1      -2.547   3.811  24.219  0.00  0.00    -0.283 N 
ATOM     10  C   UNL     1       1.303   1.307  23.636  0.00  0.00    +0.080 C 
ATOM     11  C   UNL     1      -0.890   2.067  24.717  0.00  0.00    +0.164 C 
ATOM     12  C   UNL     1       0.618   1.843  24.888  0.00  0.00    +0.052 C 
ATOM     13  C   UNL     1       0.575   0.065  23.141  0.00  0.00    +0.039 C 
ATOM     14  C   UNL     1      -0.876   0.396  22.835  0.00  0.00    +0.110 C 
ATOM     15  C   UNL     1      -1.251   3.371  24.028  0.00  0.00    +0.238 C 
ATOM     16  C   UNL     1      -2.941   0.779  24.119  0.00  0.00    +0.249 C 
ATOM     17  C   UNL     1      -3.747   1.729  24.931  0.00  0.00    +0.059 A 
ATOM     18  C   UNL     1      -3.606   3.127  24.861  0.00  0.00    +0.046 A 
ATOM     20  C   UNL     1      -4.829   1.175  25.636  0.00  0.00    +0.030 A 
ATOM     21  C   UNL     1      -4.593   3.939  25.444  0.00  0.00    +0.025 A 
ATOM     22  C   UNL     1      -5.772   1.997  26.252  0.00  0.00    +0.019 A 
ATOM     23  C   UNL     1      -5.661   3.378  26.144  0.00  0.00    +0.017 A 
ATOM     25  H   UNL     1      -2.730   4.776  23.958  0.00  0.00    +0.155 HD
ENDROOT
BRANCH  10   8
ATOM      8  N   UNL     1       2.710   0.958  23.953  0.00  0.00    -0.192 NA
ATOM     24  H   UNL     1       3.234   1.621  24.537  0.00  0.00    +0.148 HD
BRANCH   8   2
ATOM      2  S   UNL     1       3.564  -0.062  22.890  0.00  0.00    +0.027 S 
ATOM      5  O   UNL     1       3.260   0.286  21.516  0.00  0.00    -0.158 OA
ATOM      6  O   UNL     1       3.420  -1.427  23.359  0.00  0.00    -0.158 OA
ATOM     19  C   UNL     1       5.236   0.442  23.225  0.00  0.00    +0.214 C 
ENDBRANCH   8   2
ENDBRANCH  10   8
TORSDOF 2
ENDMDL
