MODEL 1
REMARK VINA RESULT:      -5.2      0.000      0.000
REMARK  Name = 75536723
REMARK  8 active torsions:
REMARK  status: ('A' for Active; 'I' for Inactive)
REMARK    1  A    between atoms: O_2  and  C_9
REMARK    2  A    between atoms: N_5  and  C_8
REMARK    3  A    between atoms: N_5  and  C_11
REMARK    4  A    between atoms: N_6  and  C_15
REMARK    5  A    between atoms: N_7  and  C_19
REMARK    6  A    between atoms: C_10  and  C_15
REMARK    7  A    between atoms: C_19  and  C_20
REMARK    8  A    between atoms: C_19  and  C_21
REMARK                            x       y       z     vdW  Elec       q    Type
REMARK                         _______ _______ _______ _____ _____    ______ ____
ROOT
ATOM      1  O   UNL     1      -2.164   2.861  23.238  0.00  0.00    -0.371 OA
ATOM      8  C   UNL     1      -4.183   2.044  24.186  0.00  0.00    +0.111 C 
ATOM      9  C   UNL     1      -3.320   2.630  25.288  0.00  0.00    +0.164 C 
ATOM     10  C   UNL     1      -2.394   3.535  24.487  0.00  0.00    +0.165 C 
ATOM     12  C   UNL     1      -3.159   1.834  23.083  0.00  0.00    +0.181 C 
ENDROOT
BRANCH   9   2
ATOM      2  O   UNL     1      -4.072   3.357  26.241  0.00  0.00    -0.388 OA
ATOM     23  H   UNL     1      -3.766   3.105  27.129  0.00  0.00    +0.210 HD
ENDBRANCH   9   2
BRANCH   8   5
ATOM      5  N   UNL     1      -4.863   0.817  24.568  0.00  0.00    -0.306 NA
ATOM     22  H   UNL     1      -5.667   0.659  23.961  0.00  0.00    +0.123 HD
BRANCH   5  11
ATOM      3  O   UNL     1      -3.373  -3.052  25.225  0.00  0.00    -0.380 OA
ATOM     11  C   UNL     1      -3.960  -0.328  24.500  0.00  0.00    +0.058 C 
ATOM     13  C   UNL     1      -3.494  -0.722  25.905  0.00  0.00    +0.047 C 
ATOM     14  C   UNL     1      -4.633  -1.523  23.817  0.00  0.00    +0.047 C 
ATOM     16  C   UNL     1      -2.650  -1.991  25.848  0.00  0.00    +0.161 C 
ATOM     17  C   UNL     1      -3.725  -2.747  23.875  0.00  0.00    +0.161 C 
ENDBRANCH   5  11
ENDBRANCH   8   5
BRANCH  10  15
ATOM     15  C   UNL     1      -1.069   3.802  25.177  0.00  0.00    +0.140 C 
BRANCH  15   6
ATOM      4  O   UNL     1      -0.094   1.092  25.010  0.00  0.00    -0.253 OA
ATOM      6  N   UNL     1       0.033   3.327  24.392  0.00  0.00    -0.297 N 
ATOM      7  N   UNL     1       1.536   1.807  23.521  0.00  0.00    -0.297 N 
ATOM     18  C   UNL     1       0.444   1.991  24.366  0.00  0.00    +0.300 C 
ATOM     24  H   UNL     1       0.551   4.000  23.835  0.00  0.00    +0.150 HD
ATOM     25  H   UNL     1       1.861   2.598  22.974  0.00  0.00    +0.150 HD
BRANCH   7  19
ATOM     19  C   UNL     1       2.156   0.520  23.315  0.00  0.00    +0.068 C 
ATOM     20  C   UNL     1       1.339  -0.318  22.339  0.00  0.00    +0.027 C 
ATOM     21  C   UNL     1       3.588   0.694  22.827  0.00  0.00    +0.027 C 
ENDBRANCH   7  19
ENDBRANCH  15   6
ENDBRANCH  10  15
TORSDOF 6
ENDMDL
MODEL 2
REMARK VINA RESULT:      -4.9      2.024      6.040
REMARK  Name = 75536723
REMARK  8 active torsions:
REMARK  status: ('A' for Active; 'I' for Inactive)
REMARK    1  A    between atoms: O_2  and  C_9
REMARK    2  A    between atoms: N_5  and  C_8
REMARK    3  A    between atoms: N_5  and  C_11
REMARK    4  A    between atoms: N_6  and  C_15
REMARK    5  A    between atoms: N_7  and  C_19
REMARK    6  A    between atoms: C_10  and  C_15
REMARK    7  A    between atoms: C_19  and  C_20
REMARK    8  A    between atoms: C_19  and  C_21
REMARK                            x       y       z     vdW  Elec       q    Type
REMARK                         _______ _______ _______ _____ _____    ______ ____
ROOT
ATOM      1  O   UNL     1      -1.149  -2.034  23.493  0.00  0.00    -0.371 OA
ATOM      8  C   UNL     1       0.061  -0.372  24.683  0.00  0.00    +0.111 C 
ATOM      9  C   UNL     1      -1.188  -0.731  25.466  0.00  0.00    +0.164 C 
ATOM     10  C   UNL     1      -1.520  -2.097  24.880  0.00  0.00    +0.165 C 
ATOM     12  C   UNL     1      -0.290  -0.896  23.301  0.00  0.00    +0.181 C 
ENDROOT
BRANCH   9   2
ATOM      2  O   UNL     1      -0.958  -0.798  26.861  0.00  0.00    -0.388 OA
ATOM     23  H   UNL     1      -0.583  -1.670  27.067  0.00  0.00    +0.210 HD
ENDBRANCH   9   2
BRANCH   8   5
ATOM      5  N   UNL     1       0.365   1.050  24.689  0.00  0.00    -0.306 NA
ATOM     22  H   UNL     1       0.796   1.320  23.806  0.00  0.00    +0.123 HD
BRANCH   5  11
ATOM      3  O   UNL     1      -2.170   4.394  24.790  0.00  0.00    -0.380 OA
ATOM     11  C   UNL     1      -0.840   1.844  24.914  0.00  0.00    +0.058 C 
ATOM     13  C   UNL     1      -0.558   2.967  25.916  0.00  0.00    +0.047 C 
ATOM     14  C   UNL     1      -1.365   2.434  23.601  0.00  0.00    +0.047 C 
ATOM     16  C   UNL     1      -1.778   3.870  26.059  0.00  0.00    +0.161 C 
ATOM     17  C   UNL     1      -2.541   3.366  23.872  0.00  0.00    +0.161 C 
ENDBRANCH   5  11
ENDBRANCH   8   5
BRANCH  10  15
ATOM     15  C   UNL     1      -2.988  -2.463  25.002  0.00  0.00    +0.140 C 
BRANCH  15   6
ATOM      4  O   UNL     1      -3.882  -0.117  23.580  0.00  0.00    -0.253 OA
ATOM      6  N   UNL     1      -3.755  -1.372  25.530  0.00  0.00    -0.297 N 
ATOM      7  N   UNL     1      -4.884   0.641  25.531  0.00  0.00    -0.297 N 
ATOM     18  C   UNL     1      -4.150  -0.266  24.771  0.00  0.00    +0.300 C 
ATOM     24  H   UNL     1      -4.013  -1.398  26.512  0.00  0.00    +0.150 HD
ATOM     25  H   UNL     1      -5.118   0.391  26.488  0.00  0.00    +0.150 HD
BRANCH   7  19
ATOM     19  C   UNL     1      -5.412   1.870  24.988  0.00  0.00    +0.068 C 
ATOM     20  C   UNL     1      -6.850   1.676  24.524  0.00  0.00    +0.027 C 
ATOM     21  C   UNL     1      -5.309   2.990  26.014  0.00  0.00    +0.027 C 
ENDBRANCH   7  19
ENDBRANCH  15   6
ENDBRANCH  10  15
TORSDOF 6
ENDMDL
MODEL 3
REMARK VINA RESULT:      -4.9      2.008      4.658
REMARK  Name = 75536723
REMARK  8 active torsions:
REMARK  status: ('A' for Active; 'I' for Inactive)
REMARK    1  A    between atoms: O_2  and  C_9
REMARK    2  A    between atoms: N_5  and  C_8
REMARK    3  A    between atoms: N_5  and  C_11
REMARK    4  A    between atoms: N_6  and  C_15
REMARK    5  A    between atoms: N_7  and  C_19
REMARK    6  A    between atoms: C_10  and  C_15
REMARK    7  A    between atoms: C_19  and  C_20
REMARK    8  A    between atoms: C_19  and  C_21
REMARK                            x       y       z     vdW  Elec       q    Type
REMARK                         _______ _______ _______ _____ _____    ______ ____
ROOT
ATOM      1  O   UNL     1      -0.220   2.730  23.250  0.00  0.00    -0.371 OA
ATOM      8  C   UNL     1      -0.915   3.598  25.349  0.00  0.00    +0.111 C 
ATOM      9  C   UNL     1      -0.249   2.252  25.566  0.00  0.00    +0.164 C 
ATOM     10  C   UNL     1       0.566   2.118  24.286  0.00  0.00    +0.165 C 
ATOM     12  C   UNL     1      -1.239   3.537  23.866  0.00  0.00    +0.181 C 
ENDROOT
BRANCH   9   2
ATOM      2  O   UNL     1       0.573   2.228  26.718  0.00  0.00    -0.388 OA
ATOM     23  H   UNL     1       1.236   2.934  26.635  0.00  0.00    +0.210 HD
ENDBRANCH   9   2
BRANCH   8   5
ATOM      5  N   UNL     1      -2.092   3.806  26.178  0.00  0.00    -0.306 NA
ATOM     22  H   UNL     1      -2.150   4.782  26.465  0.00  0.00    +0.123 HD
BRANCH   5  11
ATOM      3  O   UNL     1      -5.794   1.972  25.432  0.00  0.00    -0.380 OA
ATOM     11  C   UNL     1      -3.309   3.427  25.466  0.00  0.00    +0.058 C 
ATOM     13  C   UNL     1      -3.369   1.908  25.284  0.00  0.00    +0.047 C 
ATOM     14  C   UNL     1      -4.557   3.915  26.209  0.00  0.00    +0.047 C 
ATOM     16  C   UNL     1      -4.695   1.500  24.652  0.00  0.00    +0.161 C 
ATOM     17  C   UNL     1      -5.818   3.396  25.525  0.00  0.00    +0.161 C 
ENDBRANCH   5  11
ENDBRANCH   8   5
BRANCH  10  15
ATOM     15  C   UNL     1       0.871   0.678  23.915  0.00  0.00    +0.140 C 
BRANCH  15   6
ATOM      4  O   UNL     1      -0.544  -1.063  25.729  0.00  0.00    -0.253 OA
ATOM      6  N   UNL     1      -0.331  -0.057  23.647  0.00  0.00    -0.297 N 
ATOM      7  N   UNL     1      -2.106  -1.474  24.062  0.00  0.00    -0.297 N 
ATOM     18  C   UNL     1      -0.958  -0.883  24.585  0.00  0.00    +0.300 C 
ATOM     24  H   UNL     1      -0.742   0.017  22.721  0.00  0.00    +0.150 HD
ATOM     25  H   UNL     1      -2.406  -1.202  23.131  0.00  0.00    +0.150 HD
BRANCH   7  19
ATOM     19  C   UNL     1      -2.939  -2.373  24.824  0.00  0.00    +0.068 C 
ATOM     20  C   UNL     1      -3.472  -1.681  26.072  0.00  0.00    +0.027 C 
ATOM     21  C   UNL     1      -4.074  -2.904  23.960  0.00  0.00    +0.027 C 
ENDBRANCH   7  19
ENDBRANCH  15   6
ENDBRANCH  10  15
TORSDOF 6
ENDMDL
MODEL 4
REMARK VINA RESULT:      -4.8      2.114      4.835
REMARK  Name = 75536723
REMARK  8 active torsions:
REMARK  status: ('A' for Active; 'I' for Inactive)
REMARK    1  A    between atoms: O_2  and  C_9
REMARK    2  A    between atoms: N_5  and  C_8
REMARK    3  A    between atoms: N_5  and  C_11
REMARK    4  A    between atoms: N_6  and  C_15
REMARK    5  A    between atoms: N_7  and  C_19
REMARK    6  A    between atoms: C_10  and  C_15
REMARK    7  A    between atoms: C_19  and  C_20
REMARK    8  A    between atoms: C_19  and  C_21
REMARK                            x       y       z     vdW  Elec       q    Type
REMARK                         _______ _______ _______ _____ _____    ______ ____
ROOT
ATOM      1  O   UNL     1      -0.649   1.869  26.360  0.00  0.00    -0.371 OA
ATOM      8  C   UNL     1      -0.002   0.111  24.899  0.00  0.00    +0.111 C 
ATOM      9  C   UNL     1       0.108   1.432  24.162  0.00  0.00    +0.164 C 
ATOM     10  C   UNL     1       0.189   2.412  25.325  0.00  0.00    +0.165 C 
ATOM     12  C   UNL     1      -0.911   0.487  26.057  0.00  0.00    +0.181 C 
ENDROOT
BRANCH   9   2
ATOM      2  O   UNL     1       1.253   1.502  23.334  0.00  0.00    -0.388 OA
ATOM     23  H   UNL     1       0.959   1.535  22.408  0.00  0.00    +0.210 HD
ENDBRANCH   9   2
BRANCH   8   5
ATOM      5  N   UNL     1      -0.540  -0.969  24.086  0.00  0.00    -0.306 NA
ATOM     22  H   UNL     1       0.069  -1.784  24.140  0.00  0.00    +0.123 HD
BRANCH   5  11
ATOM      3  O   UNL     1      -4.505  -2.327  23.845  0.00  0.00    -0.380 OA
ATOM     11  C   UNL     1      -1.888  -1.329  24.515  0.00  0.00    +0.058 C 
ATOM     13  C   UNL     1      -2.926  -0.480  23.776  0.00  0.00    +0.047 C 
ATOM     14  C   UNL     1      -2.164  -2.817  24.277  0.00  0.00    +0.047 C 
ATOM     16  C   UNL     1      -4.337  -0.937  24.130  0.00  0.00    +0.161 C 
ATOM     17  C   UNL     1      -3.617  -3.146  24.605  0.00  0.00    +0.161 C 
ENDBRANCH   5  11
ENDBRANCH   8   5
BRANCH  10  15
ATOM     15  C   UNL     1      -0.280   3.810  24.967  0.00  0.00    +0.140 C 
BRANCH  15   6
ATOM      4  O   UNL     1      -2.803   2.942  23.868  0.00  0.00    -0.253 OA
ATOM      6  N   UNL     1      -1.588   4.072  25.493  0.00  0.00    -0.297 N 
ATOM      7  N   UNL     1      -3.892   4.010  25.616  0.00  0.00    -0.297 N 
ATOM     18  C   UNL     1      -2.768   3.613  24.898  0.00  0.00    +0.300 C 
ATOM     24  H   UNL     1      -1.663   4.632  26.337  0.00  0.00    +0.150 HD
ATOM     25  H   UNL     1      -3.755   4.498  26.497  0.00  0.00    +0.150 HD
BRANCH   7  19
ATOM     19  C   UNL     1      -5.237   3.668  25.216  0.00  0.00    +0.068 C 
ATOM     20  C   UNL     1      -5.651   2.331  25.819  0.00  0.00    +0.027 C 
ATOM     21  C   UNL     1      -6.205   4.775  25.610  0.00  0.00    +0.027 C 
ENDBRANCH   7  19
ENDBRANCH  15   6
ENDBRANCH  10  15
TORSDOF 6
ENDMDL
MODEL 5
REMARK VINA RESULT:      -4.5      2.191      4.958
REMARK  Name = 75536723
REMARK  8 active torsions:
REMARK  status: ('A' for Active; 'I' for Inactive)
REMARK    1  A    between atoms: O_2  and  C_9
REMARK    2  A    between atoms: N_5  and  C_8
REMARK    3  A    between atoms: N_5  and  C_11
REMARK    4  A    between atoms: N_6  and  C_15
REMARK    5  A    between atoms: N_7  and  C_19
REMARK    6  A    between atoms: C_10  and  C_15
REMARK    7  A    between atoms: C_19  and  C_20
REMARK    8  A    between atoms: C_19  and  C_21
REMARK                            x       y       z     vdW  Elec       q    Type
REMARK                         _______ _______ _______ _____ _____    ______ ____
ROOT
ATOM      1  O   UNL     1      -5.449   3.178  26.251  0.00  0.00    -0.371 OA
ATOM      8  C   UNL     1      -3.771   4.227  24.937  0.00  0.00    +0.111 C 
ATOM      9  C   UNL     1      -4.134   2.896  24.305  0.00  0.00    +0.164 C 
ATOM     10  C   UNL     1      -5.506   2.646  24.917  0.00  0.00    +0.165 C 
ATOM     12  C   UNL     1      -4.306   4.045  26.348  0.00  0.00    +0.181 C 
ENDROOT
BRANCH   9   2
ATOM      2  O   UNL     1      -4.192   2.960  22.893  0.00  0.00    -0.388 OA
ATOM     23  H   UNL     1      -3.480   2.405  22.532  0.00  0.00    +0.210 HD
ENDBRANCH   9   2
BRANCH   8   5
ATOM      5  N   UNL     1      -2.346   4.518  24.905  0.00  0.00    -0.306 NA
ATOM     22  H   UNL     1      -2.108   5.179  25.643  0.00  0.00    +0.123 HD
BRANCH   5  11
ATOM      3  O   UNL     1       1.019   2.055  25.381  0.00  0.00    -0.380 OA
ATOM     11  C   UNL     1      -1.557   3.300  25.058  0.00  0.00    +0.058 C 
ATOM     13  C   UNL     1      -0.561   3.162  23.903  0.00  0.00    +0.047 C 
ATOM     14  C   UNL     1      -0.812   3.290  26.396  0.00  0.00    +0.047 C 
ATOM     16  C   UNL     1       0.347   1.957  24.125  0.00  0.00    +0.161 C 
ATOM     17  C   UNL     1       0.110   2.077  26.481  0.00  0.00    +0.161 C 
ENDBRANCH   5  11
ENDBRANCH   8   5
BRANCH  10  15
ATOM     15  C   UNL     1      -5.883   1.176  24.967  0.00  0.00    +0.140 C 
BRANCH  15   6
ATOM      4  O   UNL     1      -3.857  -0.076  23.339  0.00  0.00    -0.253 OA
ATOM      6  N   UNL     1      -4.785   0.372  25.420  0.00  0.00    -0.297 N 
ATOM      7  N   UNL     1      -2.885  -0.930  25.266  0.00  0.00    -0.297 N 
ATOM     18  C   UNL     1      -3.841  -0.202  24.562  0.00  0.00    +0.300 C 
ATOM     24  H   UNL     1      -4.696   0.199  26.417  0.00  0.00    +0.150 HD
ATOM     25  H   UNL     1      -2.914  -0.911  26.281  0.00  0.00    +0.150 HD
BRANCH   7  19
ATOM     19  C   UNL     1      -1.798  -1.624  24.617  0.00  0.00    +0.068 C 
ATOM     20  C   UNL     1      -0.524  -1.516  25.446  0.00  0.00    +0.027 C 
ATOM     21  C   UNL     1      -2.172  -3.078  24.367  0.00  0.00    +0.027 C 
ENDBRANCH   7  19
ENDBRANCH  15   6
ENDBRANCH  10  15
TORSDOF 6
ENDMDL
MODEL 6
REMARK VINA RESULT:      -4.3      1.687      4.869
REMARK  Name = 75536723
REMARK  8 active torsions:
REMARK  status: ('A' for Active; 'I' for Inactive)
REMARK    1  A    between atoms: O_2  and  C_9
REMARK    2  A    between atoms: N_5  and  C_8
REMARK    3  A    between atoms: N_5  and  C_11
REMARK    4  A    between atoms: N_6  and  C_15
REMARK    5  A    between atoms: N_7  and  C_19
REMARK    6  A    between atoms: C_10  and  C_15
REMARK    7  A    between atoms: C_19  and  C_20
REMARK    8  A    between atoms: C_19  and  C_21
REMARK                            x       y       z     vdW  Elec       q    Type
REMARK                         _______ _______ _______ _____ _____    ______ ____
ROOT
ATOM      1  O   UNL     1      -3.886   3.897  26.246  0.00  0.00    -0.371 OA
ATOM      8  C   UNL     1      -1.868   3.801  24.998  0.00  0.00    +0.111 C 
ATOM      9  C   UNL     1      -2.927   2.976  24.290  0.00  0.00    +0.164 C 
ATOM     10  C   UNL     1      -4.201   3.563  24.884  0.00  0.00    +0.165 C 
ATOM     12  C   UNL     1      -2.456   3.911  26.395  0.00  0.00    +0.181 C 
ENDROOT
BRANCH   9   2
ATOM      2  O   UNL     1      -2.885   3.124  22.884  0.00  0.00    -0.388 OA
ATOM     23  H   UNL     1      -1.980   2.935  22.583  0.00  0.00    +0.210 HD
ENDBRANCH   9   2
BRANCH   8   5
ATOM      5  N   UNL     1      -0.548   3.191  24.985  0.00  0.00    -0.306 NA
ATOM     22  H   UNL     1      -0.160   3.176  25.928  0.00  0.00    +0.123 HD
BRANCH   5  11
ATOM      3  O   UNL     1       0.540  -0.806  24.305  0.00  0.00    -0.380 OA
ATOM     11  C   UNL     1      -0.602   1.833  24.452  0.00  0.00    +0.058 C 
ATOM     13  C   UNL     1       0.660   1.528  23.641  0.00  0.00    +0.047 C 
ATOM     14  C   UNL     1      -0.763   0.804  25.576  0.00  0.00    +0.047 C 
ATOM     16  C   UNL     1       0.662   0.072  23.186  0.00  0.00    +0.161 C 
ATOM     17  C   UNL     1      -0.683  -0.612  25.014  0.00  0.00    +0.161 C 
ENDBRANCH   5  11
ENDBRANCH   8   5
BRANCH  10  15
ATOM     15  C   UNL     1      -5.377   2.603  24.850  0.00  0.00    +0.140 C 
BRANCH  15   6
ATOM      4  O   UNL     1      -4.081   0.486  23.379  0.00  0.00    -0.253 OA
ATOM      6  N   UNL     1      -5.008   1.309  25.344  0.00  0.00    -0.297 N 
ATOM      7  N   UNL     1      -4.134  -0.827  25.292  0.00  0.00    -0.297 N 
ATOM     18  C   UNL     1      -4.379   0.333  24.563  0.00  0.00    +0.300 C 
ATOM     24  H   UNL     1      -5.227   1.083  26.309  0.00  0.00    +0.150 HD
ATOM     25  H   UNL     1      -4.349  -0.828  26.285  0.00  0.00    +0.150 HD
BRANCH   7  19
ATOM     19  C   UNL     1      -3.496  -1.989  24.721  0.00  0.00    +0.068 C 
ATOM     20  C   UNL     1      -3.123  -2.986  25.812  0.00  0.00    +0.027 C 
ATOM     21  C   UNL     1      -4.398  -2.628  23.674  0.00  0.00    +0.027 C 
ENDBRANCH   7  19
ENDBRANCH  15   6
ENDBRANCH  10  15
TORSDOF 6
ENDMDL
MODEL 7
REMARK VINA RESULT:      -4.1      2.304      4.935
REMARK  Name = 75536723
REMARK  8 active torsions:
REMARK  status: ('A' for Active; 'I' for Inactive)
REMARK    1  A    between atoms: O_2  and  C_9
REMARK    2  A    between atoms: N_5  and  C_8
REMARK    3  A    between atoms: N_5  and  C_11
REMARK    4  A    between atoms: N_6  and  C_15
REMARK    5  A    between atoms: N_7  and  C_19
REMARK    6  A    between atoms: C_10  and  C_15
REMARK    7  A    between atoms: C_19  and  C_20
REMARK    8  A    between atoms: C_19  and  C_21
REMARK                            x       y       z     vdW  Elec       q    Type
REMARK                         _______ _______ _______ _____ _____    ______ ____
ROOT
ATOM      1  O   UNL     1      -0.139   3.648  25.831  0.00  0.00    -0.371 OA
ATOM      8  C   UNL     1      -0.247   1.341  25.275  0.00  0.00    +0.111 C 
ATOM      9  C   UNL     1      -1.435   2.055  24.658  0.00  0.00    +0.164 C 
ATOM     10  C   UNL     1      -0.939   3.495  24.647  0.00  0.00    +0.165 C 
ATOM     12  C   UNL     1       0.188   2.341  26.334  0.00  0.00    +0.181 C 
ENDROOT
BRANCH   9   2
ATOM      2  O   UNL     1      -1.735   1.591  23.355  0.00  0.00    -0.388 OA
ATOM     23  H   UNL     1      -2.312   0.812  23.433  0.00  0.00    +0.210 HD
ENDBRANCH   9   2
BRANCH   8   5
ATOM      5  N   UNL     1      -0.573   0.036  25.827  0.00  0.00    -0.306 NA
ATOM     22  H   UNL     1      -0.895   0.134  26.790  0.00  0.00    +0.123 HD
BRANCH   5  11
ATOM      3  O   UNL     1      -3.536  -2.745  24.775  0.00  0.00    -0.380 OA
ATOM     11  C   UNL     1      -1.597  -0.631  25.029  0.00  0.00    +0.058 C 
ATOM     13  C   UNL     1      -1.197  -2.084  24.757  0.00  0.00    +0.047 C 
ATOM     14  C   UNL     1      -2.959  -0.586  25.730  0.00  0.00    +0.047 C 
ATOM     16  C   UNL     1      -2.320  -2.817  24.030  0.00  0.00    +0.161 C 
ATOM     17  C   UNL     1      -3.984  -1.402  24.949  0.00  0.00    +0.161 C 
ENDBRANCH   5  11
ENDBRANCH   8   5
BRANCH  10  15
ATOM     15  C   UNL     1      -2.061   4.517  24.651  0.00  0.00    +0.140 C 
BRANCH  15   6
ATOM      4  O   UNL     1      -4.399   2.994  23.917  0.00  0.00    -0.253 OA
ATOM      6  N   UNL     1      -3.134   4.111  25.512  0.00  0.00    -0.297 N 
ATOM      7  N   UNL     1      -5.124   3.113  26.118  0.00  0.00    -0.297 N 
ATOM     18  C   UNL     1      -4.237   3.370  25.077  0.00  0.00    +0.300 C 
ATOM     24  H   UNL     1      -3.096   4.388  26.489  0.00  0.00    +0.150 HD
ATOM     25  H   UNL     1      -4.864   3.400  27.057  0.00  0.00    +0.150 HD
BRANCH   7  19
ATOM     19  C   UNL     1      -6.347   2.366  25.937  0.00  0.00    +0.068 C 
ATOM     20  C   UNL     1      -6.261   1.492  24.691  0.00  0.00    +0.027 C 
ATOM     21  C   UNL     1      -6.647   1.533  27.175  0.00  0.00    +0.027 C 
ENDBRANCH   7  19
ENDBRANCH  15   6
ENDBRANCH  10  15
TORSDOF 6
ENDMDL
MODEL 8
REMARK VINA RESULT:      -3.8      2.544      3.905
REMARK  Name = 75536723
REMARK  8 active torsions:
REMARK  status: ('A' for Active; 'I' for Inactive)
REMARK    1  A    between atoms: O_2  and  C_9
REMARK    2  A    between atoms: N_5  and  C_8
REMARK    3  A    between atoms: N_5  and  C_11
REMARK    4  A    between atoms: N_6  and  C_15
REMARK    5  A    between atoms: N_7  and  C_19
REMARK    6  A    between atoms: C_10  and  C_15
REMARK    7  A    between atoms: C_19  and  C_20
REMARK    8  A    between atoms: C_19  and  C_21
REMARK                            x       y       z     vdW  Elec       q    Type
REMARK                         _______ _______ _______ _____ _____    ______ ____
ROOT
ATOM      1  O   UNL     1      -0.071   3.459  24.130  0.00  0.00    -0.371 OA
ATOM      8  C   UNL     1      -2.210   4.329  24.687  0.00  0.00    +0.111 C 
ATOM      9  C   UNL     1      -1.762   3.380  25.782  0.00  0.00    +0.164 C 
ATOM     10  C   UNL     1      -0.257   3.356  25.552  0.00  0.00    +0.165 C 
ATOM     12  C   UNL     1      -1.301   3.917  23.541  0.00  0.00    +0.181 C 
ENDROOT
BRANCH   9   2
ATOM      2  O   UNL     1      -2.089   3.846  27.077  0.00  0.00    -0.388 OA
ATOM     23  H   UNL     1      -2.522   3.124  27.562  0.00  0.00    +0.210 HD
ENDBRANCH   9   2
BRANCH   8   5
ATOM      5  N   UNL     1      -3.622   4.215  24.358  0.00  0.00    -0.306 NA
ATOM     22  H   UNL     1      -3.741   4.129  23.349  0.00  0.00    +0.123 HD
BRANCH   5  11
ATOM      3  O   UNL     1      -6.366   1.145  25.175  0.00  0.00    -0.380 OA
ATOM     11  C   UNL     1      -4.227   3.066  25.026  0.00  0.00    +0.058 C 
ATOM     13  C   UNL     1      -5.619   3.427  25.551  0.00  0.00    +0.047 C 
ATOM     14  C   UNL     1      -4.319   1.864  24.081  0.00  0.00    +0.047 C 
ATOM     16  C   UNL     1      -6.301   2.197  26.139  0.00  0.00    +0.161 C 
ATOM     17  C   UNL     1      -5.071   0.719  24.751  0.00  0.00    +0.161 C 
ENDBRANCH   5  11
ENDBRANCH   8   5
BRANCH  10  15
ATOM     15  C   UNL     1       0.409   2.092  26.065  0.00  0.00    +0.140 C 
BRANCH  15   6
ATOM      4  O   UNL     1      -0.408   0.301  23.957  0.00  0.00    -0.253 OA
ATOM      6  N   UNL     1      -0.528   1.011  26.164  0.00  0.00    -0.297 N 
ATOM      7  N   UNL     1      -1.802  -0.781  25.464  0.00  0.00    -0.297 N 
ATOM     18  C   UNL     1      -0.872   0.185  25.090  0.00  0.00    +0.300 C 
ATOM     24  H   UNL     1      -0.976   0.846  27.060  0.00  0.00    +0.150 HD
ATOM     25  H   UNL     1      -2.067  -0.843  26.442  0.00  0.00    +0.150 HD
BRANCH   7  19
ATOM     19  C   UNL     1      -2.325  -1.761  24.542  0.00  0.00    +0.068 C 
ATOM     20  C   UNL     1      -1.257  -2.791  24.192  0.00  0.00    +0.027 C 
ATOM     21  C   UNL     1      -3.564  -2.427  25.123  0.00  0.00    +0.027 C 
ENDBRANCH   7  19
ENDBRANCH  15   6
ENDBRANCH  10  15
TORSDOF 6
ENDMDL
MODEL 9
REMARK VINA RESULT:      -3.5     18.175     19.850
REMARK  Name = 75536723
REMARK  8 active torsions:
REMARK  status: ('A' for Active; 'I' for Inactive)
REMARK    1  A    between atoms: O_2  and  C_9
REMARK    2  A    between atoms: N_5  and  C_8
REMARK    3  A    between atoms: N_5  and  C_11
REMARK    4  A    between atoms: N_6  and  C_15
REMARK    5  A    between atoms: N_7  and  C_19
REMARK    6  A    between atoms: C_10  and  C_15
REMARK    7  A    between atoms: C_19  and  C_20
REMARK    8  A    between atoms: C_19  and  C_21
REMARK                            x       y       z     vdW  Elec       q    Type
REMARK                         _______ _______ _______ _____ _____    ______ ____
ROOT
ATOM      1  O   UNL     1      15.927  -9.047  26.288  0.00  0.00    -0.371 OA
ATOM      8  C   UNL     1      15.539  -8.590  28.587  0.00  0.00    +0.111 C 
ATOM      9  C   UNL     1      16.348  -7.455  27.986  0.00  0.00    +0.164 C 
ATOM     10  C   UNL     1      16.044  -7.631  26.504  0.00  0.00    +0.165 C 
ATOM     12  C   UNL     1      15.761  -9.692  27.563  0.00  0.00    +0.181 C 
ENDROOT
BRANCH   9   2
ATOM      2  O   UNL     1      15.943  -6.185  28.460  0.00  0.00    -0.388 OA
ATOM     23  H   UNL     1      15.862  -6.231  29.428  0.00  0.00    +0.210 HD
ENDBRANCH   9   2
BRANCH   8   5
ATOM      5  N   UNL     1      15.967  -8.966  29.925  0.00  0.00    -0.306 NA
ATOM     22  H   UNL     1      16.863  -8.532  30.141  0.00  0.00    +0.123 HD
BRANCH   5  11
ATOM      3  O   UNL     1      13.141  -6.598  31.932  0.00  0.00    -0.380 OA
ATOM     11  C   UNL     1      14.975  -8.575  30.923  0.00  0.00    +0.058 C 
ATOM     13  C   UNL     1      15.445  -7.330  31.681  0.00  0.00    +0.047 C 
ATOM     14  C   UNL     1      13.614  -8.310  30.272  0.00  0.00    +0.047 C 
ATOM     16  C   UNL     1      14.358  -6.848  32.636  0.00  0.00    +0.161 C 
ATOM     17  C   UNL     1      12.628  -7.774  31.306  0.00  0.00    +0.161 C 
ENDBRANCH   5  11
ENDBRANCH   8   5
BRANCH  10  15
ATOM     15  C   UNL     1      17.121  -7.062  25.598  0.00  0.00    +0.140 C 
BRANCH  15   6
ATOM      4  O   UNL     1      17.122  -5.450  23.206  0.00  0.00    -0.253 OA
ATOM      6  N   UNL     1      17.034  -5.633  25.519  0.00  0.00    -0.297 N 
ATOM      7  N   UNL     1      16.944  -3.551  24.527  0.00  0.00    -0.297 N 
ATOM     18  C   UNL     1      17.041  -4.923  24.314  0.00  0.00    +0.300 C 
ATOM     24  H   UNL     1      16.978  -5.107  26.386  0.00  0.00    +0.150 HD
ATOM     25  H   UNL     1      16.805  -3.218  25.477  0.00  0.00    +0.150 HD
BRANCH   7  19
ATOM     19  C   UNL     1      16.930  -2.591  23.448  0.00  0.00    +0.068 C 
ATOM     20  C   UNL     1      15.540  -2.500  22.830  0.00  0.00    +0.027 C 
ATOM     21  C   UNL     1      17.404  -1.231  23.943  0.00  0.00    +0.027 C 
ENDBRANCH   7  19
ENDBRANCH  15   6
ENDBRANCH  10  15
TORSDOF 6
ENDMDL
MODEL 10
REMARK VINA RESULT:      -2.8      1.652      5.317
REMARK  Name = 75536723
REMARK  8 active torsions:
REMARK  status: ('A' for Active; 'I' for Inactive)
REMARK    1  A    between atoms: O_2  and  C_9
REMARK    2  A    between atoms: N_5  and  C_8
REMARK    3  A    between atoms: N_5  and  C_11
REMARK    4  A    between atoms: N_6  and  C_15
REMARK    5  A    between atoms: N_7  and  C_19
REMARK    6  A    between atoms: C_10  and  C_15
REMARK    7  A    between atoms: C_19  and  C_20
REMARK    8  A    between atoms: C_19  and  C_21
REMARK                            x       y       z     vdW  Elec       q    Type
REMARK                         _______ _______ _______ _____ _____    ______ ____
ROOT
ATOM      1  O   UNL     1      -2.213   3.633  25.943  0.00  0.00    -0.371 OA
ATOM      8  C   UNL     1      -0.349   2.709  24.797  0.00  0.00    +0.111 C 
ATOM      9  C   UNL     1      -1.626   2.157  24.192  0.00  0.00    +0.164 C 
ATOM     10  C   UNL     1      -2.640   3.201  24.641  0.00  0.00    +0.165 C 
ATOM     12  C   UNL     1      -0.849   3.221  26.138  0.00  0.00    +0.181 C 
ENDROOT
BRANCH   9   2
ATOM      2  O   UNL     1      -1.564   2.055  22.782  0.00  0.00    -0.388 OA
ATOM     23  H   UNL     1      -1.006   2.778  22.448  0.00  0.00    +0.210 HD
ENDBRANCH   9   2
BRANCH   8   5
ATOM      5  N   UNL     1       0.710   1.722  24.926  0.00  0.00    -0.306 NA
ATOM     22  H   UNL     1       0.365   0.902  25.424  0.00  0.00    +0.123 HD
BRANCH   5  11
ATOM      3  O   UNL     1       2.784  -0.500  22.031  0.00  0.00    -0.380 OA
ATOM     11  C   UNL     1       1.222   1.326  23.618  0.00  0.00    +0.058 C 
ATOM     13  C   UNL     1       2.754   1.339  23.619  0.00  0.00    +0.047 C 
ATOM     14  C   UNL     1       0.711  -0.064  23.223  0.00  0.00    +0.047 C 
ATOM     16  C   UNL     1       3.291   0.808  22.294  0.00  0.00    +0.161 C 
ATOM     17  C   UNL     1       1.361  -0.516  21.919  0.00  0.00    +0.161 C 
ENDBRANCH   5  11
ENDBRANCH   8   5
BRANCH  10  15
ATOM     15  C   UNL     1      -4.059   2.667  24.717  0.00  0.00    +0.140 C 
BRANCH  15   6
ATOM      4  O   UNL     1      -3.518   0.154  23.407  0.00  0.00    -0.253 OA
ATOM      6  N   UNL     1      -4.093   1.360  25.307  0.00  0.00    -0.297 N 
ATOM      7  N   UNL     1      -3.921  -0.939  25.414  0.00  0.00    -0.297 N 
ATOM     18  C   UNL     1      -3.817   0.185  24.600  0.00  0.00    +0.300 C 
ATOM     24  H   UNL     1      -4.344   1.282  26.288  0.00  0.00    +0.150 HD
ATOM     25  H   UNL     1      -4.099  -0.803  26.405  0.00  0.00    +0.150 HD
BRANCH   7  19
ATOM     19  C   UNL     1      -3.687  -2.279  24.930  0.00  0.00    +0.068 C 
ATOM     20  C   UNL     1      -4.501  -2.543  23.669  0.00  0.00    +0.027 C 
ATOM     21  C   UNL     1      -2.201  -2.501  24.684  0.00  0.00    +0.027 C 
ENDBRANCH   7  19
ENDBRANCH  15   6
ENDBRANCH  10  15
TORSDOF 6
ENDMDL
