MODEL 1
REMARK VINA RESULT:      -3.2      0.000      0.000
REMARK  Name = 71693104
REMARK  15 active torsions:
REMARK  status: ('A' for Active; 'I' for Inactive)
REMARK    1  A    between atoms: O_2  and  C_30
REMARK    2  A    between atoms: N_4  and  C_15
REMARK    3  A    between atoms: C_8  and  C_12
REMARK    4  A    between atoms: C_9  and  C_15
REMARK    5  A    between atoms: C_11  and  C_16
REMARK    6  A    between atoms: C_12  and  C_17
REMARK    7  A    between atoms: C_12  and  C_18
REMARK    8  A    between atoms: C_13  and  C_19
REMARK    9  A    between atoms: C_16  and  C_20
REMARK   10  A    between atoms: C_21  and  C_23
REMARK   11  A    between atoms: C_22  and  C_23
REMARK   12  A    between atoms: C_22  and  C_24
REMARK   13  A    between atoms: C_22  and  C_26
REMARK   14  A    between atoms: C_22  and  C_27
REMARK   15  A    between atoms: C_24  and  C_30
REMARK                            x       y       z     vdW  Elec       q    Type
REMARK                         _______ _______ _______ _____ _____    ______ ____
ROOT
ATOM      8  C   UNL     1      -3.835   3.229  25.601  0.00  0.00    +0.000 C 
ATOM      9  C   UNL     1      -3.800   3.642  24.108  0.00  0.00    +0.032 C 
ATOM     10  C   UNL     1      -2.877   4.102  26.422  0.00  0.00    +0.012 C 
ATOM     11  C   UNL     1      -1.422   4.001  25.922  0.00  0.00    +0.022 C 
ATOM     13  C   UNL     1      -1.335   4.133  24.415  0.00  0.00    -0.073 C 
ATOM     14  C   UNL     1      -2.410   3.982  23.621  0.00  0.00    -0.022 C 
ATOM     19  C   UNL     1       0.010   4.485  23.844  0.00  0.00    +0.039 C 
ENDROOT
BRANCH   8  12
ATOM     12  C   UNL     1      -5.250   3.323  26.183  0.00  0.00    -0.013 C 
ATOM     17  C   UNL     1      -6.025   4.453  25.515  0.00  0.00    +0.007 C 
ATOM     18  C   UNL     1      -5.982   1.994  26.020  0.00  0.00    +0.007 C 
ENDBRANCH   8  12
BRANCH   9  15
ATOM     15  C   UNL     1      -4.400   2.549  23.216  0.00  0.00    +0.112 C 
BRANCH  15   4
ATOM      1  O   UNL     1      -5.101  -0.061  24.205  0.00  0.00    -0.276 OA
ATOM      4  N   UNL     1      -3.573   1.383  23.218  0.00  0.00    -0.315 N 
ATOM     21  C   UNL     1      -3.992   0.152  23.719  0.00  0.00    +0.214 C 
ATOM     33  H   UNL     1      -2.638   1.464  22.827  0.00  0.00    +0.149 HD
BRANCH  21  23
ATOM     23  C   UNL     1      -2.942  -0.941  23.608  0.00  0.00    +0.102 C 
BRANCH  23  22
ATOM     22  C   UNL     1      -3.020  -2.032  24.706  0.00  0.00    -0.017 C 
ATOM     26  C   UNL     1      -4.000  -3.123  24.224  0.00  0.00    +0.012 C 
ATOM     27  C   UNL     1      -3.592  -1.442  26.012  0.00  0.00    +0.012 C 
BRANCH  22  24
ATOM     24  C   UNL     1      -1.642  -2.659  25.028  0.00  0.00    +0.127 C 
BRANCH  24  30
ATOM      3  O   UNL     1      -0.962  -0.970  26.625  0.00  0.00    -0.251 OA
ATOM     30  C   UNL     1      -0.664  -1.728  25.710  0.00  0.00    +0.305 C 
BRANCH  30   2
ATOM      2  O   UNL     1       0.589  -1.811  25.197  0.00  0.00    -0.481 OA
ATOM     35  H   UNL     1       1.197  -1.162  25.611  0.00  0.00    +0.295 HD
ENDBRANCH  30   2
ENDBRANCH  24  30
ENDBRANCH  22  24
ENDBRANCH  23  22
ENDBRANCH  21  23
ENDBRANCH  15   4
ENDBRANCH   9  15
BRANCH  11  16
ATOM     16  C   UNL     1      -0.764   2.701  26.398  0.00  0.00    +0.082 C 
BRANCH  16  20
ATOM      5  N   UNL     1       1.215   2.061  25.008  0.00  0.00    -0.341 N 
ATOM      6  N   UNL     1      -0.731   1.165  24.401  0.00  0.00    -0.213 NA
ATOM      7  N   UNL     1       0.107  -0.111  22.513  0.00  0.00    -0.234 NA
ATOM     20  C   UNL     1      -0.126   1.959  25.258  0.00  0.00    +0.110 A 
ATOM     25  C   UNL     1       1.494   1.280  23.920  0.00  0.00    +0.085 A 
ATOM     28  C   UNL     1       0.266   0.734  23.562  0.00  0.00    +0.178 A 
ATOM     29  C   UNL     1       2.660   0.993  23.218  0.00  0.00    +0.031 A 
ATOM     31  C   UNL     1       2.512   0.126  22.139  0.00  0.00    +0.022 A 
ATOM     32  C   UNL     1       1.251  -0.380  21.842  0.00  0.00    +0.113 A 
ATOM     34  H   UNL     1       1.882   2.615  25.532  0.00  0.00    +0.167 HD
ENDBRANCH  16  20
ENDBRANCH  11  16
TORSDOF 10
ENDMDL
MODEL 2
REMARK VINA RESULT:      -3.1      2.443      5.054
REMARK  Name = 71693104
REMARK  15 active torsions:
REMARK  status: ('A' for Active; 'I' for Inactive)
REMARK    1  A    between atoms: O_2  and  C_30
REMARK    2  A    between atoms: N_4  and  C_15
REMARK    3  A    between atoms: C_8  and  C_12
REMARK    4  A    between atoms: C_9  and  C_15
REMARK    5  A    between atoms: C_11  and  C_16
REMARK    6  A    between atoms: C_12  and  C_17
REMARK    7  A    between atoms: C_12  and  C_18
REMARK    8  A    between atoms: C_13  and  C_19
REMARK    9  A    between atoms: C_16  and  C_20
REMARK   10  A    between atoms: C_21  and  C_23
REMARK   11  A    between atoms: C_22  and  C_23
REMARK   12  A    between atoms: C_22  and  C_24
REMARK   13  A    between atoms: C_22  and  C_26
REMARK   14  A    between atoms: C_22  and  C_27
REMARK   15  A    between atoms: C_24  and  C_30
REMARK                            x       y       z     vdW  Elec       q    Type
REMARK                         _______ _______ _______ _____ _____    ______ ____
ROOT
ATOM      8  C   UNL     1      -2.754  -1.636  24.168  0.00  0.00    +0.000 C 
ATOM      9  C   UNL     1      -3.477  -0.688  25.158  0.00  0.00    +0.032 C 
ATOM     10  C   UNL     1      -1.331  -1.938  24.658  0.00  0.00    +0.012 C 
ATOM     11  C   UNL     1      -0.484  -0.660  24.814  0.00  0.00    +0.022 C 
ATOM     13  C   UNL     1      -1.238   0.426  25.554  0.00  0.00    -0.073 C 
ATOM     14  C   UNL     1      -2.574   0.391  25.710  0.00  0.00    -0.022 C 
ATOM     19  C   UNL     1      -0.416   1.534  26.151  0.00  0.00    +0.039 C 
ENDROOT
BRANCH   8  12
ATOM     12  C   UNL     1      -3.524  -2.947  23.972  0.00  0.00    -0.013 C 
ATOM     17  C   UNL     1      -3.587  -3.726  25.281  0.00  0.00    +0.007 C 
ATOM     18  C   UNL     1      -4.926  -2.666  23.441  0.00  0.00    +0.007 C 
ENDBRANCH   8  12
BRANCH   9  15
ATOM     15  C   UNL     1      -4.705  -0.042  24.508  0.00  0.00    +0.112 C 
BRANCH  15   4
ATOM      1  O   UNL     1      -6.246   1.750  26.151  0.00  0.00    -0.276 OA
ATOM      4  N   UNL     1      -4.608   1.384  24.546  0.00  0.00    -0.315 N 
ATOM     21  C   UNL     1      -5.396   2.180  25.374  0.00  0.00    +0.214 C 
ATOM     33  H   UNL     1      -3.924   1.828  23.939  0.00  0.00    +0.149 HD
BRANCH  21  23
ATOM     23  C   UNL     1      -5.109   3.667  25.243  0.00  0.00    +0.102 C 
BRANCH  23  22
ATOM     22  C   UNL     1      -3.783   4.013  24.520  0.00  0.00    -0.017 C 
ATOM     26  C   UNL     1      -3.968   5.374  23.814  0.00  0.00    +0.012 C 
ATOM     27  C   UNL     1      -3.476   2.966  23.429  0.00  0.00    +0.012 C 
BRANCH  22  24
ATOM     24  C   UNL     1      -2.572   4.072  25.481  0.00  0.00    +0.127 C 
BRANCH  24  30
ATOM      3  O   UNL     1      -1.037   5.886  25.016  0.00  0.00    -0.251 OA
ATOM     30  C   UNL     1      -1.327   4.702  24.896  0.00  0.00    +0.305 C 
BRANCH  30   2
ATOM      2  O   UNL     1      -0.560   3.817  24.212  0.00  0.00    -0.481 OA
ATOM     35  H   UNL     1      -0.676   2.901  24.543  0.00  0.00    +0.295 HD
ENDBRANCH  30   2
ENDBRANCH  24  30
ENDBRANCH  22  24
ENDBRANCH  23  22
ENDBRANCH  21  23
ENDBRANCH  15   4
ENDBRANCH   9  15
BRANCH  11  16
ATOM     16  C   UNL     1       0.011  -0.156  23.454  0.00  0.00    +0.082 C 
BRANCH  16  20
ATOM      5  N   UNL     1       2.259  -1.200  23.792  0.00  0.00    -0.341 N 
ATOM      6  N   UNL     1       2.261   0.872  22.977  0.00  0.00    -0.213 NA
ATOM      7  N   UNL     1       4.670   1.119  22.801  0.00  0.00    -0.234 NA
ATOM     20  C   UNL     1       1.512  -0.125  23.393  0.00  0.00    +0.110 A 
ATOM     25  C   UNL     1       3.577  -0.875  23.620  0.00  0.00    +0.085 A 
ATOM     28  C   UNL     1       3.550   0.420  23.112  0.00  0.00    +0.178 A 
ATOM     29  C   UNL     1       4.770  -1.551  23.847  0.00  0.00    +0.031 A 
ATOM     31  C   UNL     1       5.929  -0.847  23.532  0.00  0.00    +0.022 A 
ATOM     32  C   UNL     1       5.822   0.445  23.028  0.00  0.00    +0.113 A 
ATOM     34  H   UNL     1       1.903  -2.078  24.150  0.00  0.00    +0.167 HD
ENDBRANCH  16  20
ENDBRANCH  11  16
TORSDOF 10
ENDMDL
MODEL 3
REMARK VINA RESULT:      -2.9      1.740      2.744
REMARK  Name = 71693104
REMARK  15 active torsions:
REMARK  status: ('A' for Active; 'I' for Inactive)
REMARK    1  A    between atoms: O_2  and  C_30
REMARK    2  A    between atoms: N_4  and  C_15
REMARK    3  A    between atoms: C_8  and  C_12
REMARK    4  A    between atoms: C_9  and  C_15
REMARK    5  A    between atoms: C_11  and  C_16
REMARK    6  A    between atoms: C_12  and  C_17
REMARK    7  A    between atoms: C_12  and  C_18
REMARK    8  A    between atoms: C_13  and  C_19
REMARK    9  A    between atoms: C_16  and  C_20
REMARK   10  A    between atoms: C_21  and  C_23
REMARK   11  A    between atoms: C_22  and  C_23
REMARK   12  A    between atoms: C_22  and  C_24
REMARK   13  A    between atoms: C_22  and  C_26
REMARK   14  A    between atoms: C_22  and  C_27
REMARK   15  A    between atoms: C_24  and  C_30
REMARK                            x       y       z     vdW  Elec       q    Type
REMARK                         _______ _______ _______ _____ _____    ______ ____
ROOT
ATOM      8  C   UNL     1      -2.227   3.330  24.866  0.00  0.00    +0.000 C 
ATOM      9  C   UNL     1      -3.482   3.575  23.991  0.00  0.00    +0.032 C 
ATOM     10  C   UNL     1      -0.967   3.276  23.991  0.00  0.00    +0.012 C 
ATOM     11  C   UNL     1      -1.043   2.165  22.926  0.00  0.00    +0.022 C 
ATOM     13  C   UNL     1      -2.372   2.174  22.198  0.00  0.00    -0.073 C 
ATOM     14  C   UNL     1      -3.448   2.820  22.682  0.00  0.00    -0.022 C 
ATOM     19  C   UNL     1      -2.424   1.459  20.877  0.00  0.00    +0.039 C 
ENDROOT
BRANCH   8  12
ATOM     12  C   UNL     1      -2.066   4.409  25.942  0.00  0.00    -0.013 C 
ATOM     17  C   UNL     1      -1.804   5.766  25.298  0.00  0.00    +0.007 C 
ATOM     18  C   UNL     1      -3.303   4.462  26.833  0.00  0.00    +0.007 C 
ENDBRANCH   8  12
BRANCH   9  15
ATOM     15  C   UNL     1      -4.765   3.218  24.751  0.00  0.00    +0.112 C 
BRANCH  15   4
ATOM      1  O   UNL     1      -3.464   0.890  25.834  0.00  0.00    -0.276 OA
ATOM      4  N   UNL     1      -5.125   1.853  24.526  0.00  0.00    -0.315 N 
ATOM     21  C   UNL     1      -4.438   0.781  25.092  0.00  0.00    +0.214 C 
ATOM     33  H   UNL     1      -5.925   1.667  23.929  0.00  0.00    +0.149 HD
BRANCH  21  23
ATOM     23  C   UNL     1      -5.008  -0.576  24.714  0.00  0.00    +0.102 C 
BRANCH  23  22
ATOM     22  C   UNL     1      -3.949  -1.653  24.366  0.00  0.00    -0.017 C 
ATOM     26  C   UNL     1      -2.991  -1.055  23.313  0.00  0.00    +0.012 C 
ATOM     27  C   UNL     1      -4.623  -2.886  23.728  0.00  0.00    +0.012 C 
BRANCH  22  24
ATOM     24  C   UNL     1      -3.150  -2.131  25.602  0.00  0.00    +0.127 C 
BRANCH  24  30
ATOM      3  O   UNL     1      -0.964  -2.822  24.823  0.00  0.00    -0.251 OA
ATOM     30  C   UNL     1      -1.646  -2.032  25.463  0.00  0.00    +0.305 C 
BRANCH  30   2
ATOM      2  O   UNL     1      -1.123  -0.976  26.134  0.00  0.00    -0.481 OA
ATOM     35  H   UNL     1      -0.819  -1.227  27.032  0.00  0.00    +0.295 HD
ENDBRANCH  30   2
ENDBRANCH  24  30
ENDBRANCH  22  24
ENDBRANCH  23  22
ENDBRANCH  21  23
ENDBRANCH  15   4
ENDBRANCH   9  15
BRANCH  11  16
ATOM     16  C   UNL     1      -0.764   0.790  23.543  0.00  0.00    +0.082 C 
BRANCH  16  20
ATOM      5  N   UNL     1       1.631   1.384  23.129  0.00  0.00    -0.341 N 
ATOM      6  N   UNL     1       1.242  -0.723  23.738  0.00  0.00    -0.213 NA
ATOM      7  N   UNL     1       3.550  -1.474  23.696  0.00  0.00    -0.234 NA
ATOM     20  C   UNL     1       0.697   0.447  23.480  0.00  0.00    +0.110 A 
ATOM     25  C   UNL     1       2.858   0.778  23.163  0.00  0.00    +0.085 A 
ATOM     28  C   UNL     1       2.587  -0.531  23.544  0.00  0.00    +0.178 A 
ATOM     29  C   UNL     1       4.152   1.218  22.908  0.00  0.00    +0.031 A 
ATOM     31  C   UNL     1       5.151   0.261  23.060  0.00  0.00    +0.022 A 
ATOM     32  C   UNL     1       4.803  -1.029  23.444  0.00  0.00    +0.113 A 
ATOM     34  H   UNL     1       1.448   2.349  22.885  0.00  0.00    +0.167 HD
ENDBRANCH  16  20
ENDBRANCH  11  16
TORSDOF 10
ENDMDL
MODEL 4
REMARK VINA RESULT:      -2.9      2.256      5.229
REMARK  Name = 71693104
REMARK  15 active torsions:
REMARK  status: ('A' for Active; 'I' for Inactive)
REMARK    1  A    between atoms: O_2  and  C_30
REMARK    2  A    between atoms: N_4  and  C_15
REMARK    3  A    between atoms: C_8  and  C_12
REMARK    4  A    between atoms: C_9  and  C_15
REMARK    5  A    between atoms: C_11  and  C_16
REMARK    6  A    between atoms: C_12  and  C_17
REMARK    7  A    between atoms: C_12  and  C_18
REMARK    8  A    between atoms: C_13  and  C_19
REMARK    9  A    between atoms: C_16  and  C_20
REMARK   10  A    between atoms: C_21  and  C_23
REMARK   11  A    between atoms: C_22  and  C_23
REMARK   12  A    between atoms: C_22  and  C_24
REMARK   13  A    between atoms: C_22  and  C_26
REMARK   14  A    between atoms: C_22  and  C_27
REMARK   15  A    between atoms: C_24  and  C_30
REMARK                            x       y       z     vdW  Elec       q    Type
REMARK                         _______ _______ _______ _____ _____    ______ ____
ROOT
ATOM      8  C   UNL     1      -2.655  -1.564  24.109  0.00  0.00    +0.000 C 
ATOM      9  C   UNL     1      -3.351  -0.537  25.036  0.00  0.00    +0.032 C 
ATOM     10  C   UNL     1      -1.256  -1.905  24.642  0.00  0.00    +0.012 C 
ATOM     11  C   UNL     1      -0.354  -0.660  24.753  0.00  0.00    +0.022 C 
ATOM     13  C   UNL     1      -1.071   0.495  25.423  0.00  0.00    -0.073 C 
ATOM     14  C   UNL     1      -2.409   0.527  25.553  0.00  0.00    -0.022 C 
ATOM     19  C   UNL     1      -0.209   1.593  25.981  0.00  0.00    +0.039 C 
ENDROOT
BRANCH   8  12
ATOM     12  C   UNL     1      -3.480  -2.847  23.962  0.00  0.00    -0.013 C 
ATOM     17  C   UNL     1      -3.550  -3.589  25.293  0.00  0.00    +0.007 C 
ATOM     18  C   UNL     1      -4.880  -2.524  23.449  0.00  0.00    +0.007 C 
ENDBRANCH   8  12
BRANCH   9  15
ATOM     15  C   UNL     1      -4.537   0.131  24.331  0.00  0.00    +0.112 C 
BRANCH  15   4
ATOM      1  O   UNL     1      -2.938   1.705  22.528  0.00  0.00    -0.276 OA
ATOM      4  N   UNL     1      -4.392   1.554  24.332  0.00  0.00    -0.315 N 
ATOM     21  C   UNL     1      -3.594   2.239  23.419  0.00  0.00    +0.214 C 
ATOM     33  H   UNL     1      -4.906   2.081  25.032  0.00  0.00    +0.149 HD
BRANCH  21  23
ATOM     23  C   UNL     1      -3.602   3.747  23.614  0.00  0.00    +0.102 C 
BRANCH  23  22
ATOM     22  C   UNL     1      -2.905   4.240  24.907  0.00  0.00    -0.017 C 
ATOM     26  C   UNL     1      -2.765   5.775  24.815  0.00  0.00    +0.012 C 
ATOM     27  C   UNL     1      -1.482   3.653  25.009  0.00  0.00    +0.012 C 
BRANCH  22  24
ATOM     24  C   UNL     1      -3.676   3.852  26.191  0.00  0.00    +0.127 C 
BRANCH  24  30
ATOM      3  O   UNL     1      -5.823   4.818  25.623  0.00  0.00    -0.251 OA
ATOM     30  C   UNL     1      -5.184   3.868  26.056  0.00  0.00    +0.305 C 
BRANCH  30   2
ATOM      2  O   UNL     1      -5.763   2.715  26.475  0.00  0.00    -0.481 OA
ATOM     35  H   UNL     1      -5.365   2.389  27.311  0.00  0.00    +0.295 HD
ENDBRANCH  30   2
ENDBRANCH  24  30
ENDBRANCH  22  24
ENDBRANCH  23  22
ENDBRANCH  21  23
ENDBRANCH  15   4
ENDBRANCH   9  15
BRANCH  11  16
ATOM     16  C   UNL     1       0.187  -0.247  23.380  0.00  0.00    +0.082 C 
BRANCH  16  20
ATOM      5  N   UNL     1       2.434  -1.279  23.761  0.00  0.00    -0.341 N 
ATOM      6  N   UNL     1       2.442   0.822  23.022  0.00  0.00    -0.213 NA
ATOM      7  N   UNL     1       4.851   1.100  22.944  0.00  0.00    -0.234 NA
ATOM     20  C   UNL     1       1.689  -0.198  23.375  0.00  0.00    +0.110 A 
ATOM     25  C   UNL     1       3.754  -0.933  23.649  0.00  0.00    +0.085 A 
ATOM     28  C   UNL     1       3.729   0.378  23.188  0.00  0.00    +0.178 A 
ATOM     29  C   UNL     1       4.946  -1.605  23.894  0.00  0.00    +0.031 A 
ATOM     31  C   UNL     1       6.107  -0.877  23.648  0.00  0.00    +0.022 A 
ATOM     32  C   UNL     1       6.003   0.431  23.188  0.00  0.00    +0.113 A 
ATOM     34  H   UNL     1       2.077  -2.173  24.074  0.00  0.00    +0.167 HD
ENDBRANCH  16  20
ENDBRANCH  11  16
TORSDOF 10
ENDMDL
MODEL 5
REMARK VINA RESULT:      -1.3      2.093      5.296
REMARK  Name = 71693104
REMARK  15 active torsions:
REMARK  status: ('A' for Active; 'I' for Inactive)
REMARK    1  A    between atoms: O_2  and  C_30
REMARK    2  A    between atoms: N_4  and  C_15
REMARK    3  A    between atoms: C_8  and  C_12
REMARK    4  A    between atoms: C_9  and  C_15
REMARK    5  A    between atoms: C_11  and  C_16
REMARK    6  A    between atoms: C_12  and  C_17
REMARK    7  A    between atoms: C_12  and  C_18
REMARK    8  A    between atoms: C_13  and  C_19
REMARK    9  A    between atoms: C_16  and  C_20
REMARK   10  A    between atoms: C_21  and  C_23
REMARK   11  A    between atoms: C_22  and  C_23
REMARK   12  A    between atoms: C_22  and  C_24
REMARK   13  A    between atoms: C_22  and  C_26
REMARK   14  A    between atoms: C_22  and  C_27
REMARK   15  A    between atoms: C_24  and  C_30
REMARK                            x       y       z     vdW  Elec       q    Type
REMARK                         _______ _______ _______ _____ _____    ______ ____
ROOT
ATOM      8  C   UNL     1      -1.606   3.871  24.647  0.00  0.00    +0.000 C 
ATOM      9  C   UNL     1      -1.663   3.306  26.088  0.00  0.00    +0.032 C 
ATOM     10  C   UNL     1      -2.981   4.412  24.229  0.00  0.00    +0.012 C 
ATOM     11  C   UNL     1      -4.075   3.328  24.284  0.00  0.00    +0.022 C 
ATOM     13  C   UNL     1      -4.022   2.541  25.578  0.00  0.00    -0.073 C 
ATOM     14  C   UNL     1      -2.941   2.553  26.378  0.00  0.00    -0.022 C 
ATOM     19  C   UNL     1      -5.259   1.774  25.954  0.00  0.00    +0.039 C 
ENDROOT
BRANCH   8  12
ATOM     12  C   UNL     1      -0.552   4.976  24.511  0.00  0.00    -0.013 C 
ATOM     17  C   UNL     1       0.001   5.010  23.091  0.00  0.00    +0.007 C 
ATOM     18  C   UNL     1      -1.146   6.328  24.893  0.00  0.00    +0.007 C 
ENDBRANCH   8  12
BRANCH   9  15
ATOM     15  C   UNL     1      -0.461   2.399  26.374  0.00  0.00    +0.112 C 
BRANCH  15   4
ATOM      1  O   UNL     1       1.492   2.454  24.261  0.00  0.00    -0.276 OA
ATOM      4  N   UNL     1      -0.296   1.432  25.334  0.00  0.00    -0.315 N 
ATOM     21  C   UNL     1       0.679   1.535  24.345  0.00  0.00    +0.214 C 
ATOM     33  H   UNL     1      -0.922   0.631  25.329  0.00  0.00    +0.149 HD
BRANCH  21  23
ATOM     23  C   UNL     1       0.665   0.385  23.351  0.00  0.00    +0.102 C 
BRANCH  23  22
ATOM     22  C   UNL     1       2.060  -0.042  22.830  0.00  0.00    -0.017 C 
ATOM     26  C   UNL     1       1.912  -0.437  21.345  0.00  0.00    +0.012 C 
ATOM     27  C   UNL     1       2.560  -1.288  23.590  0.00  0.00    +0.012 C 
BRANCH  22  24
ATOM     24  C   UNL     1       3.125   1.070  22.982  0.00  0.00    +0.127 C 
BRANCH  24  30
ATOM      3  O   UNL     1       5.249   0.113  22.320  0.00  0.00    -0.251 OA
ATOM     30  C   UNL     1       4.537   0.572  23.204  0.00  0.00    +0.305 C 
BRANCH  30   2
ATOM      2  O   UNL     1       4.936   0.678  24.496  0.00  0.00    -0.481 OA
ATOM     35  H   UNL     1       4.937  -0.191  24.951  0.00  0.00    +0.295 HD
ENDBRANCH  30   2
ENDBRANCH  24  30
ENDBRANCH  22  24
ENDBRANCH  23  22
ENDBRANCH  21  23
ENDBRANCH  15   4
ENDBRANCH   9  15
BRANCH  11  16
ATOM     16  C   UNL     1      -3.990   2.395  23.071  0.00  0.00    +0.082 C 
BRANCH  16  20
ATOM      5  N   UNL     1      -4.535  -0.002  23.535  0.00  0.00    -0.341 N 
ATOM      6  N   UNL     1      -2.404   0.582  23.811  0.00  0.00    -0.213 NA
ATOM      7  N   UNL     1      -1.584  -1.599  24.490  0.00  0.00    -0.234 NA
ATOM     20  C   UNL     1      -3.606   1.000  23.478  0.00  0.00    +0.110 A 
ATOM     25  C   UNL     1      -3.889  -1.142  23.931  0.00  0.00    +0.085 A 
ATOM     28  C   UNL     1      -2.566  -0.750  24.096  0.00  0.00    +0.178 A 
ATOM     29  C   UNL     1      -4.304  -2.450  24.161  0.00  0.00    +0.031 A 
ATOM     31  C   UNL     1      -3.307  -3.333  24.566  0.00  0.00    +0.022 A 
ATOM     32  C   UNL     1      -2.005  -2.867  24.709  0.00  0.00    +0.113 A 
ATOM     34  H   UNL     1      -5.522   0.082  23.325  0.00  0.00    +0.167 HD
ENDBRANCH  16  20
ENDBRANCH  11  16
TORSDOF 10
ENDMDL
MODEL 6
REMARK VINA RESULT:      -1.2      2.207      5.993
REMARK  Name = 71693104
REMARK  15 active torsions:
REMARK  status: ('A' for Active; 'I' for Inactive)
REMARK    1  A    between atoms: O_2  and  C_30
REMARK    2  A    between atoms: N_4  and  C_15
REMARK    3  A    between atoms: C_8  and  C_12
REMARK    4  A    between atoms: C_9  and  C_15
REMARK    5  A    between atoms: C_11  and  C_16
REMARK    6  A    between atoms: C_12  and  C_17
REMARK    7  A    between atoms: C_12  and  C_18
REMARK    8  A    between atoms: C_13  and  C_19
REMARK    9  A    between atoms: C_16  and  C_20
REMARK   10  A    between atoms: C_21  and  C_23
REMARK   11  A    between atoms: C_22  and  C_23
REMARK   12  A    between atoms: C_22  and  C_24
REMARK   13  A    between atoms: C_22  and  C_26
REMARK   14  A    between atoms: C_22  and  C_27
REMARK   15  A    between atoms: C_24  and  C_30
REMARK                            x       y       z     vdW  Elec       q    Type
REMARK                         _______ _______ _______ _____ _____    ______ ____
ROOT
ATOM      8  C   UNL     1      -1.729  -0.663  25.247  0.00  0.00    +0.000 C 
ATOM      9  C   UNL     1      -1.616  -2.171  24.910  0.00  0.00    +0.032 C 
ATOM     10  C   UNL     1      -3.144  -0.329  25.743  0.00  0.00    +0.012 C 
ATOM     11  C   UNL     1      -4.225  -0.679  24.702  0.00  0.00    +0.022 C 
ATOM     13  C   UNL     1      -4.020  -2.064  24.122  0.00  0.00    -0.073 C 
ATOM     14  C   UNL     1      -2.852  -2.721  24.236  0.00  0.00    -0.022 C 
ATOM     19  C   UNL     1      -5.204  -2.696  23.446  0.00  0.00    +0.039 C 
ENDROOT
BRANCH   8  12
ATOM     12  C   UNL     1      -0.698  -0.236  26.296  0.00  0.00    -0.013 C 
ATOM     17  C   UNL     1      -0.646   1.284  26.403  0.00  0.00    +0.007 C 
ATOM     18  C   UNL     1      -1.023  -0.863  27.649  0.00  0.00    +0.007 C 
ENDBRANCH   8  12
BRANCH   9  15
ATOM     15  C   UNL     1      -0.390  -2.452  24.035  0.00  0.00    +0.112 C 
BRANCH  15   4
ATOM      1  O   UNL     1      -0.147  -0.224  22.229  0.00  0.00    -0.276 OA
ATOM      4  N   UNL     1       0.551  -1.379  24.119  0.00  0.00    -0.315 N 
ATOM     21  C   UNL     1       0.600  -0.335  23.198  0.00  0.00    +0.214 C 
ATOM     33  H   UNL     1       1.206  -1.383  24.896  0.00  0.00    +0.149 HD
BRANCH  21  23
ATOM     23  C   UNL     1       1.680   0.692  23.498  0.00  0.00    +0.102 C 
BRANCH  23  22
ATOM     22  C   UNL     1       3.032   0.443  22.783  0.00  0.00    -0.017 C 
ATOM     26  C   UNL     1       3.765   1.797  22.665  0.00  0.00    +0.012 C 
ATOM     27  C   UNL     1       2.796  -0.079  21.351  0.00  0.00    +0.012 C 
BRANCH  22  24
ATOM     24  C   UNL     1       3.924  -0.582  23.525  0.00  0.00    +0.127 C 
BRANCH  24  30
ATOM      3  O   UNL     1       6.290  -0.281  23.106  0.00  0.00    -0.251 OA
ATOM     30  C   UNL     1       5.323  -0.099  23.836  0.00  0.00    +0.305 C 
BRANCH  30   2
ATOM      2  O   UNL     1       5.403   0.556  25.021  0.00  0.00    -0.481 OA
ATOM     35  H   UNL     1       5.205  -0.034  25.779  0.00  0.00    +0.295 HD
ENDBRANCH  30   2
ENDBRANCH  24  30
ENDBRANCH  22  24
ENDBRANCH  23  22
ENDBRANCH  21  23
ENDBRANCH  15   4
ENDBRANCH   9  15
BRANCH  11  16
ATOM     16  C   UNL     1      -4.284   0.377  23.592  0.00  0.00    +0.082 C 
BRANCH  16  20
ATOM      5  N   UNL     1      -2.251   1.829  23.456  0.00  0.00    -0.341 N 
ATOM      6  N   UNL     1      -3.890   2.569  24.770  0.00  0.00    -0.213 NA
ATOM      7  N   UNL     1      -2.793   4.611  25.489  0.00  0.00    -0.234 NA
ATOM     20  C   UNL     1      -3.503   1.606  23.962  0.00  0.00    +0.110 A 
ATOM     25  C   UNL     1      -1.803   3.015  23.970  0.00  0.00    +0.085 A 
ATOM     28  C   UNL     1      -2.841   3.454  24.784  0.00  0.00    +0.178 A 
ATOM     29  C   UNL     1      -0.627   3.743  23.820  0.00  0.00    +0.031 A 
ATOM     31  C   UNL     1      -0.563   4.934  24.538  0.00  0.00    +0.022 A 
ATOM     32  C   UNL     1      -1.642   5.307  25.332  0.00  0.00    +0.113 A 
ATOM     34  H   UNL     1      -1.747   1.227  22.818  0.00  0.00    +0.167 HD
ENDBRANCH  16  20
ENDBRANCH  11  16
TORSDOF 10
ENDMDL
MODEL 7
REMARK VINA RESULT:      -1.1      1.361      2.097
REMARK  Name = 71693104
REMARK  15 active torsions:
REMARK  status: ('A' for Active; 'I' for Inactive)
REMARK    1  A    between atoms: O_2  and  C_30
REMARK    2  A    between atoms: N_4  and  C_15
REMARK    3  A    between atoms: C_8  and  C_12
REMARK    4  A    between atoms: C_9  and  C_15
REMARK    5  A    between atoms: C_11  and  C_16
REMARK    6  A    between atoms: C_12  and  C_17
REMARK    7  A    between atoms: C_12  and  C_18
REMARK    8  A    between atoms: C_13  and  C_19
REMARK    9  A    between atoms: C_16  and  C_20
REMARK   10  A    between atoms: C_21  and  C_23
REMARK   11  A    between atoms: C_22  and  C_23
REMARK   12  A    between atoms: C_22  and  C_24
REMARK   13  A    between atoms: C_22  and  C_26
REMARK   14  A    between atoms: C_22  and  C_27
REMARK   15  A    between atoms: C_24  and  C_30
REMARK                            x       y       z     vdW  Elec       q    Type
REMARK                         _______ _______ _______ _____ _____    ______ ____
ROOT
ATOM      8  C   UNL     1      -3.853   3.202  25.564  0.00  0.00    +0.000 C 
ATOM      9  C   UNL     1      -3.782   3.587  24.065  0.00  0.00    +0.032 C 
ATOM     10  C   UNL     1      -2.971   4.140  26.400  0.00  0.00    +0.012 C 
ATOM     11  C   UNL     1      -1.495   4.103  25.957  0.00  0.00    +0.022 C 
ATOM     13  C   UNL     1      -1.358   4.208  24.452  0.00  0.00    -0.073 C 
ATOM     14  C   UNL     1      -2.393   3.987  23.622  0.00  0.00    -0.022 C 
ATOM     19  C   UNL     1      -0.011   4.616  23.923  0.00  0.00    +0.039 C 
ENDROOT
BRANCH   8  12
ATOM     12  C   UNL     1      -5.292   3.236  26.091  0.00  0.00    -0.013 C 
ATOM     17  C   UNL     1      -6.038   4.437  25.519  0.00  0.00    +0.007 C 
ATOM     18  C   UNL     1      -6.014   1.937  25.750  0.00  0.00    +0.007 C 
ENDBRANCH   8  12
BRANCH   9  15
ATOM     15  C   UNL     1      -4.291   2.447  23.176  0.00  0.00    +0.112 C 
BRANCH  15   4
ATOM      1  O   UNL     1      -4.883  -0.151  24.267  0.00  0.00    -0.276 OA
ATOM      4  N   UNL     1      -3.411   1.322  23.239  0.00  0.00    -0.315 N 
ATOM     21  C   UNL     1      -3.779   0.095  23.786  0.00  0.00    +0.214 C 
ATOM     33  H   UNL     1      -2.475   1.431  22.856  0.00  0.00    +0.149 HD
BRANCH  21  23
ATOM     23  C   UNL     1      -2.677  -0.950  23.736  0.00  0.00    +0.102 C 
BRANCH  23  22
ATOM     22  C   UNL     1      -2.462  -1.733  25.056  0.00  0.00    -0.017 C 
ATOM     26  C   UNL     1      -2.638  -0.746  26.229  0.00  0.00    +0.012 C 
ATOM     27  C   UNL     1      -1.021  -2.282  25.128  0.00  0.00    +0.012 C 
BRANCH  22  24
ATOM     24  C   UNL     1      -3.435  -2.926  25.212  0.00  0.00    +0.127 C 
BRANCH  24  30
ATOM      3  O   UNL     1      -3.319  -4.355  23.261  0.00  0.00    -0.251 OA
ATOM     30  C   UNL     1      -3.931  -3.517  23.910  0.00  0.00    +0.305 C 
BRANCH  30   2
ATOM      2  O   UNL     1      -5.131  -3.014  23.527  0.00  0.00    -0.481 OA
ATOM     35  H   UNL     1      -5.412  -3.364  22.655  0.00  0.00    +0.295 HD
ENDBRANCH  30   2
ENDBRANCH  24  30
ENDBRANCH  22  24
ENDBRANCH  23  22
ENDBRANCH  21  23
ENDBRANCH  15   4
ENDBRANCH   9  15
BRANCH  11  16
ATOM     16  C   UNL     1      -0.792   2.848  26.486  0.00  0.00    +0.082 C 
BRANCH  16  20
ATOM      5  N   UNL     1      -0.644   1.214  24.597  0.00  0.00    -0.341 N 
ATOM      6  N   UNL     1       1.232   2.311  25.084  0.00  0.00    -0.213 NA
ATOM      7  N   UNL     1       2.625   1.285  23.382  0.00  0.00    -0.234 NA
ATOM     20  C   UNL     1      -0.035   2.143  25.397  0.00  0.00    +0.110 A 
ATOM     25  C   UNL     1       0.291   0.754  23.710  0.00  0.00    +0.085 A 
ATOM     28  C   UNL     1       1.448   1.453  24.036  0.00  0.00    +0.178 A 
ATOM     29  C   UNL     1       0.259  -0.177  22.679  0.00  0.00    +0.031 A 
ATOM     31  C   UNL     1       1.459  -0.361  21.998  0.00  0.00    +0.022 A 
ATOM     32  C   UNL     1       2.576   0.375  22.381  0.00  0.00    +0.113 A 
ATOM     34  H   UNL     1      -1.611   0.918  24.652  0.00  0.00    +0.167 HD
ENDBRANCH  16  20
ENDBRANCH  11  16
TORSDOF 10
ENDMDL
MODEL 8
REMARK VINA RESULT:      -0.8      2.345      6.850
REMARK  Name = 71693104
REMARK  15 active torsions:
REMARK  status: ('A' for Active; 'I' for Inactive)
REMARK    1  A    between atoms: O_2  and  C_30
REMARK    2  A    between atoms: N_4  and  C_15
REMARK    3  A    between atoms: C_8  and  C_12
REMARK    4  A    between atoms: C_9  and  C_15
REMARK    5  A    between atoms: C_11  and  C_16
REMARK    6  A    between atoms: C_12  and  C_17
REMARK    7  A    between atoms: C_12  and  C_18
REMARK    8  A    between atoms: C_13  and  C_19
REMARK    9  A    between atoms: C_16  and  C_20
REMARK   10  A    between atoms: C_21  and  C_23
REMARK   11  A    between atoms: C_22  and  C_23
REMARK   12  A    between atoms: C_22  and  C_24
REMARK   13  A    between atoms: C_22  and  C_26
REMARK   14  A    between atoms: C_22  and  C_27
REMARK   15  A    between atoms: C_24  and  C_30
REMARK                            x       y       z     vdW  Elec       q    Type
REMARK                         _______ _______ _______ _____ _____    ______ ____
ROOT
ATOM      8  C   UNL     1      -0.916   0.720  24.673  0.00  0.00    +0.000 C 
ATOM      9  C   UNL     1       0.113  -0.363  24.260  0.00  0.00    +0.032 C 
ATOM     10  C   UNL     1      -1.883   0.165  25.728  0.00  0.00    +0.012 C 
ATOM     11  C   UNL     1      -2.653  -1.071  25.221  0.00  0.00    +0.022 C 
ATOM     13  C   UNL     1      -1.731  -2.072  24.555  0.00  0.00    -0.073 C 
ATOM     14  C   UNL     1      -0.494  -1.742  24.143  0.00  0.00    -0.022 C 
ATOM     19  C   UNL     1      -2.249  -3.476  24.411  0.00  0.00    +0.039 C 
ENDROOT
BRANCH   8  12
ATOM     12  C   UNL     1      -0.230   1.980  25.211  0.00  0.00    -0.013 C 
ATOM     17  C   UNL     1      -0.518   3.170  24.302  0.00  0.00    +0.007 C 
ATOM     18  C   UNL     1      -0.685   2.266  26.638  0.00  0.00    +0.007 C 
ENDBRANCH   8  12
BRANCH   9  15
ATOM     15  C   UNL     1       0.803   0.004  22.941  0.00  0.00    +0.112 C 
BRANCH  15   4
ATOM      1  O   UNL     1       3.152  -0.059  21.279  0.00  0.00    -0.276 OA
ATOM      4  N   UNL     1       2.045   0.669  23.186  0.00  0.00    -0.315 N 
ATOM     21  C   UNL     1       3.137   0.585  22.326  0.00  0.00    +0.214 C 
ATOM     33  H   UNL     1       2.122   1.233  24.028  0.00  0.00    +0.149 HD
BRANCH  21  23
ATOM     23  C   UNL     1       4.344   1.381  22.794  0.00  0.00    +0.102 C 
BRANCH  23  22
ATOM     22  C   UNL     1       5.443   0.545  23.497  0.00  0.00    -0.017 C 
ATOM     26  C   UNL     1       6.439   1.524  24.153  0.00  0.00    +0.012 C 
ATOM     27  C   UNL     1       6.230  -0.288  22.463  0.00  0.00    +0.012 C 
BRANCH  22  24
ATOM     24  C   UNL     1       4.873  -0.426  24.558  0.00  0.00    +0.127 C 
BRANCH  24  30
ATOM      3  O   UNL     1       5.345  -2.666  23.770  0.00  0.00    -0.251 OA
ATOM     30  C   UNL     1       4.520  -1.802  24.037  0.00  0.00    +0.305 C 
BRANCH  30   2
ATOM      2  O   UNL     1       3.184  -1.982  23.886  0.00  0.00    -0.481 OA
ATOM     35  H   UNL     1       2.677  -1.594  24.630  0.00  0.00    +0.295 HD
ENDBRANCH  30   2
ENDBRANCH  24  30
ENDBRANCH  22  24
ENDBRANCH  23  22
ENDBRANCH  21  23
ENDBRANCH  15   4
ENDBRANCH   9  15
BRANCH  11  16
ATOM     16  C   UNL     1      -3.793  -0.664  24.281  0.00  0.00    +0.082 C 
BRANCH  16  20
ATOM      5  N   UNL     1      -3.708   1.806  23.892  0.00  0.00    -0.341 N 
ATOM      6  N   UNL     1      -5.183   1.110  25.409  0.00  0.00    -0.213 NA
ATOM      7  N   UNL     1      -6.063   3.296  25.991  0.00  0.00    -0.234 NA
ATOM     20  C   UNL     1      -4.254   0.740  24.554  0.00  0.00    +0.110 A 
ATOM     25  C   UNL     1      -4.326   2.938  24.350  0.00  0.00    +0.085 A 
ATOM     28  C   UNL     1      -5.238   2.476  25.293  0.00  0.00    +0.178 A 
ATOM     29  C   UNL     1      -4.194   4.290  24.054  0.00  0.00    +0.031 A 
ATOM     31  C   UNL     1      -5.034   5.144  24.763  0.00  0.00    +0.022 A 
ATOM     32  C   UNL     1      -5.921   4.609  25.691  0.00  0.00    +0.113 A 
ATOM     34  H   UNL     1      -2.978   1.767  23.192  0.00  0.00    +0.167 HD
ENDBRANCH  16  20
ENDBRANCH  11  16
TORSDOF 10
ENDMDL
MODEL 9
REMARK VINA RESULT:      -0.7      1.947      3.241
REMARK  Name = 71693104
REMARK  15 active torsions:
REMARK  status: ('A' for Active; 'I' for Inactive)
REMARK    1  A    between atoms: O_2  and  C_30
REMARK    2  A    between atoms: N_4  and  C_15
REMARK    3  A    between atoms: C_8  and  C_12
REMARK    4  A    between atoms: C_9  and  C_15
REMARK    5  A    between atoms: C_11  and  C_16
REMARK    6  A    between atoms: C_12  and  C_17
REMARK    7  A    between atoms: C_12  and  C_18
REMARK    8  A    between atoms: C_13  and  C_19
REMARK    9  A    between atoms: C_16  and  C_20
REMARK   10  A    between atoms: C_21  and  C_23
REMARK   11  A    between atoms: C_22  and  C_23
REMARK   12  A    between atoms: C_22  and  C_24
REMARK   13  A    between atoms: C_22  and  C_26
REMARK   14  A    between atoms: C_22  and  C_27
REMARK   15  A    between atoms: C_24  and  C_30
REMARK                            x       y       z     vdW  Elec       q    Type
REMARK                         _______ _______ _______ _____ _____    ______ ____
ROOT
ATOM      8  C   UNL     1      -2.289   3.144  24.761  0.00  0.00    +0.000 C 
ATOM      9  C   UNL     1      -3.562   3.408  23.918  0.00  0.00    +0.032 C 
ATOM     10  C   UNL     1      -1.037   3.200  23.873  0.00  0.00    +0.012 C 
ATOM     11  C   UNL     1      -1.087   2.168  22.729  0.00  0.00    +0.022 C 
ATOM     13  C   UNL     1      -2.424   2.184  22.016  0.00  0.00    -0.073 C 
ATOM     14  C   UNL     1      -3.516   2.753  22.557  0.00  0.00    -0.022 C 
ATOM     19  C   UNL     1      -2.467   1.566  20.646  0.00  0.00    +0.039 C 
ENDROOT
BRANCH   8  12
ATOM     12  C   UNL     1      -2.152   4.146  25.912  0.00  0.00    -0.013 C 
ATOM     17  C   UNL     1      -1.187   3.616  26.966  0.00  0.00    +0.007 C 
ATOM     18  C   UNL     1      -1.689   5.501  25.387  0.00  0.00    +0.007 C 
ENDBRANCH   8  12
BRANCH   9  15
ATOM     15  C   UNL     1      -4.822   2.951  24.662  0.00  0.00    +0.112 C 
BRANCH  15   4
ATOM      1  O   UNL     1      -4.595   0.232  23.744  0.00  0.00    -0.276 OA
ATOM      4  N   UNL     1      -4.549   1.796  25.460  0.00  0.00    -0.315 N 
ATOM     21  C   UNL     1      -4.456   0.510  24.933  0.00  0.00    +0.214 C 
ATOM     33  H   UNL     1      -4.412   1.932  26.458  0.00  0.00    +0.149 HD
BRANCH  21  23
ATOM     23  C   UNL     1      -4.153  -0.555  25.974  0.00  0.00    +0.102 C 
BRANCH  23  22
ATOM     22  C   UNL     1      -2.699  -1.090  25.955  0.00  0.00    -0.017 C 
ATOM     26  C   UNL     1      -2.472  -1.896  27.251  0.00  0.00    +0.012 C 
ATOM     27  C   UNL     1      -1.695   0.082  25.959  0.00  0.00    +0.012 C 
BRANCH  22  24
ATOM     24  C   UNL     1      -2.400  -1.972  24.719  0.00  0.00    +0.127 C 
BRANCH  24  30
ATOM      3  O   UNL     1      -3.758  -3.973  24.843  0.00  0.00    -0.251 OA
ATOM     30  C   UNL     1      -3.527  -2.895  24.310  0.00  0.00    +0.305 C 
BRANCH  30   2
ATOM      2  O   UNL     1      -4.258  -2.408  23.276  0.00  0.00    -0.481 OA
ATOM     35  H   UNL     1      -3.748  -2.405  22.438  0.00  0.00    +0.295 HD
ENDBRANCH  30   2
ENDBRANCH  24  30
ENDBRANCH  22  24
ENDBRANCH  23  22
ENDBRANCH  21  23
ENDBRANCH  15   4
ENDBRANCH   9  15
BRANCH  11  16
ATOM     16  C   UNL     1      -0.753   0.762  23.240  0.00  0.00    +0.082 C 
BRANCH  16  20
ATOM      5  N   UNL     1       1.247  -0.710  23.542  0.00  0.00    -0.341 N 
ATOM      6  N   UNL     1       1.672   1.419  23.049  0.00  0.00    -0.213 NA
ATOM      7  N   UNL     1       4.093   1.246  23.048  0.00  0.00    -0.234 NA
ATOM     20  C   UNL     1       0.730   0.527  23.269  0.00  0.00    +0.110 A 
ATOM     25  C   UNL     1       2.611  -0.609  23.495  0.00  0.00    +0.085 A 
ATOM     28  C   UNL     1       2.848   0.726  23.187  0.00  0.00    +0.178 A 
ATOM     29  C   UNL     1       3.647  -1.516  23.683  0.00  0.00    +0.031 A 
ATOM     31  C   UNL     1       4.932  -0.997  23.544  0.00  0.00    +0.022 A 
ATOM     32  C   UNL     1       5.090   0.349  23.235  0.00  0.00    +0.113 A 
ATOM     34  H   UNL     1       0.717  -1.549  23.744  0.00  0.00    +0.167 HD
ENDBRANCH  16  20
ENDBRANCH  11  16
TORSDOF 10
ENDMDL
MODEL 10
REMARK VINA RESULT:      -0.1      2.792      6.907
REMARK  Name = 71693104
REMARK  15 active torsions:
REMARK  status: ('A' for Active; 'I' for Inactive)
REMARK    1  A    between atoms: O_2  and  C_30
REMARK    2  A    between atoms: N_4  and  C_15
REMARK    3  A    between atoms: C_8  and  C_12
REMARK    4  A    between atoms: C_9  and  C_15
REMARK    5  A    between atoms: C_11  and  C_16
REMARK    6  A    between atoms: C_12  and  C_17
REMARK    7  A    between atoms: C_12  and  C_18
REMARK    8  A    between atoms: C_13  and  C_19
REMARK    9  A    between atoms: C_16  and  C_20
REMARK   10  A    between atoms: C_21  and  C_23
REMARK   11  A    between atoms: C_22  and  C_23
REMARK   12  A    between atoms: C_22  and  C_24
REMARK   13  A    between atoms: C_22  and  C_26
REMARK   14  A    between atoms: C_22  and  C_27
REMARK   15  A    between atoms: C_24  and  C_30
REMARK                            x       y       z     vdW  Elec       q    Type
REMARK                         _______ _______ _______ _____ _____    ______ ____
ROOT
ATOM      8  C   UNL     1      -1.386   0.329  24.812  0.00  0.00    +0.000 C 
ATOM      9  C   UNL     1      -0.469  -0.845  24.388  0.00  0.00    +0.032 C 
ATOM     10  C   UNL     1      -2.371  -0.125  25.898  0.00  0.00    +0.012 C 
ATOM     11  C   UNL     1      -3.261  -1.293  25.427  0.00  0.00    +0.022 C 
ATOM     13  C   UNL     1      -2.450  -2.379  24.751  0.00  0.00    -0.073 C 
ATOM     14  C   UNL     1      -1.199  -2.166  24.304  0.00  0.00    -0.022 C 
ATOM     19  C   UNL     1      -3.095  -3.733  24.638  0.00  0.00    +0.039 C 
ENDROOT
BRANCH   8  12
ATOM     12  C   UNL     1      -0.576   1.528  25.316  0.00  0.00    -0.013 C 
ATOM     17  C   UNL     1      -0.293   2.497  24.173  0.00  0.00    +0.007 C 
ATOM     18  C   UNL     1      -1.315   2.231  26.450  0.00  0.00    +0.007 C 
ENDBRANCH   8  12
BRANCH   9  15
ATOM     15  C   UNL     1       0.216  -0.556  23.048  0.00  0.00    +0.112 C 
BRANCH  15   4
ATOM      1  O   UNL     1       2.331  -0.253  21.119  0.00  0.00    -0.276 OA
ATOM      4  N   UNL     1       1.476   0.090  23.251  0.00  0.00    -0.315 N 
ATOM     21  C   UNL     1       2.448   0.193  22.259  0.00  0.00    +0.214 C 
ATOM     33  H   UNL     1       1.657   0.497  24.164  0.00  0.00    +0.149 HD
BRANCH  21  23
ATOM     23  C   UNL     1       3.701   0.928  22.707  0.00  0.00    +0.102 C 
BRANCH  23  22
ATOM     22  C   UNL     1       4.773   0.035  23.381  0.00  0.00    -0.017 C 
ATOM     26  C   UNL     1       4.094  -1.284  23.807  0.00  0.00    +0.012 C 
ATOM     27  C   UNL     1       5.309   0.711  24.660  0.00  0.00    +0.012 C 
BRANCH  22  24
ATOM     24  C   UNL     1       5.978  -0.260  22.455  0.00  0.00    +0.127 C 
BRANCH  24  30
ATOM      3  O   UNL     1       8.378  -0.322  22.771  0.00  0.00    -0.251 OA
ATOM     30  C   UNL     1       7.260  -0.616  23.175  0.00  0.00    +0.305 C 
BRANCH  30   2
ATOM      2  O   UNL     1       7.046  -1.307  24.322  0.00  0.00    -0.481 OA
ATOM     35  H   UNL     1       6.404  -2.038  24.194  0.00  0.00    +0.295 HD
ENDBRANCH  30   2
ENDBRANCH  24  30
ENDBRANCH  22  24
ENDBRANCH  23  22
ENDBRANCH  21  23
ENDBRANCH  15   4
ENDBRANCH   9  15
BRANCH  11  16
ATOM     16  C   UNL     1      -4.384  -0.795  24.511  0.00  0.00    +0.082 C 
BRANCH  16  20
ATOM      5  N   UNL     1      -3.892   1.585  23.916  0.00  0.00    -0.341 N 
ATOM      6  N   UNL     1      -5.446   1.274  25.481  0.00  0.00    -0.213 NA
ATOM      7  N   UNL     1      -5.943   3.617  25.875  0.00  0.00    -0.234 NA
ATOM     20  C   UNL     1      -4.601   0.684  24.663  0.00  0.00    +0.110 A 
ATOM     25  C   UNL     1      -4.308   2.838  24.275  0.00  0.00    +0.085 A 
ATOM     28  C   UNL     1      -5.274   2.616  25.250  0.00  0.00    +0.178 A 
ATOM     29  C   UNL     1      -3.956   4.120  23.867  0.00  0.00    +0.031 A 
ATOM     31  C   UNL     1      -4.634   5.159  24.499  0.00  0.00    +0.022 A 
ATOM     32  C   UNL     1      -5.588   4.858  25.465  0.00  0.00    +0.113 A 
ATOM     34  H   UNL     1      -3.187   1.366  23.224  0.00  0.00    +0.167 HD
ENDBRANCH  16  20
ENDBRANCH  11  16
TORSDOF 10
ENDMDL
