MODEL 1
REMARK VINA RESULT:      17.5      0.000      0.000
REMARK  Name = 9424313
REMARK  5 active torsions:
REMARK  status: ('A' for Active; 'I' for Inactive)
REMARK    1  A    between atoms: N_6  and  C_9
REMARK    2  A    between atoms: N_8  and  C_23
REMARK    3  A    between atoms: C_21  and  C_24
REMARK    4  A    between atoms: C_23  and  C_25
REMARK    5  A    between atoms: C_23  and  C_26
REMARK                            x       y       z     vdW  Elec       q    Type
REMARK                         _______ _______ _______ _____ _____    ______ ____
ROOT
ATOM      2  O   UNL     1       2.016  -0.327  21.082  0.00  0.00    -0.273 OA
ATOM      3  O   UNL     1      -1.064  -1.514  25.121  0.00  0.00    -0.270 OA
ATOM      5  N   UNL     1       0.901  -0.793  24.114  0.00  0.00    -0.286 N 
ATOM      7  N   UNL     1      -0.084   0.417  21.600  0.00  0.00    -0.283 N 
ATOM      9  C   UNL     1       3.779  -1.053  23.703  0.00  0.00    +0.078 C 
ATOM     10  C   UNL     1       1.596   0.260  23.384  0.00  0.00    +0.164 C 
ATOM     11  C   UNL     1       3.109   0.318  23.632  0.00  0.00    +0.054 C 
ATOM     12  C   UNL     1       3.040  -1.926  24.711  0.00  0.00    +0.041 C 
ATOM     13  C   UNL     1       1.581  -2.075  24.315  0.00  0.00    +0.111 C 
ATOM     14  C   UNL     1       1.211   0.062  21.930  0.00  0.00    +0.238 C 
ATOM     15  C   UNL     1      -0.457  -0.701  24.421  0.00  0.00    +0.249 C 
ATOM     16  C   UNL     1      -1.252   0.401  23.816  0.00  0.00    +0.059 A 
ATOM     17  C   UNL     1      -1.122   0.807  22.475  0.00  0.00    +0.046 A 
ATOM     19  C   UNL     1      -2.314   0.896  24.591  0.00  0.00    +0.023 A 
ATOM     20  C   UNL     1      -2.101   1.651  21.924  0.00  0.00    +0.024 A 
ATOM     21  C   UNL     1      -3.247   1.773  24.041  0.00  0.00    -0.017 A 
ATOM     22  C   UNL     1      -3.150   2.139  22.704  0.00  0.00    +0.010 A 
ATOM     31  H   UNL     1      -0.278   0.502  20.604  0.00  0.00    +0.155 HD
ENDROOT
BRANCH   9   6
ATOM      4  O   UNL     1       5.907  -0.008  22.057  0.00  0.00    -0.253 OA
ATOM      6  N   UNL     1       5.172  -0.924  24.059  0.00  0.00    -0.296 N 
ATOM      8  N   UNL     1       7.395  -0.394  23.794  0.00  0.00    -0.297 N 
ATOM     18  C   UNL     1       6.136  -0.405  23.197  0.00  0.00    +0.300 C 
ATOM     30  H   UNL     1       5.452  -1.158  25.007  0.00  0.00    +0.151 HD
ATOM     32  H   UNL     1       7.471  -0.674  24.767  0.00  0.00    +0.150 HD
BRANCH   8  23
ATOM     23  C   UNL     1       8.575   0.093  23.120  0.00  0.00    +0.068 C 
ATOM     25  C   UNL     1       9.265  -1.042  22.374  0.00  0.00    +0.027 C 
ATOM     26  C   UNL     1       9.522   0.757  24.112  0.00  0.00    +0.027 C 
ENDBRANCH   8  23
ENDBRANCH   9   6
BRANCH  21  24
ATOM      1  S   UNL     1      -6.396   2.248  26.372  0.00  0.00    -0.104 S 
ATOM     24  C   UNL     1      -4.326   2.274  24.847  0.00  0.00    -0.011 A 
ATOM     27  C   UNL     1      -4.643   3.639  25.111  0.00  0.00    +0.016 A 
ATOM     28  C   UNL     1      -5.201   1.413  25.473  0.00  0.00    +0.053 A 
ATOM     29  C   UNL     1      -5.746   3.768  25.926  0.00  0.00    +0.046 A 
ENDBRANCH  21  24
TORSDOF 3
ENDMDL
MODEL 2
REMARK VINA RESULT:      21.4      3.815      9.751
REMARK  Name = 9424313
REMARK  5 active torsions:
REMARK  status: ('A' for Active; 'I' for Inactive)
REMARK    1  A    between atoms: N_6  and  C_9
REMARK    2  A    between atoms: N_8  and  C_23
REMARK    3  A    between atoms: C_21  and  C_24
REMARK    4  A    between atoms: C_23  and  C_25
REMARK    5  A    between atoms: C_23  and  C_26
REMARK                            x       y       z     vdW  Elec       q    Type
REMARK                         _______ _______ _______ _____ _____    ______ ____
ROOT
ATOM      2  O   UNL     1      -0.596  -0.842  23.812  0.00  0.00    -0.273 OA
ATOM      3  O   UNL     1       3.023   2.533  22.161  0.00  0.00    -0.270 OA
ATOM      5  N   UNL     1       1.307   1.796  23.542  0.00  0.00    -0.286 N 
ATOM      7  N   UNL     1       1.644  -1.142  23.458  0.00  0.00    -0.283 N 
ATOM      9  C   UNL     1      -1.335   2.180  24.722  0.00  0.00    +0.078 C 
ATOM     10  C   UNL     1       0.883   0.893  24.604  0.00  0.00    +0.164 C 
ATOM     11  C   UNL     1      -0.246   1.432  25.491  0.00  0.00    +0.054 C 
ATOM     12  C   UNL     1      -0.693   3.253  23.850  0.00  0.00    +0.041 C 
ATOM     13  C   UNL     1       0.297   2.628  22.882  0.00  0.00    +0.111 C 
ATOM     14  C   UNL     1       0.557  -0.416  23.909  0.00  0.00    +0.238 C 
ATOM     15  C   UNL     1       2.585   1.729  22.986  0.00  0.00    +0.249 C 
ATOM     16  C   UNL     1       3.459   0.581  23.345  0.00  0.00    +0.059 A 
ATOM     17  C   UNL     1       3.000  -0.746  23.442  0.00  0.00    +0.046 A 
ATOM     19  C   UNL     1       4.840   0.842  23.381  0.00  0.00    +0.023 A 
ATOM     20  C   UNL     1       3.941  -1.787  23.506  0.00  0.00    +0.024 A 
ATOM     21  C   UNL     1       5.757  -0.201  23.497  0.00  0.00    -0.017 A 
ATOM     22  C   UNL     1       5.309  -1.516  23.544  0.00  0.00    +0.010 A 
ATOM     31  H   UNL     1       1.454  -2.108  23.200  0.00  0.00    +0.155 HD
ENDROOT
BRANCH   9   6
ATOM      4  O   UNL     1      -4.196   2.329  24.372  0.00  0.00    -0.253 OA
ATOM      6  N   UNL     1      -2.294   2.762  25.631  0.00  0.00    -0.296 N 
ATOM      8  N   UNL     1      -4.356   3.409  26.420  0.00  0.00    -0.297 N 
ATOM     18  C   UNL     1      -3.665   2.790  25.380  0.00  0.00    +0.300 C 
ATOM     30  H   UNL     1      -1.963   3.107  26.527  0.00  0.00    +0.151 HD
ATOM     32  H   UNL     1      -3.837   3.691  27.245  0.00  0.00    +0.150 HD
BRANCH   8  23
ATOM     23  C   UNL     1      -5.791   3.572  26.415  0.00  0.00    +0.068 C 
ATOM     25  C   UNL     1      -6.473   2.253  26.076  0.00  0.00    +0.027 C 
ATOM     26  C   UNL     1      -6.201   4.672  25.444  0.00  0.00    +0.027 C 
ENDBRANCH   8  23
ENDBRANCH   9   6
BRANCH  21  24
ATOM      1  S   UNL     1       9.353   1.310  24.098  0.00  0.00    -0.104 S 
ATOM     24  C   UNL     1       7.165   0.080  23.536  0.00  0.00    -0.011 A 
ATOM     27  C   UNL     1       8.215  -0.688  22.951  0.00  0.00    +0.016 A 
ATOM     28  C   UNL     1       7.647   1.194  24.190  0.00  0.00    +0.053 A 
ATOM     29  C   UNL     1       9.455  -0.132  23.180  0.00  0.00    +0.046 A 
ENDBRANCH  21  24
TORSDOF 3
ENDMDL
