MODEL 1
REMARK VINA RESULT:       1.6      0.000      0.000
REMARK  Name = 45783434
REMARK  9 active torsions:
REMARK  status: ('A' for Active; 'I' for Inactive)
REMARK    1  A    between atoms: O_3  and  C_25
REMARK    2  A    between atoms: O_3  and  C_28
REMARK    3  A    between atoms: O_4  and  C_29
REMARK    4  A    between atoms: O_4  and  C_30
REMARK    5  A    between atoms: N_5  and  C_10
REMARK    6  A    between atoms: C_11  and  C_19
REMARK    7  A    between atoms: C_20  and  C_21
REMARK    8  A    between atoms: C_22  and  C_23
REMARK    9  A    between atoms: C_28  and  C_29
REMARK                            x       y       z     vdW  Elec       q    Type
REMARK                         _______ _______ _______ _____ _____    ______ ____
ROOT
ATOM      1  O   UNL     1      -0.801  -1.321  25.692  0.00  0.00    -0.336 OA
ATOM      7  N   UNL     1      -0.995  -0.713  23.546  0.00  0.00    -0.189 NA
ATOM      8  N   UNL     1       0.494  -1.013  25.256  0.00  0.00    -0.054 NA
ATOM     19  C   UNL     1      -1.616  -1.119  24.624  0.00  0.00    +0.245 A 
ATOM     22  C   UNL     1       0.296  -0.663  23.981  0.00  0.00    +0.221 A 
ENDROOT
BRANCH  22  23
ATOM      9  N   UNL     1       1.264  -0.659  21.829  0.00  0.00    -0.252 NA
ATOM     23  C   UNL     1       1.369  -0.261  23.117  0.00  0.00    +0.115 A 
ATOM     24  C   UNL     1       2.424   0.486  23.615  0.00  0.00    +0.077 A 
ATOM     25  C   UNL     1       3.436   0.850  22.734  0.00  0.00    +0.124 A 
ATOM     26  C   UNL     1       2.267  -0.288  21.003  0.00  0.00    +0.115 A 
ATOM     27  C   UNL     1       3.364   0.459  21.401  0.00  0.00    +0.065 A 
BRANCH  25   3
ATOM      3  O   UNL     1       4.493   1.584  23.174  0.00  0.00    -0.490 OA
BRANCH   3  28
ATOM     28  C   UNL     1       5.388   0.951  24.088  0.00  0.00    +0.257 C 
BRANCH  28  29
ATOM     29  C   UNL     1       5.955  -0.298  23.441  0.00  0.00    +0.200 C 
BRANCH  29   4
ATOM      4  O   UNL     1       5.697  -1.415  24.283  0.00  0.00    -0.380 OA
ATOM     30  C   UNL     1       4.496  -2.078  23.916  0.00  0.00    +0.194 C 
ENDBRANCH  29   4
ENDBRANCH  28  29
ENDBRANCH   3  28
ENDBRANCH  25   3
ENDBRANCH  22  23
BRANCH  19  11
ATOM      5  N   UNL     1      -3.925  -0.899  23.725  0.00  0.00    -0.288 NA
ATOM     11  C   UNL     1      -3.091  -1.385  24.841  0.00  0.00    +0.146 C 
ATOM     12  C   UNL     1      -5.099  -1.770  23.675  0.00  0.00    +0.085 C 
ATOM     13  C   UNL     1      -3.414  -2.888  24.945  0.00  0.00    +0.030 C 
ATOM     16  C   UNL     1      -4.482  -3.138  23.891  0.00  0.00    +0.017 C 
BRANCH   5  10
ATOM      2  O   UNL     1      -2.174   4.867  24.950  0.00  0.00    -0.276 OA
ATOM      6  N   UNL     1      -3.755   3.165  24.871  0.00  0.00    -0.302 N 
ATOM     10  C   UNL     1      -4.293   0.510  23.852  0.00  0.00    +0.060 C 
ATOM     14  C   UNL     1      -3.196   1.396  23.248  0.00  0.00    +0.038 C 
ATOM     15  C   UNL     1      -4.516   0.864  25.328  0.00  0.00    +0.038 C 
ATOM     17  C   UNL     1      -3.514   2.876  23.457  0.00  0.00    +0.109 C 
ATOM     18  C   UNL     1      -4.809   2.355  25.495  0.00  0.00    +0.109 C 
ATOM     20  C   UNL     1      -3.031   4.175  25.506  0.00  0.00    +0.212 C 
ATOM     21  C   UNL     1      -3.335   4.410  26.964  0.00  0.00    +0.109 C 
ENDBRANCH   5  10
ENDBRANCH  19  11
TORSDOF 7
ENDMDL
MODEL 2
REMARK VINA RESULT:       2.0      1.535      4.218
REMARK  Name = 45783434
REMARK  9 active torsions:
REMARK  status: ('A' for Active; 'I' for Inactive)
REMARK    1  A    between atoms: O_3  and  C_25
REMARK    2  A    between atoms: O_3  and  C_28
REMARK    3  A    between atoms: O_4  and  C_29
REMARK    4  A    between atoms: O_4  and  C_30
REMARK    5  A    between atoms: N_5  and  C_10
REMARK    6  A    between atoms: C_11  and  C_19
REMARK    7  A    between atoms: C_20  and  C_21
REMARK    8  A    between atoms: C_22  and  C_23
REMARK    9  A    between atoms: C_28  and  C_29
REMARK                            x       y       z     vdW  Elec       q    Type
REMARK                         _______ _______ _______ _____ _____    ______ ____
ROOT
ATOM      1  O   UNL     1      -1.633   3.372  24.523  0.00  0.00    -0.336 OA
ATOM      7  N   UNL     1      -1.619   1.433  23.403  0.00  0.00    -0.189 NA
ATOM      8  N   UNL     1      -0.288   3.088  24.251  0.00  0.00    -0.054 NA
ATOM     19  C   UNL     1      -2.348   2.348  23.990  0.00  0.00    +0.245 A 
ATOM     22  C   UNL     1      -0.363   1.930  23.589  0.00  0.00    +0.221 A 
ENDROOT
BRANCH  22  23
ATOM      9  N   UNL     1       0.560   0.119  22.391  0.00  0.00    -0.252 NA
ATOM     23  C   UNL     1       0.800   1.244  23.101  0.00  0.00    +0.115 A 
ATOM     24  C   UNL     1       2.066   1.740  23.368  0.00  0.00    +0.077 A 
ATOM     25  C   UNL     1       3.157   1.036  22.872  0.00  0.00    +0.124 A 
ATOM     26  C   UNL     1       1.646  -0.539  21.926  0.00  0.00    +0.115 A 
ATOM     27  C   UNL     1       2.952  -0.126  22.135  0.00  0.00    +0.065 A 
BRANCH  25   3
ATOM      3  O   UNL     1       4.421   1.482  23.105  0.00  0.00    -0.490 OA
BRANCH   3  28
ATOM     28  C   UNL     1       5.456   0.502  23.155  0.00  0.00    +0.257 C 
BRANCH  28  29
ATOM     29  C   UNL     1       5.668   0.078  24.596  0.00  0.00    +0.200 C 
BRANCH  29   4
ATOM      4  O   UNL     1       5.690  -1.342  24.665  0.00  0.00    -0.380 OA
ATOM     30  C   UNL     1       4.646  -1.918  23.894  0.00  0.00    +0.194 C 
ENDBRANCH  29   4
ENDBRANCH  28  29
ENDBRANCH   3  28
ENDBRANCH  25   3
ENDBRANCH  22  23
BRANCH  19  11
ATOM      5  N   UNL     1      -4.308   1.914  25.461  0.00  0.00    -0.288 NA
ATOM     11  C   UNL     1      -3.852   2.420  24.151  0.00  0.00    +0.146 C 
ATOM     12  C   UNL     1      -5.537   2.640  25.780  0.00  0.00    +0.085 C 
ATOM     13  C   UNL     1      -4.389   3.862  24.080  0.00  0.00    +0.030 C 
ATOM     16  C   UNL     1      -5.182   4.053  25.365  0.00  0.00    +0.017 C 
BRANCH   5  10
ATOM      2  O   UNL     1      -1.805  -3.700  25.289  0.00  0.00    -0.276 OA
ATOM      6  N   UNL     1      -3.548  -2.208  24.921  0.00  0.00    -0.302 N 
ATOM     10  C   UNL     1      -4.504   0.466  25.482  0.00  0.00    +0.060 C 
ATOM     14  C   UNL     1      -3.422  -0.198  26.343  0.00  0.00    +0.038 C 
ATOM     15  C   UNL     1      -4.470  -0.091  24.053  0.00  0.00    +0.038 C 
ATOM     17  C   UNL     1      -3.550  -1.720  26.301  0.00  0.00    +0.109 C 
ATOM     18  C   UNL     1      -4.578  -1.616  24.057  0.00  0.00    +0.109 C 
ATOM     20  C   UNL     1      -2.638  -3.192  24.534  0.00  0.00    +0.212 C 
ATOM     21  C   UNL     1      -2.697  -3.639  23.095  0.00  0.00    +0.109 C 
ENDBRANCH   5  10
ENDBRANCH  19  11
TORSDOF 7
ENDMDL
MODEL 3
REMARK VINA RESULT:       4.6      1.504      2.091
REMARK  Name = 45783434
REMARK  9 active torsions:
REMARK  status: ('A' for Active; 'I' for Inactive)
REMARK    1  A    between atoms: O_3  and  C_25
REMARK    2  A    between atoms: O_3  and  C_28
REMARK    3  A    between atoms: O_4  and  C_29
REMARK    4  A    between atoms: O_4  and  C_30
REMARK    5  A    between atoms: N_5  and  C_10
REMARK    6  A    between atoms: C_11  and  C_19
REMARK    7  A    between atoms: C_20  and  C_21
REMARK    8  A    between atoms: C_22  and  C_23
REMARK    9  A    between atoms: C_28  and  C_29
REMARK                            x       y       z     vdW  Elec       q    Type
REMARK                         _______ _______ _______ _____ _____    ______ ____
ROOT
ATOM      1  O   UNL     1      -0.790  -1.103  22.501  0.00  0.00    -0.336 OA
ATOM      7  N   UNL     1       0.352  -0.399  24.294  0.00  0.00    -0.189 NA
ATOM      8  N   UNL     1       0.500  -0.801  22.047  0.00  0.00    -0.054 NA
ATOM     19  C   UNL     1      -0.791  -0.838  23.833  0.00  0.00    +0.245 A 
ATOM     22  C   UNL     1       1.113  -0.393  23.162  0.00  0.00    +0.221 A 
ENDROOT
BRANCH  22  23
ATOM      9  N   UNL     1       2.708   1.308  22.799  0.00  0.00    -0.252 NA
ATOM     23  C   UNL     1       2.485   0.029  23.177  0.00  0.00    +0.115 A 
ATOM     24  C   UNL     1       3.482  -0.852  23.561  0.00  0.00    +0.077 A 
ATOM     25  C   UNL     1       4.794  -0.392  23.558  0.00  0.00    +0.124 A 
ATOM     26  C   UNL     1       3.995   1.720  22.808  0.00  0.00    +0.115 A 
ATOM     27  C   UNL     1       5.064   0.918  23.175  0.00  0.00    +0.065 A 
BRANCH  25   3
ATOM      3  O   UNL     1       5.809  -1.218  23.927  0.00  0.00    -0.490 OA
BRANCH   3  28
ATOM     28  C   UNL     1       7.117  -0.651  23.992  0.00  0.00    +0.257 C 
BRANCH  28  29
ATOM     29  C   UNL     1       7.814  -0.862  22.662  0.00  0.00    +0.200 C 
BRANCH  29   4
ATOM      4  O   UNL     1       8.953  -0.013  22.594  0.00  0.00    -0.380 OA
ATOM     30  C   UNL     1       9.641   0.036  23.835  0.00  0.00    +0.194 C 
ENDBRANCH  29   4
ENDBRANCH  28  29
ENDBRANCH   3  28
ENDBRANCH  25   3
ENDBRANCH  22  23
BRANCH  19  11
ATOM      5  N   UNL     1      -3.278  -0.799  23.741  0.00  0.00    -0.288 NA
ATOM     11  C   UNL     1      -2.091  -1.089  24.570  0.00  0.00    +0.146 C 
ATOM     12  C   UNL     1      -4.341  -1.684  24.216  0.00  0.00    +0.085 C 
ATOM     13  C   UNL     1      -2.260  -2.560  24.994  0.00  0.00    +0.030 C 
ATOM     16  C   UNL     1      -3.597  -2.990  24.408  0.00  0.00    +0.017 C 
BRANCH   5  10
ATOM      2  O   UNL     1      -1.875   4.992  25.264  0.00  0.00    -0.276 OA
ATOM      6  N   UNL     1      -3.388   3.273  24.868  0.00  0.00    -0.302 N 
ATOM     10  C   UNL     1      -3.676   0.607  23.779  0.00  0.00    +0.060 C 
ATOM     14  C   UNL     1      -2.486   1.501  23.411  0.00  0.00    +0.038 C 
ATOM     15  C   UNL     1      -4.208   0.966  25.172  0.00  0.00    +0.038 C 
ATOM     17  C   UNL     1      -2.854   2.979  23.538  0.00  0.00    +0.109 C 
ATOM     18  C   UNL     1      -4.542   2.455  25.263  0.00  0.00    +0.109 C 
ATOM     20  C   UNL     1      -2.823   4.293  25.633  0.00  0.00    +0.212 C 
ATOM     21  C   UNL     1      -3.427   4.533  26.993  0.00  0.00    +0.109 C 
ENDBRANCH   5  10
ENDBRANCH  19  11
TORSDOF 7
ENDMDL
MODEL 4
REMARK VINA RESULT:       4.7      2.399      7.386
REMARK  Name = 45783434
REMARK  9 active torsions:
REMARK  status: ('A' for Active; 'I' for Inactive)
REMARK    1  A    between atoms: O_3  and  C_25
REMARK    2  A    between atoms: O_3  and  C_28
REMARK    3  A    between atoms: O_4  and  C_29
REMARK    4  A    between atoms: O_4  and  C_30
REMARK    5  A    between atoms: N_5  and  C_10
REMARK    6  A    between atoms: C_11  and  C_19
REMARK    7  A    between atoms: C_20  and  C_21
REMARK    8  A    between atoms: C_22  and  C_23
REMARK    9  A    between atoms: C_28  and  C_29
REMARK                            x       y       z     vdW  Elec       q    Type
REMARK                         _______ _______ _______ _____ _____    ______ ____
ROOT
ATOM      1  O   UNL     1       0.827   3.298  23.576  0.00  0.00    -0.336 OA
ATOM      7  N   UNL     1      -0.546   1.932  24.700  0.00  0.00    -0.189 NA
ATOM      8  N   UNL     1      -0.295   4.064  23.914  0.00  0.00    -0.054 NA
ATOM     19  C   UNL     1       0.597   2.055  24.076  0.00  0.00    +0.245 A 
ATOM     22  C   UNL     1      -1.058   3.189  24.575  0.00  0.00    +0.221 A 
ENDROOT
BRANCH  22  23
ATOM      9  N   UNL     1      -2.312   4.365  26.193  0.00  0.00    -0.252 NA
ATOM     23  C   UNL     1      -2.338   3.540  25.121  0.00  0.00    +0.115 A 
ATOM     24  C   UNL     1      -3.500   3.041  24.555  0.00  0.00    +0.077 A 
ATOM     25  C   UNL     1      -4.712   3.413  25.123  0.00  0.00    +0.124 A 
ATOM     26  C   UNL     1      -3.510   4.703  26.718  0.00  0.00    +0.115 A 
ATOM     27  C   UNL     1      -4.727   4.260  26.226  0.00  0.00    +0.065 A 
BRANCH  25   3
ATOM      3  O   UNL     1      -5.881   2.950  24.603  0.00  0.00    -0.490 OA
BRANCH   3  28
ATOM     28  C   UNL     1      -6.336   1.676  25.058  0.00  0.00    +0.257 C 
BRANCH  28  29
ATOM     29  C   UNL     1      -5.142   0.756  25.227  0.00  0.00    +0.200 C 
BRANCH  29   4
ATOM      4  O   UNL     1      -4.898   0.080  24.000  0.00  0.00    -0.380 OA
ATOM     30  C   UNL     1      -3.585   0.329  23.520  0.00  0.00    +0.194 C 
ENDBRANCH  29   4
ENDBRANCH  28  29
ENDBRANCH   3  28
ENDBRANCH  25   3
ENDBRANCH  22  23
BRANCH  19  11
ATOM      5  N   UNL     1       1.219  -0.103  23.005  0.00  0.00    -0.288 NA
ATOM     11  C   UNL     1       1.680   1.023  23.840  0.00  0.00    +0.146 C 
ATOM     12  C   UNL     1       2.395  -0.598  22.290  0.00  0.00    +0.085 C 
ATOM     13  C   UNL     1       2.895   1.597  23.087  0.00  0.00    +0.030 C 
ATOM     16  C   UNL     1       3.075   0.692  21.877  0.00  0.00    +0.017 C 
BRANCH   5  10
ATOM      2  O   UNL     1      -4.008  -2.947  24.557  0.00  0.00    -0.276 OA
ATOM      6  N   UNL     1      -1.824  -2.273  24.978  0.00  0.00    -0.302 N 
ATOM     10  C   UNL     1       0.560  -1.157  23.773  0.00  0.00    +0.060 C 
ATOM     14  C   UNL     1      -0.535  -1.819  22.926  0.00  0.00    +0.038 C 
ATOM     15  C   UNL     1      -0.036  -0.576  25.061  0.00  0.00    +0.038 C 
ATOM     17  C   UNL     1      -1.302  -2.858  23.742  0.00  0.00    +0.109 C 
ATOM     18  C   UNL     1      -0.813  -1.641  25.835  0.00  0.00    +0.109 C 
ATOM     20  C   UNL     1      -3.182  -2.379  25.277  0.00  0.00    +0.212 C 
ATOM     21  C   UNL     1      -3.642  -1.748  26.567  0.00  0.00    +0.109 C 
ENDBRANCH   5  10
ENDBRANCH  19  11
TORSDOF 7
ENDMDL
