MODEL 1
REMARK VINA RESULT:      -1.1      0.000      0.000
REMARK  Name = 40722264
REMARK  8 active torsions:
REMARK  status: ('A' for Active; 'I' for Inactive)
REMARK    1  A    between atoms: O_2  and  C_23
REMARK    2  A    between atoms: O_2  and  C_32
REMARK    3  A    between atoms: N_4  and  C_16
REMARK    4  A    between atoms: N_5  and  C_19
REMARK    5  A    between atoms: C_10  and  C_16
REMARK    6  A    between atoms: C_11  and  C_17
REMARK    7  A    between atoms: C_19  and  C_21
REMARK    8  A    between atoms: C_20  and  C_22
REMARK                            x       y       z     vdW  Elec       q    Type
REMARK                         _______ _______ _______ _____ _____    ______ ____
ROOT
ATOM      3  N   UNL     1      -0.590   3.070  25.016  0.00  0.00    -0.297 NA
ATOM      9  C   UNL     1      -2.772   4.326  24.355  0.00  0.00    +0.005 C 
ATOM     10  C   UNL     1      -1.024   2.653  23.655  0.00  0.00    +0.078 C 
ATOM     11  C   UNL     1      -2.918   3.639  25.726  0.00  0.00    +0.092 C 
ATOM     12  C   UNL     1      -2.396   3.266  23.299  0.00  0.00    +0.025 C 
ATOM     13  C   UNL     1      -1.586   5.299  24.469  0.00  0.00    +0.020 C 
ATOM     14  C   UNL     1      -1.662   2.793  26.005  0.00  0.00    +0.097 C 
ATOM     15  C   UNL     1      -0.353   4.535  24.989  0.00  0.00    +0.085 C 
ENDROOT
BRANCH  11  17
ATOM      1  O   UNL     1      -5.217   3.261  26.245  0.00  0.00    -0.275 OA
ATOM      5  N   UNL     1      -3.963   1.518  25.344  0.00  0.00    -0.311 N 
ATOM     17  C   UNL     1      -4.164   2.809  25.802  0.00  0.00    +0.218 C 
ATOM     33  H   UNL     1      -3.047   1.247  25.002  0.00  0.00    +0.149 HD
BRANCH   5  19
ATOM     19  C   UNL     1      -5.001   0.513  25.333  0.00  0.00    +0.143 C 
BRANCH  19  21
ATOM     21  C   UNL     1      -4.488  -0.821  24.873  0.00  0.00    +0.011 A 
ATOM     23  C   UNL     1      -3.339  -1.375  25.438  0.00  0.00    +0.125 A 
ATOM     24  C   UNL     1      -5.171  -1.506  23.869  0.00  0.00    +0.009 A 
ATOM     26  C   UNL     1      -2.875  -2.616  24.998  0.00  0.00    +0.046 A 
ATOM     27  C   UNL     1      -4.708  -2.745  23.429  0.00  0.00    +0.001 A 
ATOM     28  C   UNL     1      -3.559  -3.300  23.994  0.00  0.00    +0.004 A 
BRANCH  23   2
ATOM      2  O   UNL     1      -2.658  -0.720  26.419  0.00  0.00    -0.495 OA
ATOM     32  C   UNL     1      -1.235  -0.734  26.339  0.00  0.00    +0.277 C 
ENDBRANCH  23   2
ENDBRANCH  19  21
ENDBRANCH   5  19
ENDBRANCH  11  17
BRANCH  10  16
ATOM     16  C   UNL     1      -1.017   1.133  23.482  0.00  0.00    +0.164 C 
BRANCH  16   4
ATOM      4  N   UNL     1       0.343   0.630  23.082  0.00  0.00    -0.250 N 
ATOM      6  N   UNL     1       0.547   0.103  21.864  0.00  0.00    -0.065 NA
ATOM      7  N   UNL     1       1.827  -0.249  21.797  0.00  0.00    -0.128 NA
ATOM     18  C   UNL     1       1.482   0.631  23.826  0.00  0.00    +0.140 A 
ATOM     20  C   UNL     1       2.412   0.068  22.991  0.00  0.00    +0.131 A 
BRANCH  20  22
ATOM      8  N   UNL     1       4.086  -1.397  23.757  0.00  0.00    -0.253 NA
ATOM     22  C   UNL     1       3.786  -0.158  23.307  0.00  0.00    +0.092 A 
ATOM     25  C   UNL     1       4.716   0.857  23.149  0.00  0.00    +0.030 A 
ATOM     29  C   UNL     1       6.040   0.582  23.473  0.00  0.00    +0.004 A 
ATOM     30  C   UNL     1       5.384  -1.627  24.062  0.00  0.00    +0.111 A 
ATOM     31  C   UNL     1       6.389  -0.681  23.940  0.00  0.00    +0.020 A 
ENDBRANCH  20  22
ENDBRANCH  16   4
ENDBRANCH  10  16
TORSDOF 7
ENDMDL
MODEL 2
REMARK VINA RESULT:      -0.7      1.291      4.408
REMARK  Name = 40722264
REMARK  8 active torsions:
REMARK  status: ('A' for Active; 'I' for Inactive)
REMARK    1  A    between atoms: O_2  and  C_23
REMARK    2  A    between atoms: O_2  and  C_32
REMARK    3  A    between atoms: N_4  and  C_16
REMARK    4  A    between atoms: N_5  and  C_19
REMARK    5  A    between atoms: C_10  and  C_16
REMARK    6  A    between atoms: C_11  and  C_17
REMARK    7  A    between atoms: C_19  and  C_21
REMARK    8  A    between atoms: C_20  and  C_22
REMARK                            x       y       z     vdW  Elec       q    Type
REMARK                         _______ _______ _______ _____ _____    ______ ____
ROOT
ATOM      3  N   UNL     1      -3.021  -1.261  23.519  0.00  0.00    -0.297 NA
ATOM      9  C   UNL     1      -3.649  -0.776  25.997  0.00  0.00    +0.005 C 
ATOM     10  C   UNL     1      -1.870  -0.630  24.220  0.00  0.00    +0.078 C 
ATOM     11  C   UNL     1      -4.698  -0.193  25.032  0.00  0.00    +0.092 C 
ATOM     12  C   UNL     1      -2.265  -0.193  25.648  0.00  0.00    +0.025 C 
ATOM     13  C   UNL     1      -3.589  -2.290  25.727  0.00  0.00    +0.020 C 
ATOM     14  C   UNL     1      -4.210  -0.376  23.583  0.00  0.00    +0.097 C 
ATOM     15  C   UNL     1      -3.345  -2.525  24.224  0.00  0.00    +0.085 C 
ENDROOT
BRANCH  11  17
ATOM      1  O   UNL     1      -6.121   1.715  25.229  0.00  0.00    -0.275 OA
ATOM      5  N   UNL     1      -3.854   1.945  25.707  0.00  0.00    -0.311 N 
ATOM     17  C   UNL     1      -4.990   1.247  25.333  0.00  0.00    +0.218 C 
ATOM     33  H   UNL     1      -2.964   1.459  25.757  0.00  0.00    +0.149 HD
BRANCH   5  19
ATOM     19  C   UNL     1      -3.862   3.354  26.028  0.00  0.00    +0.143 C 
BRANCH  19  21
ATOM     21  C   UNL     1      -2.678   4.071  25.446  0.00  0.00    +0.011 A 
ATOM     23  C   UNL     1      -1.386   3.571  25.622  0.00  0.00    +0.125 A 
ATOM     24  C   UNL     1      -2.878   5.247  24.724  0.00  0.00    +0.009 A 
ATOM     26  C   UNL     1      -0.297   4.250  25.075  0.00  0.00    +0.046 A 
ATOM     27  C   UNL     1      -1.789   5.924  24.178  0.00  0.00    +0.001 A 
ATOM     28  C   UNL     1      -0.498   5.426  24.354  0.00  0.00    +0.004 A 
BRANCH  23   2
ATOM      2  O   UNL     1      -1.171   2.425  26.325  0.00  0.00    -0.495 OA
ATOM     32  C   UNL     1       0.149   2.204  26.816  0.00  0.00    +0.277 C 
ENDBRANCH  23   2
ENDBRANCH  19  21
ENDBRANCH   5  19
ENDBRANCH  11  17
BRANCH  10  16
ATOM     16  C   UNL     1      -1.260   0.522  23.419  0.00  0.00    +0.164 C 
BRANCH  16   4
ATOM      4  N   UNL     1       0.154   0.220  23.008  0.00  0.00    -0.250 N 
ATOM      6  N   UNL     1       0.442  -0.114  21.740  0.00  0.00    -0.065 NA
ATOM      7  N   UNL     1       1.753  -0.321  21.675  0.00  0.00    -0.128 NA
ATOM     18  C   UNL     1       1.269   0.236  23.789  0.00  0.00    +0.140 A 
ATOM     20  C   UNL     1       2.273  -0.111  22.921  0.00  0.00    +0.131 A 
BRANCH  20  22
ATOM      8  N   UNL     1       4.030  -1.437  23.753  0.00  0.00    -0.253 NA
ATOM     22  C   UNL     1       3.655  -0.237  23.257  0.00  0.00    +0.092 A 
ATOM     25  C   UNL     1       4.520   0.830  23.071  0.00  0.00    +0.030 A 
ATOM     29  C   UNL     1       5.855   0.653  23.415  0.00  0.00    +0.004 A 
ATOM     30  C   UNL     1       5.336  -1.572  24.077  0.00  0.00    +0.111 A 
ATOM     31  C   UNL     1       6.279  -0.568  23.929  0.00  0.00    +0.020 A 
ENDBRANCH  20  22
ENDBRANCH  16   4
ENDBRANCH  10  16
TORSDOF 7
ENDMDL
MODEL 3
REMARK VINA RESULT:       0.3      1.367      4.661
REMARK  Name = 40722264
REMARK  8 active torsions:
REMARK  status: ('A' for Active; 'I' for Inactive)
REMARK    1  A    between atoms: O_2  and  C_23
REMARK    2  A    between atoms: O_2  and  C_32
REMARK    3  A    between atoms: N_4  and  C_16
REMARK    4  A    between atoms: N_5  and  C_19
REMARK    5  A    between atoms: C_10  and  C_16
REMARK    6  A    between atoms: C_11  and  C_17
REMARK    7  A    between atoms: C_19  and  C_21
REMARK    8  A    between atoms: C_20  and  C_22
REMARK                            x       y       z     vdW  Elec       q    Type
REMARK                         _______ _______ _______ _____ _____    ______ ____
ROOT
ATOM      3  N   UNL     1      -2.933  -2.321  23.856  0.00  0.00    -0.297 NA
ATOM      9  C   UNL     1      -3.304  -1.088  26.118  0.00  0.00    +0.005 C 
ATOM     10  C   UNL     1      -1.735  -1.505  24.193  0.00  0.00    +0.078 C 
ATOM     11  C   UNL     1      -4.470  -0.832  25.146  0.00  0.00    +0.092 C 
ATOM     12  C   UNL     1      -1.986  -0.645  25.451  0.00  0.00    +0.025 C 
ATOM     13  C   UNL     1      -3.223  -2.611  26.324  0.00  0.00    +0.020 C 
ATOM     14  C   UNL     1      -4.137  -1.457  23.779  0.00  0.00    +0.097 C 
ATOM     15  C   UNL     1      -3.136  -3.303  24.951  0.00  0.00    +0.085 C 
ENDROOT
BRANCH  11  17
ATOM      1  O   UNL     1      -5.551   1.200  25.783  0.00  0.00    -0.275 OA
ATOM      5  N   UNL     1      -4.109   1.215  23.955  0.00  0.00    -0.311 N 
ATOM     17  C   UNL     1      -4.776   0.631  25.018  0.00  0.00    +0.218 C 
ATOM     33  H   UNL     1      -3.491   0.649  23.382  0.00  0.00    +0.149 HD
BRANCH   5  19
ATOM     19  C   UNL     1      -4.250   2.610  23.604  0.00  0.00    +0.143 C 
BRANCH  19  21
ATOM     21  C   UNL     1      -3.157   3.452  24.197  0.00  0.00    +0.011 A 
ATOM     23  C   UNL     1      -3.343   4.102  25.418  0.00  0.00    +0.125 A 
ATOM     24  C   UNL     1      -1.949   3.582  23.514  0.00  0.00    +0.009 A 
ATOM     26  C   UNL     1      -2.317   4.882  25.954  0.00  0.00    +0.046 A 
ATOM     27  C   UNL     1      -0.925   4.361  24.050  0.00  0.00    +0.001 A 
ATOM     28  C   UNL     1      -1.109   5.011  25.271  0.00  0.00    +0.004 A 
BRANCH  23   2
ATOM      2  O   UNL     1      -4.517   3.988  26.098  0.00  0.00    -0.495 OA
ATOM     32  C   UNL     1      -5.659   4.625  25.530  0.00  0.00    +0.277 C 
ENDBRANCH  23   2
ENDBRANCH  19  21
ENDBRANCH   5  19
ENDBRANCH  11  17
BRANCH  10  16
ATOM     16  C   UNL     1      -1.254  -0.660  23.011  0.00  0.00    +0.164 C 
BRANCH  16   4
ATOM      4  N   UNL     1       0.145  -0.153  23.229  0.00  0.00    -0.250 N 
ATOM      6  N   UNL     1       0.364   1.129  23.561  0.00  0.00    -0.065 NA
ATOM      7  N   UNL     1       1.678   1.284  23.687  0.00  0.00    -0.128 NA
ATOM     18  C   UNL     1       1.308  -0.853  23.133  0.00  0.00    +0.140 A 
ATOM     20  C   UNL     1       2.269   0.079  23.427  0.00  0.00    +0.131 A 
BRANCH  20  22
ATOM      8  N   UNL     1       4.052  -1.389  23.877  0.00  0.00    -0.253 NA
ATOM     22  C   UNL     1       3.676  -0.159  23.461  0.00  0.00    +0.092 A 
ATOM     25  C   UNL     1       4.564   0.836  23.084  0.00  0.00    +0.030 A 
ATOM     29  C   UNL     1       5.923   0.551  23.137  0.00  0.00    +0.004 A 
ATOM     30  C   UNL     1       5.382  -1.631  23.915  0.00  0.00    +0.111 A 
ATOM     31  C   UNL     1       6.349  -0.705  23.559  0.00  0.00    +0.020 A 
ENDBRANCH  20  22
ENDBRANCH  16   4
ENDBRANCH  10  16
TORSDOF 7
ENDMDL
MODEL 4
REMARK VINA RESULT:       1.0      1.274      1.766
REMARK  Name = 40722264
REMARK  8 active torsions:
REMARK  status: ('A' for Active; 'I' for Inactive)
REMARK    1  A    between atoms: O_2  and  C_23
REMARK    2  A    between atoms: O_2  and  C_32
REMARK    3  A    between atoms: N_4  and  C_16
REMARK    4  A    between atoms: N_5  and  C_19
REMARK    5  A    between atoms: C_10  and  C_16
REMARK    6  A    between atoms: C_11  and  C_17
REMARK    7  A    between atoms: C_19  and  C_21
REMARK    8  A    between atoms: C_20  and  C_22
REMARK                            x       y       z     vdW  Elec       q    Type
REMARK                         _______ _______ _______ _____ _____    ______ ____
ROOT
ATOM      3  N   UNL     1      -2.599   4.208  25.120  0.00  0.00    -0.297 NA
ATOM      9  C   UNL     1      -4.244   3.352  23.294  0.00  0.00    +0.005 C 
ATOM     10  C   UNL     1      -1.944   3.153  24.299  0.00  0.00    +0.078 C 
ATOM     11  C   UNL     1      -4.889   3.302  24.692  0.00  0.00    +0.092 C 
ATOM     12  C   UNL     1      -2.946   2.521  23.308  0.00  0.00    +0.025 C 
ATOM     13  C   UNL     1      -3.848   4.817  23.039  0.00  0.00    +0.020 C 
ATOM     14  C   UNL     1      -3.834   3.677  25.749  0.00  0.00    +0.097 C 
ATOM     15  C   UNL     1      -2.983   5.317  24.211  0.00  0.00    +0.085 C 
ENDROOT
BRANCH  11  17
ATOM      1  O   UNL     1      -6.708   1.771  24.911  0.00  0.00    -0.275 OA
ATOM      5  N   UNL     1      -4.543   1.018  25.326  0.00  0.00    -0.311 N 
ATOM     17  C   UNL     1      -5.496   1.961  24.976  0.00  0.00    +0.218 C 
ATOM     33  H   UNL     1      -3.564   1.284  25.353  0.00  0.00    +0.149 HD
BRANCH   5  19
ATOM     19  C   UNL     1      -4.872  -0.347  25.670  0.00  0.00    +0.143 C 
BRANCH  19  21
ATOM     21  C   UNL     1      -3.947  -1.330  25.012  0.00  0.00    +0.011 A 
ATOM     23  C   UNL     1      -2.603  -1.399  25.380  0.00  0.00    +0.125 A 
ATOM     24  C   UNL     1      -4.445  -2.179  24.025  0.00  0.00    +0.009 A 
ATOM     26  C   UNL     1      -1.757  -2.318  24.758  0.00  0.00    +0.046 A 
ATOM     27  C   UNL     1      -3.599  -3.098  23.404  0.00  0.00    +0.001 A 
ATOM     28  C   UNL     1      -2.255  -3.167  23.771  0.00  0.00    +0.004 A 
BRANCH  23   2
ATOM      2  O   UNL     1      -2.099  -0.577  26.342  0.00  0.00    -0.495 OA
ATOM     32  C   UNL     1      -0.780  -0.854  26.806  0.00  0.00    +0.277 C 
ENDBRANCH  23   2
ENDBRANCH  19  21
ENDBRANCH   5  19
ENDBRANCH  11  17
BRANCH  10  16
ATOM     16  C   UNL     1      -1.247   2.096  25.158  0.00  0.00    +0.164 C 
BRANCH  16   4
ATOM      4  N   UNL     1      -0.184   1.370  24.383  0.00  0.00    -0.250 N 
ATOM      6  N   UNL     1      -0.505   0.627  23.311  0.00  0.00    -0.065 NA
ATOM      7  N   UNL     1       0.624   0.112  22.836  0.00  0.00    -0.128 NA
ATOM     18  C   UNL     1       1.155   1.352  24.623  0.00  0.00    +0.140 A 
ATOM     20  C   UNL     1       1.650   0.547  23.628  0.00  0.00    +0.131 A 
BRANCH  20  22
ATOM      8  N   UNL     1       3.816   1.206  22.989  0.00  0.00    -0.253 NA
ATOM     22  C   UNL     1       3.023   0.208  23.439  0.00  0.00    +0.092 A 
ATOM     25  C   UNL     1       3.471  -1.076  23.710  0.00  0.00    +0.030 A 
ATOM     29  C   UNL     1       4.818  -1.352  23.508  0.00  0.00    +0.004 A 
ATOM     30  C   UNL     1       5.121   0.900  22.804  0.00  0.00    +0.111 A 
ATOM     31  C   UNL     1       5.666  -0.351  23.045  0.00  0.00    +0.020 A 
ENDBRANCH  20  22
ENDBRANCH  16   4
ENDBRANCH  10  16
TORSDOF 7
ENDMDL
MODEL 5
REMARK VINA RESULT:       1.2      1.940      5.143
REMARK  Name = 40722264
REMARK  8 active torsions:
REMARK  status: ('A' for Active; 'I' for Inactive)
REMARK    1  A    between atoms: O_2  and  C_23
REMARK    2  A    between atoms: O_2  and  C_32
REMARK    3  A    between atoms: N_4  and  C_16
REMARK    4  A    between atoms: N_5  and  C_19
REMARK    5  A    between atoms: C_10  and  C_16
REMARK    6  A    between atoms: C_11  and  C_17
REMARK    7  A    between atoms: C_19  and  C_21
REMARK    8  A    between atoms: C_20  and  C_22
REMARK                            x       y       z     vdW  Elec       q    Type
REMARK                         _______ _______ _______ _____ _____    ______ ____
ROOT
ATOM      3  N   UNL     1      -2.447  -2.295  24.799  0.00  0.00    -0.297 NA
ATOM      9  C   UNL     1      -4.469  -0.904  23.933  0.00  0.00    +0.005 C 
ATOM     10  C   UNL     1      -3.030  -1.498  25.912  0.00  0.00    +0.078 C 
ATOM     11  C   UNL     1      -3.221  -0.674  23.061  0.00  0.00    +0.092 C 
ATOM     12  C   UNL     1      -4.134  -0.549  25.396  0.00  0.00    +0.025 C 
ATOM     13  C   UNL     1      -4.774  -2.411  23.886  0.00  0.00    +0.020 C 
ATOM     14  C   UNL     1      -2.020  -1.399  23.696  0.00  0.00    +0.097 C 
ATOM     15  C   UNL     1      -3.507  -3.195  24.281  0.00  0.00    +0.085 C 
ENDROOT
BRANCH  11  17
ATOM      1  O   UNL     1      -1.829   1.193  22.534  0.00  0.00    -0.275 OA
ATOM      5  N   UNL     1      -4.048   1.573  23.128  0.00  0.00    -0.311 N 
ATOM     17  C   UNL     1      -2.939   0.786  22.868  0.00  0.00    +0.218 C 
ATOM     33  H   UNL     1      -4.920   1.131  23.403  0.00  0.00    +0.149 HD
BRANCH   5  19
ATOM     19  C   UNL     1      -4.033   3.015  23.037  0.00  0.00    +0.143 C 
BRANCH  19  21
ATOM     21  C   UNL     1      -3.575   3.655  24.316  0.00  0.00    +0.011 A 
ATOM     23  C   UNL     1      -4.405   3.677  25.438  0.00  0.00    +0.125 A 
ATOM     24  C   UNL     1      -2.306   4.230  24.375  0.00  0.00    +0.009 A 
ATOM     26  C   UNL     1      -3.963   4.276  26.618  0.00  0.00    +0.046 A 
ATOM     27  C   UNL     1      -1.866   4.829  25.555  0.00  0.00    +0.001 A 
ATOM     28  C   UNL     1      -2.695   4.852  26.677  0.00  0.00    +0.004 A 
BRANCH  23   2
ATOM      2  O   UNL     1      -5.647   3.121  25.398  0.00  0.00    -0.495 OA
ATOM     32  C   UNL     1      -5.992   2.231  26.457  0.00  0.00    +0.277 C 
ENDBRANCH  23   2
ENDBRANCH  19  21
ENDBRANCH   5  19
ENDBRANCH  11  17
BRANCH  10  16
ATOM     16  C   UNL     1      -1.964  -0.749  26.714  0.00  0.00    +0.164 C 
BRANCH  16   4
ATOM      4  N   UNL     1      -0.997  -0.034  25.812  0.00  0.00    -0.250 N 
ATOM      6  N   UNL     1      -0.945   1.307  25.790  0.00  0.00    -0.065 NA
ATOM      7  N   UNL     1      -0.009   1.651  24.911  0.00  0.00    -0.128 NA
ATOM     18  C   UNL     1      -0.100  -0.586  24.950  0.00  0.00    +0.140 A 
ATOM     20  C   UNL     1       0.517   0.503  24.388  0.00  0.00    +0.131 A 
BRANCH  20  22
ATOM      8  N   UNL     1       2.654   1.189  23.682  0.00  0.00    -0.253 NA
ATOM     22  C   UNL     1       1.552   0.457  23.405  0.00  0.00    +0.092 A 
ATOM     25  C   UNL     1       1.392  -0.301  22.256  0.00  0.00    +0.030 A 
ATOM     29  C   UNL     1       2.431  -0.309  21.332  0.00  0.00    +0.004 A 
ATOM     30  C   UNL     1       3.643   1.156  22.760  0.00  0.00    +0.111 A 
ATOM     31  C   UNL     1       3.582   0.431  21.581  0.00  0.00    +0.020 A 
ENDBRANCH  20  22
ENDBRANCH  16   4
ENDBRANCH  10  16
TORSDOF 7
ENDMDL
MODEL 6
REMARK VINA RESULT:       1.8      1.343      2.282
REMARK  Name = 40722264
REMARK  8 active torsions:
REMARK  status: ('A' for Active; 'I' for Inactive)
REMARK    1  A    between atoms: O_2  and  C_23
REMARK    2  A    between atoms: O_2  and  C_32
REMARK    3  A    between atoms: N_4  and  C_16
REMARK    4  A    between atoms: N_5  and  C_19
REMARK    5  A    between atoms: C_10  and  C_16
REMARK    6  A    between atoms: C_11  and  C_17
REMARK    7  A    between atoms: C_19  and  C_21
REMARK    8  A    between atoms: C_20  and  C_22
REMARK                            x       y       z     vdW  Elec       q    Type
REMARK                         _______ _______ _______ _____ _____    ______ ____
ROOT
ATOM      3  N   UNL     1      -0.354   3.550  23.509  0.00  0.00    -0.297 NA
ATOM      9  C   UNL     1      -1.675   3.757  25.742  0.00  0.00    +0.005 C 
ATOM     10  C   UNL     1      -1.745   3.056  23.324  0.00  0.00    +0.078 C 
ATOM     11  C   UNL     1      -0.346   3.007  25.948  0.00  0.00    +0.092 C 
ATOM     12  C   UNL     1      -2.505   3.025  24.668  0.00  0.00    +0.025 C 
ATOM     13  C   UNL     1      -1.320   5.144  25.178  0.00  0.00    +0.020 C 
ATOM     14  C   UNL     1       0.326   2.783  24.582  0.00  0.00    +0.097 C 
ATOM     15  C   UNL     1      -0.429   4.971  23.933  0.00  0.00    +0.085 C 
ENDROOT
BRANCH  11  17
ATOM      1  O   UNL     1      -0.019   1.494  27.766  0.00  0.00    -0.275 OA
ATOM      5  N   UNL     1      -1.355   0.834  25.977  0.00  0.00    -0.311 N 
ATOM     17  C   UNL     1      -0.547   1.713  26.679  0.00  0.00    +0.218 C 
ATOM     33  H   UNL     1      -1.738   1.117  25.080  0.00  0.00    +0.149 HD
BRANCH   5  19
ATOM     19  C   UNL     1      -1.685  -0.489  26.454  0.00  0.00    +0.143 C 
BRANCH  19  21
ATOM     21  C   UNL     1      -2.631  -1.201  25.530  0.00  0.00    +0.011 A 
ATOM     23  C   UNL     1      -3.778  -0.563  25.056  0.00  0.00    +0.125 A 
ATOM     24  C   UNL     1      -2.353  -2.512  25.147  0.00  0.00    +0.009 A 
ATOM     26  C   UNL     1      -4.647  -1.239  24.199  0.00  0.00    +0.046 A 
ATOM     27  C   UNL     1      -3.222  -3.187  24.290  0.00  0.00    +0.001 A 
ATOM     28  C   UNL     1      -4.369  -2.550  23.816  0.00  0.00    +0.004 A 
BRANCH  23   2
ATOM      2  O   UNL     1      -4.065   0.718  25.421  0.00  0.00    -0.495 OA
ATOM     32  C   UNL     1      -5.351   1.220  25.062  0.00  0.00    +0.277 C 
ENDBRANCH  23   2
ENDBRANCH  19  21
ENDBRANCH   5  19
ENDBRANCH  11  17
BRANCH  10  16
ATOM     16  C   UNL     1      -1.793   1.703  22.611  0.00  0.00    +0.164 C 
BRANCH  16   4
ATOM      4  N   UNL     1      -0.587   0.866  22.936  0.00  0.00    -0.250 N 
ATOM      6  N   UNL     1      -0.728  -0.380  23.417  0.00  0.00    -0.065 NA
ATOM      7  N   UNL     1       0.493  -0.869  23.607  0.00  0.00    -0.128 NA
ATOM     18  C   UNL     1       0.724   1.209  22.806  0.00  0.00    +0.140 A 
ATOM     20  C   UNL     1       1.392   0.092  23.238  0.00  0.00    +0.131 A 
BRANCH  20  22
ATOM      8  N   UNL     1       3.256  -1.261  23.721  0.00  0.00    -0.253 NA
ATOM     22  C   UNL     1       2.811  -0.057  23.298  0.00  0.00    +0.092 A 
ATOM     25  C   UNL     1       3.640   0.993  22.937  0.00  0.00    +0.030 A 
ATOM     29  C   UNL     1       5.014   0.795  23.015  0.00  0.00    +0.004 A 
ATOM     30  C   UNL     1       4.598  -1.418  23.783  0.00  0.00    +0.111 A 
ATOM     31  C   UNL     1       5.510  -0.431  23.446  0.00  0.00    +0.020 A 
ENDBRANCH  20  22
ENDBRANCH  16   4
ENDBRANCH  10  16
TORSDOF 7
ENDMDL
MODEL 7
REMARK VINA RESULT:       2.1      1.982      3.491
REMARK  Name = 40722264
REMARK  8 active torsions:
REMARK  status: ('A' for Active; 'I' for Inactive)
REMARK    1  A    between atoms: O_2  and  C_23
REMARK    2  A    between atoms: O_2  and  C_32
REMARK    3  A    between atoms: N_4  and  C_16
REMARK    4  A    between atoms: N_5  and  C_19
REMARK    5  A    between atoms: C_10  and  C_16
REMARK    6  A    between atoms: C_11  and  C_17
REMARK    7  A    between atoms: C_19  and  C_21
REMARK    8  A    between atoms: C_20  and  C_22
REMARK                            x       y       z     vdW  Elec       q    Type
REMARK                         _______ _______ _______ _____ _____    ______ ____
ROOT
ATOM      3  N   UNL     1      -4.158   4.331  25.540  0.00  0.00    -0.297 NA
ATOM      9  C   UNL     1      -3.979   3.024  23.296  0.00  0.00    +0.005 C 
ATOM     10  C   UNL     1      -2.729   4.179  25.152  0.00  0.00    +0.078 C 
ATOM     11  C   UNL     1      -4.845   2.262  24.317  0.00  0.00    +0.092 C 
ATOM     12  C   UNL     1      -2.586   3.277  23.907  0.00  0.00    +0.025 C 
ATOM     13  C   UNL     1      -4.643   4.396  23.086  0.00  0.00    +0.020 C 
ATOM     14  C   UNL     1      -4.800   2.999  25.668  0.00  0.00    +0.097 C 
ATOM     15  C   UNL     1      -4.846   5.074  24.454  0.00  0.00    +0.085 C 
ENDROOT
BRANCH  11  17
ATOM      1  O   UNL     1      -3.978   0.191  23.505  0.00  0.00    -0.275 OA
ATOM      5  N   UNL     1      -4.576   0.360  25.749  0.00  0.00    -0.311 N 
ATOM     17  C   UNL     1      -4.410   0.834  24.459  0.00  0.00    +0.218 C 
ATOM     33  H   UNL     1      -4.947   0.979  26.463  0.00  0.00    +0.149 HD
BRANCH   5  19
ATOM     19  C   UNL     1      -4.253  -0.992  26.142  0.00  0.00    +0.143 C 
BRANCH  19  21
ATOM     21  C   UNL     1      -2.897  -1.412  25.651  0.00  0.00    +0.011 A 
ATOM     23  C   UNL     1      -2.756  -2.510  24.802  0.00  0.00    +0.125 A 
ATOM     24  C   UNL     1      -1.773  -0.692  26.054  0.00  0.00    +0.009 A 
ATOM     26  C   UNL     1      -1.488  -2.886  24.356  0.00  0.00    +0.046 A 
ATOM     27  C   UNL     1      -0.507  -1.068  25.609  0.00  0.00    +0.001 A 
ATOM     28  C   UNL     1      -0.365  -2.166  24.759  0.00  0.00    +0.004 A 
BRANCH  23   2
ATOM      2  O   UNL     1      -3.843  -3.225  24.399  0.00  0.00    -0.495 OA
ATOM     32  C   UNL     1      -4.456  -2.836  23.172  0.00  0.00    +0.277 C 
ENDBRANCH  23   2
ENDBRANCH  19  21
ENDBRANCH   5  19
ENDBRANCH  11  17
BRANCH  10  16
ATOM     16  C   UNL     1      -1.860   3.690  26.313  0.00  0.00    +0.164 C 
BRANCH  16   4
ATOM      4  N   UNL     1      -0.661   2.928  25.821  0.00  0.00    -0.250 N 
ATOM      6  N   UNL     1       0.373   2.676  26.640  0.00  0.00    -0.065 NA
ATOM      7  N   UNL     1       1.273   1.995  25.938  0.00  0.00    -0.128 NA
ATOM     18  C   UNL     1      -0.454   2.417  24.577  0.00  0.00    +0.140 A 
ATOM     20  C   UNL     1       0.782   1.828  24.674  0.00  0.00    +0.131 A 
BRANCH  20  22
ATOM      8  N   UNL     1       2.784   1.400  23.515  0.00  0.00    -0.253 NA
ATOM     22  C   UNL     1       1.461   1.144  23.621  0.00  0.00    +0.092 A 
ATOM     25  C   UNL     1       0.768   0.282  22.786  0.00  0.00    +0.030 A 
ATOM     29  C   UNL     1       1.478  -0.358  21.777  0.00  0.00    +0.004 A 
ATOM     30  C   UNL     1       3.442   0.759  22.522  0.00  0.00    +0.111 A 
ATOM     31  C   UNL     1       2.842  -0.121  21.636  0.00  0.00    +0.020 A 
ENDBRANCH  20  22
ENDBRANCH  16   4
ENDBRANCH  10  16
TORSDOF 7
ENDMDL
MODEL 8
REMARK VINA RESULT:       2.9      3.150      5.781
REMARK  Name = 40722264
REMARK  8 active torsions:
REMARK  status: ('A' for Active; 'I' for Inactive)
REMARK    1  A    between atoms: O_2  and  C_23
REMARK    2  A    between atoms: O_2  and  C_32
REMARK    3  A    between atoms: N_4  and  C_16
REMARK    4  A    between atoms: N_5  and  C_19
REMARK    5  A    between atoms: C_10  and  C_16
REMARK    6  A    between atoms: C_11  and  C_17
REMARK    7  A    between atoms: C_19  and  C_21
REMARK    8  A    between atoms: C_20  and  C_22
REMARK                            x       y       z     vdW  Elec       q    Type
REMARK                         _______ _______ _______ _____ _____    ______ ____
ROOT
ATOM      3  N   UNL     1      -2.674  -1.671  23.586  0.00  0.00    -0.297 NA
ATOM      9  C   UNL     1      -3.424  -1.480  26.071  0.00  0.00    +0.005 C 
ATOM     10  C   UNL     1      -1.636  -0.956  24.377  0.00  0.00    +0.078 C 
ATOM     11  C   UNL     1      -4.517  -0.961  25.118  0.00  0.00    +0.092 C 
ATOM     12  C   UNL     1      -2.121  -0.694  25.819  0.00  0.00    +0.025 C 
ATOM     13  C   UNL     1      -3.156  -2.945  25.685  0.00  0.00    +0.020 C 
ATOM     14  C   UNL     1      -3.972  -0.958  23.678  0.00  0.00    +0.097 C 
ATOM     15  C   UNL     1      -2.846  -3.021  24.178  0.00  0.00    +0.085 C 
ENDROOT
BRANCH  11  17
ATOM      1  O   UNL     1      -5.453   0.620  26.644  0.00  0.00    -0.275 OA
ATOM      5  N   UNL     1      -4.904   1.319  24.492  0.00  0.00    -0.311 N 
ATOM     17  C   UNL     1      -5.005   0.399  25.521  0.00  0.00    +0.218 C 
ATOM     33  H   UNL     1      -4.520   1.028  23.598  0.00  0.00    +0.149 HD
BRANCH   5  19
ATOM     19  C   UNL     1      -5.329   2.695  24.617  0.00  0.00    +0.143 C 
BRANCH  19  21
ATOM     21  C   UNL     1      -4.169   3.624  24.834  0.00  0.00    +0.011 A 
ATOM     23  C   UNL     1      -3.378   4.038  23.761  0.00  0.00    +0.125 A 
ATOM     24  C   UNL     1      -3.885   4.071  26.124  0.00  0.00    +0.009 A 
ATOM     26  C   UNL     1      -2.304   4.901  23.981  0.00  0.00    +0.046 A 
ATOM     27  C   UNL     1      -2.811   4.933  26.342  0.00  0.00    +0.001 A 
ATOM     28  C   UNL     1      -2.020   5.348  25.270  0.00  0.00    +0.004 A 
BRANCH  23   2
ATOM      2  O   UNL     1      -3.641   3.611  22.495  0.00  0.00    -0.495 OA
ATOM     32  C   UNL     1      -2.832   2.551  21.989  0.00  0.00    +0.277 C 
ENDBRANCH  23   2
ENDBRANCH  19  21
ENDBRANCH   5  19
ENDBRANCH  11  17
BRANCH  10  16
ATOM     16  C   UNL     1      -1.165   0.329  23.692  0.00  0.00    +0.164 C 
BRANCH  16   4
ATOM      4  N   UNL     1      -0.512   1.267  24.669  0.00  0.00    -0.250 N 
ATOM      6  N   UNL     1      -0.199   2.522  24.308  0.00  0.00    -0.065 NA
ATOM      7  N   UNL     1       0.357   3.108  25.363  0.00  0.00    -0.128 NA
ATOM     18  C   UNL     1      -0.168   1.015  25.961  0.00  0.00    +0.140 A 
ATOM     20  C   UNL     1       0.384   2.198  26.383  0.00  0.00    +0.131 A 
BRANCH  20  22
ATOM      8  N   UNL     1       2.222   2.765  27.737  0.00  0.00    -0.253 NA
ATOM     22  C   UNL     1       0.908   2.452  27.686  0.00  0.00    +0.092 A 
ATOM     25  C   UNL     1       0.086   2.371  28.799  0.00  0.00    +0.030 A 
ATOM     29  C   UNL     1       0.649   2.628  30.044  0.00  0.00    +0.004 A 
ATOM     30  C   UNL     1       2.734   3.008  28.965  0.00  0.00    +0.111 A 
ATOM     31  C   UNL     1       1.998   2.953  30.137  0.00  0.00    +0.020 A 
ENDBRANCH  20  22
ENDBRANCH  16   4
ENDBRANCH  10  16
TORSDOF 7
ENDMDL
