MODEL 1
REMARK VINA RESULT:      -1.3      0.000      0.000
REMARK  Name = 25313746
REMARK  11 active torsions:
REMARK  status: ('A' for Active; 'I' for Inactive)
REMARK    1  A    between atoms: O_3  and  C_26
REMARK    2  A    between atoms: O_3  and  C_32
REMARK    3  A    between atoms: O_4  and  C_28
REMARK    4  A    between atoms: O_4  and  C_33
REMARK    5  A    between atoms: N_6  and  C_20
REMARK    6  A    between atoms: C_9  and  C_15
REMARK    7  A    between atoms: C_10  and  C_14
REMARK    8  A    between atoms: C_14  and  C_16
REMARK    9  A    between atoms: C_15  and  C_17
REMARK   10  A    between atoms: C_19  and  C_22
REMARK   11  A    between atoms: C_20  and  C_21
REMARK                            x       y       z     vdW  Elec       q    Type
REMARK                         _______ _______ _______ _____ _____    ______ ____
ROOT
ATOM      5  N   UNL     1      -0.188   4.667  24.803  0.00  0.00    -0.316 NA
ATOM      9  C   UNL     1      -3.072   4.364  25.209  0.00  0.00    +0.004 C 
ATOM     10  C   UNL     1      -2.140   3.137  25.070  0.00  0.00    +0.012 C 
ATOM     11  C   UNL     1      -2.466   5.596  24.519  0.00  0.00    +0.019 C 
ATOM     12  C   UNL     1      -0.722   3.517  25.537  0.00  0.00    +0.085 C 
ATOM     13  C   UNL     1      -1.033   5.848  24.983  0.00  0.00    +0.081 C 
ATOM     34  H   UNL     1      -0.117   4.447  23.812  0.00  0.00    +0.122 HD
ENDROOT
BRANCH  10  14
ATOM     14  C   UNL     1      -2.105   2.539  23.657  0.00  0.00    +0.064 C 
BRANCH  14  16
ATOM      2  O   UNL     1       0.184  -0.166  23.020  0.00  0.00    -0.353 OA
ATOM      7  N   UNL     1      -1.096   0.370  23.093  0.00  0.00    -0.083 NA
ATOM     16  C   UNL     1      -0.917   1.639  23.473  0.00  0.00    +0.085 A 
ATOM     18  C   UNL     1       0.439   1.956  23.655  0.00  0.00    +0.077 A 
ATOM     19  C   UNL     1       1.090   0.788  23.357  0.00  0.00    +0.186 A 
BRANCH  19  22
ATOM      8  N   UNL     1       3.339   1.359  23.018  0.00  0.00    -0.252 NA
ATOM     22  C   UNL     1       2.464   0.377  23.328  0.00  0.00    +0.109 A 
ATOM     25  C   UNL     1       2.829  -0.932  23.601  0.00  0.00    +0.031 A 
ATOM     29  C   UNL     1       4.181  -1.252  23.553  0.00  0.00    +0.004 A 
ATOM     30  C   UNL     1       4.645   1.010  22.982  0.00  0.00    +0.111 A 
ATOM     31  C   UNL     1       5.113  -0.269  23.238  0.00  0.00    +0.020 A 
ENDBRANCH  19  22
ENDBRANCH  14  16
ENDBRANCH  10  14
BRANCH   9  15
ATOM     15  C   UNL     1      -4.493   4.105  24.710  0.00  0.00    +0.099 C 
BRANCH  15  17
ATOM      1  O   UNL     1      -5.511   2.724  26.415  0.00  0.00    -0.276 OA
ATOM      6  N   UNL     1      -5.043   1.806  24.332  0.00  0.00    -0.311 N 
ATOM     17  C   UNL     1      -5.074   2.826  25.272  0.00  0.00    +0.214 C 
ATOM     35  H   UNL     1      -4.653   1.984  23.411  0.00  0.00    +0.149 HD
BRANCH   6  20
ATOM     20  C   UNL     1      -5.532   0.472  24.598  0.00  0.00    +0.139 C 
BRANCH  20  21
ATOM     21  C   UNL     1      -4.414  -0.522  24.722  0.00  0.00    -0.027 A 
ATOM     23  C   UNL     1      -3.386  -0.303  25.639  0.00  0.00    +0.054 A 
ATOM     24  C   UNL     1      -4.404  -1.664  23.921  0.00  0.00    +0.009 A 
ATOM     26  C   UNL     1      -2.346  -1.227  25.755  0.00  0.00    +0.162 A 
ATOM     27  C   UNL     1      -3.364  -2.587  24.037  0.00  0.00    +0.050 A 
ATOM     28  C   UNL     1      -2.336  -2.368  24.954  0.00  0.00    +0.162 A 
BRANCH  26   3
ATOM      3  O   UNL     1      -1.349  -1.003  26.656  0.00  0.00    -0.491 OA
ATOM     32  C   UNL     1      -0.724   0.279  26.624  0.00  0.00    +0.277 C 
ENDBRANCH  26   3
BRANCH  28   4
ATOM      4  O   UNL     1      -1.327  -3.278  25.058  0.00  0.00    -0.491 OA
ATOM     33  C   UNL     1       0.001  -2.765  25.142  0.00  0.00    +0.277 C 
ENDBRANCH  28   4
ENDBRANCH  20  21
ENDBRANCH   6  20
ENDBRANCH  15  17
ENDBRANCH   9  15
TORSDOF 9
ENDMDL
MODEL 2
REMARK VINA RESULT:      -0.2      0.594      1.649
REMARK  Name = 25313746
REMARK  11 active torsions:
REMARK  status: ('A' for Active; 'I' for Inactive)
REMARK    1  A    between atoms: O_3  and  C_26
REMARK    2  A    between atoms: O_3  and  C_32
REMARK    3  A    between atoms: O_4  and  C_28
REMARK    4  A    between atoms: O_4  and  C_33
REMARK    5  A    between atoms: N_6  and  C_20
REMARK    6  A    between atoms: C_9  and  C_15
REMARK    7  A    between atoms: C_10  and  C_14
REMARK    8  A    between atoms: C_14  and  C_16
REMARK    9  A    between atoms: C_15  and  C_17
REMARK   10  A    between atoms: C_19  and  C_22
REMARK   11  A    between atoms: C_20  and  C_21
REMARK                            x       y       z     vdW  Elec       q    Type
REMARK                         _______ _______ _______ _____ _____    ______ ____
ROOT
ATOM      5  N   UNL     1      -0.162   4.795  24.784  0.00  0.00    -0.316 NA
ATOM      9  C   UNL     1      -3.032   4.500  25.283  0.00  0.00    +0.004 C 
ATOM     10  C   UNL     1      -2.104   3.271  25.140  0.00  0.00    +0.012 C 
ATOM     11  C   UNL     1      -2.448   5.719  24.553  0.00  0.00    +0.019 C 
ATOM     12  C   UNL     1      -0.673   3.659  25.556  0.00  0.00    +0.085 C 
ATOM     13  C   UNL     1      -1.000   5.979  24.968  0.00  0.00    +0.081 C 
ATOM     34  H   UNL     1      -0.121   4.556  23.795  0.00  0.00    +0.122 HD
ENDROOT
BRANCH  10  14
ATOM     14  C   UNL     1      -2.113   2.647  23.738  0.00  0.00    +0.064 C 
BRANCH  14  16
ATOM      2  O   UNL     1       0.134  -0.087  23.072  0.00  0.00    -0.353 OA
ATOM      7  N   UNL     1      -1.138   0.465  23.160  0.00  0.00    -0.083 NA
ATOM     16  C   UNL     1      -0.939   1.731  23.540  0.00  0.00    +0.085 A 
ATOM     18  C   UNL     1       0.424   2.031  23.706  0.00  0.00    +0.077 A 
ATOM     19  C   UNL     1       1.056   0.854  23.400  0.00  0.00    +0.186 A 
BRANCH  19  22
ATOM      8  N   UNL     1       3.309   1.398  23.039  0.00  0.00    -0.252 NA
ATOM     22  C   UNL     1       2.424   0.426  23.354  0.00  0.00    +0.109 A 
ATOM     25  C   UNL     1       2.775  -0.888  23.619  0.00  0.00    +0.031 A 
ATOM     29  C   UNL     1       4.122  -1.226  23.556  0.00  0.00    +0.004 A 
ATOM     30  C   UNL     1       4.609   1.031  22.987  0.00  0.00    +0.111 A 
ATOM     31  C   UNL     1       5.063  -0.254  23.234  0.00  0.00    +0.020 A 
ENDBRANCH  19  22
ENDBRANCH  14  16
ENDBRANCH  10  14
BRANCH   9  15
ATOM     15  C   UNL     1      -4.468   4.233  24.834  0.00  0.00    +0.099 C 
BRANCH  15  17
ATOM      1  O   UNL     1      -5.469   2.863  26.558  0.00  0.00    -0.276 OA
ATOM      6  N   UNL     1      -4.953   1.913  24.501  0.00  0.00    -0.311 N 
ATOM     17  C   UNL     1      -5.022   2.952  25.417  0.00  0.00    +0.214 C 
ATOM     35  H   UNL     1      -4.558   2.081  23.580  0.00  0.00    +0.149 HD
BRANCH   6  20
ATOM     20  C   UNL     1      -5.412   0.573  24.790  0.00  0.00    +0.139 C 
BRANCH  20  21
ATOM     21  C   UNL     1      -4.271  -0.392  24.934  0.00  0.00    -0.027 A 
ATOM     23  C   UNL     1      -4.275  -1.588  24.216  0.00  0.00    +0.054 A 
ATOM     24  C   UNL     1      -3.206  -0.092  25.784  0.00  0.00    +0.009 A 
ATOM     26  C   UNL     1      -3.215  -2.486  24.349  0.00  0.00    +0.162 A 
ATOM     27  C   UNL     1      -2.146  -0.990  25.916  0.00  0.00    +0.050 A 
ATOM     28  C   UNL     1      -2.150  -2.186  25.199  0.00  0.00    +0.162 A 
BRANCH  26   3
ATOM      3  O   UNL     1      -3.230  -3.649  23.641  0.00  0.00    -0.491 OA
ATOM     32  C   UNL     1      -4.430  -3.963  22.936  0.00  0.00    +0.277 C 
ENDBRANCH  26   3
BRANCH  28   4
ATOM      4  O   UNL     1      -1.109  -3.053  25.336  0.00  0.00    -0.491 OA
ATOM     33  C   UNL     1       0.193  -2.488  25.466  0.00  0.00    +0.277 C 
ENDBRANCH  28   4
ENDBRANCH  20  21
ENDBRANCH   6  20
ENDBRANCH  15  17
ENDBRANCH   9  15
TORSDOF 9
ENDMDL
MODEL 3
REMARK VINA RESULT:      -0.0      1.970      4.546
REMARK  Name = 25313746
REMARK  11 active torsions:
REMARK  status: ('A' for Active; 'I' for Inactive)
REMARK    1  A    between atoms: O_3  and  C_26
REMARK    2  A    between atoms: O_3  and  C_32
REMARK    3  A    between atoms: O_4  and  C_28
REMARK    4  A    between atoms: O_4  and  C_33
REMARK    5  A    between atoms: N_6  and  C_20
REMARK    6  A    between atoms: C_9  and  C_15
REMARK    7  A    between atoms: C_10  and  C_14
REMARK    8  A    between atoms: C_14  and  C_16
REMARK    9  A    between atoms: C_15  and  C_17
REMARK   10  A    between atoms: C_19  and  C_22
REMARK   11  A    between atoms: C_20  and  C_21
REMARK                            x       y       z     vdW  Elec       q    Type
REMARK                         _______ _______ _______ _____ _____    ______ ____
ROOT
ATOM      5  N   UNL     1      -0.569  -1.313  25.840  0.00  0.00    -0.316 NA
ATOM      9  C   UNL     1      -3.358  -1.592  24.993  0.00  0.00    +0.004 C 
ATOM     10  C   UNL     1      -2.186  -1.797  24.003  0.00  0.00    +0.012 C 
ATOM     11  C   UNL     1      -2.942  -0.681  26.157  0.00  0.00    +0.019 C 
ATOM     12  C   UNL     1      -0.936  -2.255  24.780  0.00  0.00    +0.085 C 
ATOM     13  C   UNL     1      -1.650  -1.165  26.814  0.00  0.00    +0.081 C 
ATOM     34  H   UNL     1      -0.344  -0.405  25.440  0.00  0.00    +0.122 HD
ENDROOT
BRANCH  10  14
ATOM     14  C   UNL     1      -1.873  -0.563  23.147  0.00  0.00    +0.064 C 
BRANCH  14  16
ATOM      2  O   UNL     1       1.211   1.166  23.827  0.00  0.00    -0.353 OA
ATOM      7  N   UNL     1      -0.176   1.092  23.797  0.00  0.00    -0.083 NA
ATOM     16  C   UNL     1      -0.446  -0.126  23.319  0.00  0.00    +0.085 A 
ATOM     18  C   UNL     1       0.718  -0.858  23.033  0.00  0.00    +0.077 A 
ATOM     19  C   UNL     1       1.733  -0.001  23.369  0.00  0.00    +0.186 A 
BRANCH  19  22
ATOM      8  N   UNL     1       3.680  -1.244  23.779  0.00  0.00    -0.252 NA
ATOM     22  C   UNL     1       3.165  -0.073  23.342  0.00  0.00    +0.109 A 
ATOM     25  C   UNL     1       3.930   0.993  22.896  0.00  0.00    +0.031 A 
ATOM     29  C   UNL     1       5.313   0.847  22.898  0.00  0.00    +0.004 A 
ATOM     30  C   UNL     1       5.027  -1.349  23.767  0.00  0.00    +0.111 A 
ATOM     31  C   UNL     1       5.880  -0.344  23.341  0.00  0.00    +0.020 A 
ENDBRANCH  19  22
ENDBRANCH  14  16
ENDBRANCH  10  14
BRANCH   9  15
ATOM     15  C   UNL     1      -4.632  -1.076  24.325  0.00  0.00    +0.099 C 
BRANCH  15  17
ATOM      1  O   UNL     1      -4.067   1.100  23.431  0.00  0.00    -0.276 OA
ATOM      6  N   UNL     1      -5.483   0.953  25.268  0.00  0.00    -0.311 N 
ATOM     17  C   UNL     1      -4.676   0.435  24.266  0.00  0.00    +0.214 C 
ATOM     35  H   UNL     1      -5.940   0.322  25.920  0.00  0.00    +0.149 HD
BRANCH   6  20
ATOM     20  C   UNL     1      -5.706   2.370  25.450  0.00  0.00    +0.139 C 
BRANCH  20  21
ATOM     21  C   UNL     1      -4.439   3.161  25.298  0.00  0.00    -0.027 A 
ATOM     23  C   UNL     1      -3.362   2.923  26.153  0.00  0.00    +0.054 A 
ATOM     24  C   UNL     1      -4.338   4.134  24.303  0.00  0.00    +0.009 A 
ATOM     26  C   UNL     1      -2.185   3.658  26.012  0.00  0.00    +0.162 A 
ATOM     27  C   UNL     1      -3.161   4.869  24.163  0.00  0.00    +0.050 A 
ATOM     28  C   UNL     1      -2.084   4.631  25.017  0.00  0.00    +0.162 A 
BRANCH  26   3
ATOM      3  O   UNL     1      -1.139   3.415  26.851  0.00  0.00    -0.491 OA
ATOM     32  C   UNL     1      -0.256   2.354  26.494  0.00  0.00    +0.277 C 
ENDBRANCH  26   3
BRANCH  28   4
ATOM      4  O   UNL     1      -0.940   5.355  24.870  0.00  0.00    -0.491 OA
ATOM     33  C   UNL     1      -0.011   4.906  23.886  0.00  0.00    +0.277 C 
ENDBRANCH  28   4
ENDBRANCH  20  21
ENDBRANCH   6  20
ENDBRANCH  15  17
ENDBRANCH   9  15
TORSDOF 9
ENDMDL
MODEL 4
REMARK VINA RESULT:       1.5      1.491      2.002
REMARK  Name = 25313746
REMARK  11 active torsions:
REMARK  status: ('A' for Active; 'I' for Inactive)
REMARK    1  A    between atoms: O_3  and  C_26
REMARK    2  A    between atoms: O_3  and  C_32
REMARK    3  A    between atoms: O_4  and  C_28
REMARK    4  A    between atoms: O_4  and  C_33
REMARK    5  A    between atoms: N_6  and  C_20
REMARK    6  A    between atoms: C_9  and  C_15
REMARK    7  A    between atoms: C_10  and  C_14
REMARK    8  A    between atoms: C_14  and  C_16
REMARK    9  A    between atoms: C_15  and  C_17
REMARK   10  A    between atoms: C_19  and  C_22
REMARK   11  A    between atoms: C_20  and  C_21
REMARK                            x       y       z     vdW  Elec       q    Type
REMARK                         _______ _______ _______ _____ _____    ______ ____
ROOT
ATOM      5  N   UNL     1      -1.724   4.155  23.760  0.00  0.00    -0.316 NA
ATOM      9  C   UNL     1      -4.343   4.099  25.069  0.00  0.00    +0.004 C 
ATOM     10  C   UNL     1      -3.041   4.330  25.871  0.00  0.00    +0.012 C 
ATOM     11  C   UNL     1      -4.060   3.330  23.769  0.00  0.00    +0.019 C 
ATOM     12  C   UNL     1      -1.980   4.966  24.952  0.00  0.00    +0.085 C 
ATOM     13  C   UNL     1      -2.940   3.987  22.964  0.00  0.00    +0.081 C 
ATOM     34  H   UNL     1      -1.364   3.241  24.028  0.00  0.00    +0.122 HD
ENDROOT
BRANCH  10  14
ATOM     14  C   UNL     1      -2.491   3.064  26.541  0.00  0.00    +0.064 C 
BRANCH  14  16
ATOM      2  O   UNL     1       0.910   2.370  25.588  0.00  0.00    -0.353 OA
ATOM      7  N   UNL     1      -0.039   2.942  26.425  0.00  0.00    -0.083 NA
ATOM     16  C   UNL     1      -1.217   2.609  25.889  0.00  0.00    +0.085 A 
ATOM     18  C   UNL     1      -1.075   1.837  24.724  0.00  0.00    +0.077 A 
ATOM     19  C   UNL     1       0.282   1.714  24.578  0.00  0.00    +0.186 A 
BRANCH  19  22
ATOM      8  N   UNL     1       2.414   1.521  23.620  0.00  0.00    -0.252 NA
ATOM     22  C   UNL     1       1.140   1.069  23.627  0.00  0.00    +0.109 A 
ATOM     25  C   UNL     1       0.667   0.065  22.797  0.00  0.00    +0.031 A 
ATOM     29  C   UNL     1       1.561  -0.512  21.902  0.00  0.00    +0.004 A 
ATOM     30  C   UNL     1       3.253   0.936  22.736  0.00  0.00    +0.111 A 
ATOM     31  C   UNL     1       2.881  -0.074  21.864  0.00  0.00    +0.020 A 
ENDBRANCH  19  22
ENDBRANCH  14  16
ENDBRANCH  10  14
BRANCH   9  15
ATOM     15  C   UNL     1      -5.442   3.412  25.879  0.00  0.00    +0.099 C 
BRANCH  15  17
ATOM      1  O   UNL     1      -7.086   2.113  24.671  0.00  0.00    -0.276 OA
ATOM      6  N   UNL     1      -5.049   1.143  25.225  0.00  0.00    -0.311 N 
ATOM     17  C   UNL     1      -5.974   2.175  25.189  0.00  0.00    +0.214 C 
ATOM     35  H   UNL     1      -4.155   1.287  25.686  0.00  0.00    +0.149 HD
BRANCH   6  20
ATOM     20  C   UNL     1      -5.292  -0.158  24.643  0.00  0.00    +0.139 C 
BRANCH  20  21
ATOM     21  C   UNL     1      -4.061  -1.016  24.652  0.00  0.00    -0.027 A 
ATOM     23  C   UNL     1      -2.934  -0.610  25.366  0.00  0.00    +0.054 A 
ATOM     24  C   UNL     1      -4.044  -2.219  23.946  0.00  0.00    +0.009 A 
ATOM     26  C   UNL     1      -1.789  -1.408  25.375  0.00  0.00    +0.162 A 
ATOM     27  C   UNL     1      -2.899  -3.017  23.954  0.00  0.00    +0.050 A 
ATOM     28  C   UNL     1      -1.772  -2.611  24.669  0.00  0.00    +0.162 A 
BRANCH  26   3
ATOM      3  O   UNL     1      -0.695  -1.002  26.078  0.00  0.00    -0.491 OA
ATOM     32  C   UNL     1      -0.911  -0.582  27.425  0.00  0.00    +0.277 C 
ENDBRANCH  26   3
BRANCH  28   4
ATOM      4  O   UNL     1      -0.660  -3.398  24.670  0.00  0.00    -0.491 OA
ATOM     33  C   UNL     1       0.489  -2.896  25.348  0.00  0.00    +0.277 C 
ENDBRANCH  28   4
ENDBRANCH  20  21
ENDBRANCH   6  20
ENDBRANCH  15  17
ENDBRANCH   9  15
TORSDOF 9
ENDMDL
MODEL 5
REMARK VINA RESULT:       1.8      1.924      5.318
REMARK  Name = 25313746
REMARK  11 active torsions:
REMARK  status: ('A' for Active; 'I' for Inactive)
REMARK    1  A    between atoms: O_3  and  C_26
REMARK    2  A    between atoms: O_3  and  C_32
REMARK    3  A    between atoms: O_4  and  C_28
REMARK    4  A    between atoms: O_4  and  C_33
REMARK    5  A    between atoms: N_6  and  C_20
REMARK    6  A    between atoms: C_9  and  C_15
REMARK    7  A    between atoms: C_10  and  C_14
REMARK    8  A    between atoms: C_14  and  C_16
REMARK    9  A    between atoms: C_15  and  C_17
REMARK   10  A    between atoms: C_19  and  C_22
REMARK   11  A    between atoms: C_20  and  C_21
REMARK                            x       y       z     vdW  Elec       q    Type
REMARK                         _______ _______ _______ _____ _____    ______ ____
ROOT
ATOM      5  N   UNL     1      -4.916   3.221  26.355  0.00  0.00    -0.316 NA
ATOM      9  C   UNL     1      -3.089   5.313  25.427  0.00  0.00    +0.004 C 
ATOM     10  C   UNL     1      -4.379   4.959  24.649  0.00  0.00    +0.012 C 
ATOM     11  C   UNL     1      -2.610   4.121  26.269  0.00  0.00    +0.019 C 
ATOM     12  C   UNL     1      -5.423   4.385  25.625  0.00  0.00    +0.085 C 
ATOM     13  C   UNL     1      -3.733   3.566  27.144  0.00  0.00    +0.081 C 
ATOM     34  H   UNL     1      -4.685   2.473  25.705  0.00  0.00    +0.122 HD
ENDROOT
BRANCH  10  14
ATOM     14  C   UNL     1      -4.151   4.003  23.471  0.00  0.00    +0.064 C 
BRANCH  14  16
ATOM      2  O   UNL     1      -5.542   0.869  24.570  0.00  0.00    -0.353 OA
ATOM      7  N   UNL     1      -5.636   2.229  24.302  0.00  0.00    -0.083 NA
ATOM     16  C   UNL     1      -4.423   2.579  23.863  0.00  0.00    +0.085 A 
ATOM     18  C   UNL     1      -3.532   1.493  23.834  0.00  0.00    +0.077 A 
ATOM     19  C   UNL     1      -4.284   0.441  24.288  0.00  0.00    +0.186 A 
BRANCH  19  22
ATOM      8  N   UNL     1      -3.626  -1.253  25.769  0.00  0.00    -0.252 NA
ATOM     22  C   UNL     1      -4.036  -0.952  24.517  0.00  0.00    +0.109 A 
ATOM     25  C   UNL     1      -4.214  -1.890  23.512  0.00  0.00    +0.031 A 
ATOM     29  C   UNL     1      -3.954  -3.222  23.812  0.00  0.00    +0.004 A 
ATOM     30  C   UNL     1      -3.383  -2.559  26.023  0.00  0.00    +0.111 A 
ATOM     31  C   UNL     1      -3.529  -3.571  25.090  0.00  0.00    +0.020 A 
ENDBRANCH  19  22
ENDBRANCH  14  16
ENDBRANCH  10  14
BRANCH   9  15
ATOM     15  C   UNL     1      -1.964   5.835  24.534  0.00  0.00    +0.099 C 
BRANCH  15  17
ATOM      1  O   UNL     1      -0.172   4.632  23.440  0.00  0.00    -0.276 OA
ATOM      6  N   UNL     1      -0.522   4.336  25.719  0.00  0.00    -0.311 N 
ATOM     17  C   UNL     1      -0.792   4.880  24.472  0.00  0.00    +0.214 C 
ATOM     35  H   UNL     1      -1.097   4.596  26.515  0.00  0.00    +0.149 HD
BRANCH   6  20
ATOM     20  C   UNL     1       0.546   3.390  25.953  0.00  0.00    +0.139 C 
BRANCH  20  21
ATOM     21  C   UNL     1       0.213   2.025  25.423  0.00  0.00    -0.027 A 
ATOM     23  C   UNL     1       0.765   1.592  24.218  0.00  0.00    +0.054 A 
ATOM     24  C   UNL     1      -0.648   1.191  26.136  0.00  0.00    +0.009 A 
ATOM     26  C   UNL     1       0.457   0.324  23.725  0.00  0.00    +0.162 A 
ATOM     27  C   UNL     1      -0.956  -0.078  25.643  0.00  0.00    +0.050 A 
ATOM     28  C   UNL     1      -0.404  -0.510  24.438  0.00  0.00    +0.162 A 
BRANCH  26   3
ATOM      3  O   UNL     1       1.005  -0.088  22.548  0.00  0.00    -0.491 OA
ATOM     32  C   UNL     1       2.418   0.050  22.408  0.00  0.00    +0.277 C 
ENDBRANCH  26   3
BRANCH  28   4
ATOM      4  O   UNL     1      -0.712  -1.751  23.967  0.00  0.00    -0.491 OA
ATOM     33  C   UNL     1      -0.368  -2.862  24.792  0.00  0.00    +0.277 C 
ENDBRANCH  28   4
ENDBRANCH  20  21
ENDBRANCH   6  20
ENDBRANCH  15  17
ENDBRANCH   9  15
TORSDOF 9
ENDMDL
