MODEL 1
REMARK VINA RESULT:      -2.3      0.000      0.000
REMARK  Name = 26743884
REMARK  8 active torsions:
REMARK  status: ('A' for Active; 'I' for Inactive)
REMARK    1  A    between atoms: O_4  and  C_12
REMARK    2  A    between atoms: O_6  and  C_20
REMARK    3  A    between atoms: O_6  and  C_30
REMARK    4  A    between atoms: N_7  and  C_14
REMARK    5  A    between atoms: C_10  and  C_15
REMARK    6  A    between atoms: C_14  and  C_16
REMARK    7  A    between atoms: C_19  and  C_22
REMARK    8  A    between atoms: C_26  and  C_29
REMARK                            x       y       z     vdW  Elec       q    Type
REMARK                         _______ _______ _______ _____ _____    ______ ____
ROOT
ATOM      7  N   UNL     1      -4.574   1.606  24.650  0.00  0.00    -0.285 NA
ATOM     10  C   UNL     1      -3.752   2.681  24.058  0.00  0.00    +0.149 C 
ATOM     11  C   UNL     1      -4.075   3.931  24.898  0.00  0.00    +0.061 C 
ATOM     12  C   UNL     1      -5.121   3.471  25.906  0.00  0.00    +0.130 C 
ATOM     13  C   UNL     1      -5.742   2.256  25.242  0.00  0.00    +0.116 C 
ENDROOT
BRANCH  10  15
ATOM      5  O   UNL     1      -1.522   2.905  25.032  0.00  0.00    -0.336 OA
ATOM      8  N   UNL     1      -1.601   1.590  23.221  0.00  0.00    -0.190 NA
ATOM      9  N   UNL     1      -0.212   2.459  24.819  0.00  0.00    -0.056 NA
ATOM     15  C   UNL     1      -2.275   2.348  24.049  0.00  0.00    +0.245 A 
ATOM     19  C   UNL     1      -0.339   1.690  23.733  0.00  0.00    +0.202 A 
BRANCH  19  22
ATOM     22  C   UNL     1       0.772   1.006  23.137  0.00  0.00    +0.023 A 
ATOM     24  C   UNL     1       2.074   1.319  23.524  0.00  0.00    +0.015 A 
ATOM     25  C   UNL     1       0.548   0.027  22.169  0.00  0.00    +0.012 A 
ATOM     26  C   UNL     1       3.154   0.653  22.944  0.00  0.00    -0.050 A 
ATOM     27  C   UNL     1       1.628  -0.640  21.589  0.00  0.00    +0.001 A 
ATOM     28  C   UNL     1       2.930  -0.327  21.976  0.00  0.00    +0.003 A 
ATOM     29  C   UNL     1       4.547   0.987  23.358  0.00  0.00    +0.044 C 
ENDBRANCH  19  22
ENDBRANCH  10  15
BRANCH  12   4
ATOM      4  O   UNL     1      -6.075   4.488  26.139  0.00  0.00    -0.390 OA
ATOM     31  H   UNL     1      -5.595   5.330  26.203  0.00  0.00    +0.210 HD
ENDBRANCH  12   4
BRANCH   7  14
ATOM     14  C   UNL     1      -4.947   0.575  23.692  0.00  0.00    +0.120 C 
BRANCH  14  16
ATOM     16  C   UNL     1      -4.343  -0.759  24.039  0.00  0.00    -0.030 A 
ATOM     17  C   UNL     1      -3.232  -0.824  24.882  0.00  0.00    +0.051 A 
ATOM     18  C   UNL     1      -4.892  -1.931  23.519  0.00  0.00    +0.005 A 
ATOM     20  C   UNL     1      -2.671  -2.060  25.203  0.00  0.00    +0.130 A 
ATOM     21  C   UNL     1      -4.331  -3.167  23.840  0.00  0.00    +0.004 A 
ATOM     23  C   UNL     1      -3.221  -3.231  24.682  0.00  0.00    +0.046 A 
BRANCH  20   6
ATOM      6  O   UNL     1      -1.588  -2.122  26.024  0.00  0.00    -0.406 OA
BRANCH   6  30
ATOM      1  F   UNL     1       0.678  -2.434  26.013  0.00  0.00    -0.133 F 
ATOM      2  F   UNL     1      -0.127  -0.406  25.892  0.00  0.00    -0.133 F 
ATOM      3  F   UNL     1      -0.312  -1.732  24.166  0.00  0.00    -0.133 F 
ATOM     30  C   UNL     1      -0.331  -1.688  25.515  0.00  0.00    +0.575 C 
ENDBRANCH   6  30
ENDBRANCH  20   6
ENDBRANCH  14  16
ENDBRANCH   7  14
TORSDOF 7
ENDMDL
MODEL 2
REMARK VINA RESULT:      -1.6      2.421      4.606
REMARK  Name = 26743884
REMARK  8 active torsions:
REMARK  status: ('A' for Active; 'I' for Inactive)
REMARK    1  A    between atoms: O_4  and  C_12
REMARK    2  A    between atoms: O_6  and  C_20
REMARK    3  A    between atoms: O_6  and  C_30
REMARK    4  A    between atoms: N_7  and  C_14
REMARK    5  A    between atoms: C_10  and  C_15
REMARK    6  A    between atoms: C_14  and  C_16
REMARK    7  A    between atoms: C_19  and  C_22
REMARK    8  A    between atoms: C_26  and  C_29
REMARK                            x       y       z     vdW  Elec       q    Type
REMARK                         _______ _______ _______ _____ _____    ______ ____
ROOT
ATOM      7  N   UNL     1      -3.034  -0.689  23.488  0.00  0.00    -0.285 NA
ATOM     10  C   UNL     1      -2.278  -0.277  24.688  0.00  0.00    +0.149 C 
ATOM     11  C   UNL     1      -2.199  -1.545  25.558  0.00  0.00    +0.061 C 
ATOM     12  C   UNL     1      -2.979  -2.603  24.786  0.00  0.00    +0.130 C 
ATOM     13  C   UNL     1      -3.905  -1.787  23.905  0.00  0.00    +0.116 C 
ENDROOT
BRANCH  10  15
ATOM      5  O   UNL     1      -0.796   1.640  24.374  0.00  0.00    -0.336 OA
ATOM      8  N   UNL     1       0.190  -0.343  24.036  0.00  0.00    -0.190 NA
ATOM      9  N   UNL     1       0.534   1.920  24.035  0.00  0.00    -0.056 NA
ATOM     15  C   UNL     1      -0.913   0.287  24.352  0.00  0.00    +0.245 A 
ATOM     19  C   UNL     1       1.051   0.701  23.850  0.00  0.00    +0.202 A 
BRANCH  19  22
ATOM     22  C   UNL     1       2.421   0.491  23.481  0.00  0.00    +0.023 A 
ATOM     24  C   UNL     1       3.066  -0.693  23.837  0.00  0.00    +0.015 A 
ATOM     25  C   UNL     1       3.107   1.471  22.764  0.00  0.00    +0.012 A 
ATOM     26  C   UNL     1       4.398  -0.897  23.477  0.00  0.00    -0.050 A 
ATOM     27  C   UNL     1       4.439   1.267  22.404  0.00  0.00    +0.001 A 
ATOM     28  C   UNL     1       5.084   0.084  22.760  0.00  0.00    +0.003 A 
ATOM     29  C   UNL     1       5.089  -2.162  23.858  0.00  0.00    +0.044 C 
ENDBRANCH  19  22
ENDBRANCH  10  15
BRANCH  12   4
ATOM      4  O   UNL     1      -3.698  -3.441  25.670  0.00  0.00    -0.390 OA
ATOM     31  H   UNL     1      -4.417  -3.853  25.162  0.00  0.00    +0.210 HD
ENDBRANCH  12   4
BRANCH   7  14
ATOM     14  C   UNL     1      -3.782   0.403  22.879  0.00  0.00    +0.120 C 
BRANCH  14  16
ATOM     16  C   UNL     1      -4.132   1.471  23.880  0.00  0.00    -0.030 A 
ATOM     17  C   UNL     1      -3.457   2.693  23.861  0.00  0.00    +0.051 A 
ATOM     18  C   UNL     1      -5.129   1.240  24.827  0.00  0.00    +0.005 A 
ATOM     20  C   UNL     1      -3.780   3.682  24.789  0.00  0.00    +0.130 A 
ATOM     21  C   UNL     1      -5.452   2.230  25.756  0.00  0.00    +0.004 A 
ATOM     23  C   UNL     1      -4.778   3.451  25.736  0.00  0.00    +0.046 A 
BRANCH  20   6
ATOM      6  O   UNL     1      -3.122   4.873  24.770  0.00  0.00    -0.406 OA
BRANCH   6  30
ATOM      1  F   UNL     1      -1.518   4.063  26.186  0.00  0.00    -0.133 F 
ATOM      2  F   UNL     1      -1.416   6.144  25.526  0.00  0.00    -0.133 F 
ATOM      3  F   UNL     1      -0.958   4.549  24.104  0.00  0.00    -0.133 F 
ATOM     30  C   UNL     1      -1.749   4.890  25.144  0.00  0.00    +0.575 C 
ENDBRANCH   6  30
ENDBRANCH  20   6
ENDBRANCH  14  16
ENDBRANCH   7  14
TORSDOF 7
ENDMDL
MODEL 3
REMARK VINA RESULT:      -0.4      2.462      6.333
REMARK  Name = 26743884
REMARK  8 active torsions:
REMARK  status: ('A' for Active; 'I' for Inactive)
REMARK    1  A    between atoms: O_4  and  C_12
REMARK    2  A    between atoms: O_6  and  C_20
REMARK    3  A    between atoms: O_6  and  C_30
REMARK    4  A    between atoms: N_7  and  C_14
REMARK    5  A    between atoms: C_10  and  C_15
REMARK    6  A    between atoms: C_14  and  C_16
REMARK    7  A    between atoms: C_19  and  C_22
REMARK    8  A    between atoms: C_26  and  C_29
REMARK                            x       y       z     vdW  Elec       q    Type
REMARK                         _______ _______ _______ _____ _____    ______ ____
ROOT
ATOM      7  N   UNL     1       1.222  -0.652  23.619  0.00  0.00    -0.285 NA
ATOM     10  C   UNL     1       1.018   0.762  23.993  0.00  0.00    +0.149 C 
ATOM     11  C   UNL     1       1.963   1.554  23.071  0.00  0.00    +0.061 C 
ATOM     12  C   UNL     1       2.690   0.497  22.248  0.00  0.00    +0.130 C 
ATOM     13  C   UNL     1       2.588  -0.750  23.105  0.00  0.00    +0.116 C 
ENDROOT
BRANCH  10  15
ATOM      5  O   UNL     1      -1.044   0.901  22.688  0.00  0.00    -0.336 OA
ATOM      8  N   UNL     1      -1.186   1.825  24.723  0.00  0.00    -0.190 NA
ATOM      9  N   UNL     1      -2.350   1.394  22.801  0.00  0.00    -0.056 NA
ATOM     15  C   UNL     1      -0.428   1.196  23.862  0.00  0.00    +0.245 A 
ATOM     19  C   UNL     1      -2.357   1.925  24.027  0.00  0.00    +0.202 A 
BRANCH  19  22
ATOM     22  C   UNL     1      -3.515   2.559  24.588  0.00  0.00    +0.023 A 
ATOM     24  C   UNL     1      -4.472   1.799  25.258  0.00  0.00    +0.015 A 
ATOM     25  C   UNL     1      -3.681   3.939  24.464  0.00  0.00    +0.012 A 
ATOM     26  C   UNL     1      -5.597   2.417  25.804  0.00  0.00    -0.050 A 
ATOM     27  C   UNL     1      -4.806   4.557  25.010  0.00  0.00    +0.001 A 
ATOM     28  C   UNL     1      -5.764   3.796  25.679  0.00  0.00    +0.003 A 
ATOM     29  C   UNL     1      -6.622   1.604  26.520  0.00  0.00    +0.044 C 
ENDBRANCH  19  22
ENDBRANCH  10  15
BRANCH  12   4
ATOM      4  O   UNL     1       4.035   0.872  22.025  0.00  0.00    -0.390 OA
ATOM     31  H   UNL     1       4.501   0.095  21.675  0.00  0.00    +0.210 HD
ENDBRANCH  12   4
BRANCH   7  14
ATOM     14  C   UNL     1       0.982  -1.577  24.718  0.00  0.00    +0.120 C 
BRANCH  14  16
ATOM     16  C   UNL     1      -0.446  -1.527  25.191  0.00  0.00    -0.030 A 
ATOM     17  C   UNL     1      -1.431  -2.246  24.513  0.00  0.00    +0.051 A 
ATOM     18  C   UNL     1      -0.786  -0.762  26.306  0.00  0.00    +0.005 A 
ATOM     20  C   UNL     1      -2.755  -2.199  24.950  0.00  0.00    +0.130 A 
ATOM     21  C   UNL     1      -2.110  -0.715  26.744  0.00  0.00    +0.004 A 
ATOM     23  C   UNL     1      -3.093  -1.434  26.066  0.00  0.00    +0.046 A 
BRANCH  20   6
ATOM      6  O   UNL     1      -3.715  -2.901  24.288  0.00  0.00    -0.406 OA
BRANCH   6  30
ATOM      1  F   UNL     1      -5.371  -3.019  22.714  0.00  0.00    -0.133 F 
ATOM      2  F   UNL     1      -3.942  -1.367  22.647  0.00  0.00    -0.133 F 
ATOM      3  F   UNL     1      -5.449  -1.411  24.228  0.00  0.00    -0.133 F 
ATOM     30  C   UNL     1      -4.635  -2.181  23.475  0.00  0.00    +0.575 C 
ENDBRANCH   6  30
ENDBRANCH  20   6
ENDBRANCH  14  16
ENDBRANCH   7  14
TORSDOF 7
ENDMDL
MODEL 4
REMARK VINA RESULT:       0.3      2.672      5.806
REMARK  Name = 26743884
REMARK  8 active torsions:
REMARK  status: ('A' for Active; 'I' for Inactive)
REMARK    1  A    between atoms: O_4  and  C_12
REMARK    2  A    between atoms: O_6  and  C_20
REMARK    3  A    between atoms: O_6  and  C_30
REMARK    4  A    between atoms: N_7  and  C_14
REMARK    5  A    between atoms: C_10  and  C_15
REMARK    6  A    between atoms: C_14  and  C_16
REMARK    7  A    between atoms: C_19  and  C_22
REMARK    8  A    between atoms: C_26  and  C_29
REMARK                            x       y       z     vdW  Elec       q    Type
REMARK                         _______ _______ _______ _____ _____    ______ ____
ROOT
ATOM      7  N   UNL     1      -0.665   3.413  24.829  0.00  0.00    -0.285 NA
ATOM     10  C   UNL     1      -1.826   3.302  25.735  0.00  0.00    +0.149 C 
ATOM     11  C   UNL     1      -2.587   4.630  25.565  0.00  0.00    +0.061 C 
ATOM     12  C   UNL     1      -1.752   5.440  24.580  0.00  0.00    +0.130 C 
ATOM     13  C   UNL     1      -0.365   4.839  24.714  0.00  0.00    +0.116 C 
ENDROOT
BRANCH  10  15
ATOM      5  O   UNL     1      -4.015   2.321  25.263  0.00  0.00    -0.336 OA
ATOM      8  N   UNL     1      -2.338   0.836  25.311  0.00  0.00    -0.190 NA
ATOM      9  N   UNL     1      -4.593   1.073  25.000  0.00  0.00    -0.056 NA
ATOM     15  C   UNL     1      -2.687   2.092  25.433  0.00  0.00    +0.245 A 
ATOM     19  C   UNL     1      -3.543   0.249  25.046  0.00  0.00    +0.202 A 
BRANCH  19  22
ATOM     22  C   UNL     1      -3.659  -1.164  24.831  0.00  0.00    +0.023 A 
ATOM     24  C   UNL     1      -4.417  -1.648  23.764  0.00  0.00    +0.015 A 
ATOM     25  C   UNL     1      -3.013  -2.055  25.688  0.00  0.00    +0.012 A 
ATOM     26  C   UNL     1      -4.529  -3.022  23.555  0.00  0.00    -0.050 A 
ATOM     27  C   UNL     1      -3.126  -3.430  25.479  0.00  0.00    +0.001 A 
ATOM     28  C   UNL     1      -3.883  -3.913  24.413  0.00  0.00    +0.003 A 
ATOM     29  C   UNL     1      -5.339  -3.540  22.415  0.00  0.00    +0.044 C 
ENDBRANCH  19  22
ENDBRANCH  10  15
BRANCH  12   4
ATOM      4  O   UNL     1      -1.765   6.812  24.921  0.00  0.00    -0.390 OA
ATOM     31  H   UNL     1      -1.665   6.875  25.885  0.00  0.00    +0.210 HD
ENDBRANCH  12   4
BRANCH   7  14
ATOM     14  C   UNL     1       0.488   2.645  25.278  0.00  0.00    +0.120 C 
BRANCH  14  16
ATOM     16  C   UNL     1       0.922   1.633  24.252  0.00  0.00    -0.030 A 
ATOM     17  C   UNL     1       2.247   1.609  23.813  0.00  0.00    +0.051 A 
ATOM     18  C   UNL     1       0.002   0.720  23.738  0.00  0.00    +0.005 A 
ATOM     20  C   UNL     1       2.650   0.672  22.861  0.00  0.00    +0.130 A 
ATOM     21  C   UNL     1       0.405  -0.216  22.786  0.00  0.00    +0.004 A 
ATOM     23  C   UNL     1       1.728  -0.241  22.348  0.00  0.00    +0.046 A 
BRANCH  20   6
ATOM      6  O   UNL     1       3.942   0.650  22.434  0.00  0.00    -0.406 OA
BRANCH   6  30
ATOM      1  F   UNL     1       5.265   0.867  24.287  0.00  0.00    -0.133 F 
ATOM      2  F   UNL     1       6.028  -0.205  22.542  0.00  0.00    -0.133 F 
ATOM      3  F   UNL     1       4.474  -1.130  23.767  0.00  0.00    -0.133 F 
ATOM     30  C   UNL     1       4.919   0.045  23.273  0.00  0.00    +0.575 C 
ENDBRANCH   6  30
ENDBRANCH  20   6
ENDBRANCH  14  16
ENDBRANCH   7  14
TORSDOF 7
ENDMDL
MODEL 5
REMARK VINA RESULT:       0.4      2.855      5.088
REMARK  Name = 26743884
REMARK  8 active torsions:
REMARK  status: ('A' for Active; 'I' for Inactive)
REMARK    1  A    between atoms: O_4  and  C_12
REMARK    2  A    between atoms: O_6  and  C_20
REMARK    3  A    between atoms: O_6  and  C_30
REMARK    4  A    between atoms: N_7  and  C_14
REMARK    5  A    between atoms: C_10  and  C_15
REMARK    6  A    between atoms: C_14  and  C_16
REMARK    7  A    between atoms: C_19  and  C_22
REMARK    8  A    between atoms: C_26  and  C_29
REMARK                            x       y       z     vdW  Elec       q    Type
REMARK                         _______ _______ _______ _____ _____    ______ ____
ROOT
ATOM      7  N   UNL     1      -2.361   0.615  22.949  0.00  0.00    -0.285 NA
ATOM     10  C   UNL     1      -1.425   0.213  24.018  0.00  0.00    +0.149 C 
ATOM     11  C   UNL     1      -2.030  -1.073  24.609  0.00  0.00    +0.061 C 
ATOM     12  C   UNL     1      -3.328  -1.288  23.840  0.00  0.00    +0.130 C 
ATOM     13  C   UNL     1      -3.674   0.100  23.334  0.00  0.00    +0.116 C 
ENDROOT
BRANCH  10  15
ATOM      5  O   UNL     1       0.145  -0.050  22.163  0.00  0.00    -0.336 OA
ATOM      8  N   UNL     1       1.103  -0.107  24.186  0.00  0.00    -0.190 NA
ATOM      9  N   UNL     1       1.515  -0.234  21.939  0.00  0.00    -0.056 NA
ATOM     15  C   UNL     1      -0.011   0.015  23.510  0.00  0.00    +0.245 A 
ATOM     19  C   UNL     1       2.013  -0.258  23.179  0.00  0.00    +0.202 A 
BRANCH  19  22
ATOM     22  C   UNL     1       3.411  -0.430  23.446  0.00  0.00    +0.023 A 
ATOM     24  C   UNL     1       4.247   0.683  23.534  0.00  0.00    +0.015 A 
ATOM     25  C   UNL     1       3.935  -1.711  23.620  0.00  0.00    +0.012 A 
ATOM     26  C   UNL     1       5.607   0.516  23.796  0.00  0.00    -0.050 A 
ATOM     27  C   UNL     1       5.295  -1.879  23.881  0.00  0.00    +0.001 A 
ATOM     28  C   UNL     1       6.131  -0.766  23.969  0.00  0.00    +0.003 A 
ATOM     29  C   UNL     1       6.501   1.705  23.890  0.00  0.00    +0.044 C 
ENDBRANCH  19  22
ENDBRANCH  10  15
BRANCH  12   4
ATOM      4  O   UNL     1      -4.335  -1.803  24.689  0.00  0.00    -0.390 OA
ATOM     31  H   UNL     1      -5.055  -2.130  24.124  0.00  0.00    +0.210 HD
ENDBRANCH  12   4
BRANCH   7  14
ATOM     14  C   UNL     1      -2.383   2.053  22.716  0.00  0.00    +0.120 C 
BRANCH  14  16
ATOM     16  C   UNL     1      -2.762   2.817  23.957  0.00  0.00    -0.030 A 
ATOM     17  C   UNL     1      -4.031   2.656  24.514  0.00  0.00    +0.051 A 
ATOM     18  C   UNL     1      -1.845   3.685  24.548  0.00  0.00    +0.005 A 
ATOM     20  C   UNL     1      -4.383   3.365  25.663  0.00  0.00    +0.130 A 
ATOM     21  C   UNL     1      -2.197   4.394  25.697  0.00  0.00    +0.004 A 
ATOM     23  C   UNL     1      -3.465   4.233  26.255  0.00  0.00    +0.046 A 
BRANCH  20   6
ATOM      6  O   UNL     1      -5.621   3.208  26.206  0.00  0.00    -0.406 OA
BRANCH   6  30
ATOM      1  F   UNL     1      -6.990   1.669  27.201  0.00  0.00    -0.133 F 
ATOM      2  F   UNL     1      -5.283   0.984  26.020  0.00  0.00    -0.133 F 
ATOM      3  F   UNL     1      -7.009   1.849  24.998  0.00  0.00    -0.133 F 
ATOM     30  C   UNL     1      -6.243   1.932  26.107  0.00  0.00    +0.575 C 
ENDBRANCH   6  30
ENDBRANCH  20   6
ENDBRANCH  14  16
ENDBRANCH   7  14
TORSDOF 7
ENDMDL
MODEL 6
REMARK VINA RESULT:       0.9      2.668      6.038
REMARK  Name = 26743884
REMARK  8 active torsions:
REMARK  status: ('A' for Active; 'I' for Inactive)
REMARK    1  A    between atoms: O_4  and  C_12
REMARK    2  A    between atoms: O_6  and  C_20
REMARK    3  A    between atoms: O_6  and  C_30
REMARK    4  A    between atoms: N_7  and  C_14
REMARK    5  A    between atoms: C_10  and  C_15
REMARK    6  A    between atoms: C_14  and  C_16
REMARK    7  A    between atoms: C_19  and  C_22
REMARK    8  A    between atoms: C_26  and  C_29
REMARK                            x       y       z     vdW  Elec       q    Type
REMARK                         _______ _______ _______ _____ _____    ______ ____
ROOT
ATOM      7  N   UNL     1       0.528  -0.487  23.604  0.00  0.00    -0.285 NA
ATOM     10  C   UNL     1       1.226   0.632  24.269  0.00  0.00    +0.149 C 
ATOM     11  C   UNL     1       2.151   1.219  23.187  0.00  0.00    +0.061 C 
ATOM     12  C   UNL     1       1.938   0.335  21.964  0.00  0.00    +0.130 C 
ATOM     13  C   UNL     1       1.423  -0.965  22.552  0.00  0.00    +0.116 C 
ENDROOT
BRANCH  10  15
ATOM      5  O   UNL     1       0.703   2.352  25.925  0.00  0.00    -0.336 OA
ATOM      8  N   UNL     1      -0.934   1.983  24.441  0.00  0.00    -0.190 NA
ATOM      9  N   UNL     1      -0.336   3.226  26.268  0.00  0.00    -0.056 NA
ATOM     15  C   UNL     1       0.269   1.658  24.841  0.00  0.00    +0.245 A 
ATOM     19  C   UNL     1      -1.266   2.949  25.348  0.00  0.00    +0.202 A 
BRANCH  19  22
ATOM     22  C   UNL     1      -2.534   3.618  25.305  0.00  0.00    +0.023 A 
ATOM     24  C   UNL     1      -2.903   4.341  24.172  0.00  0.00    +0.015 A 
ATOM     25  C   UNL     1      -3.398   3.545  26.398  0.00  0.00    +0.012 A 
ATOM     26  C   UNL     1      -4.137   4.991  24.131  0.00  0.00    -0.050 A 
ATOM     27  C   UNL     1      -4.631   4.194  26.357  0.00  0.00    +0.001 A 
ATOM     28  C   UNL     1      -5.001   4.918  25.224  0.00  0.00    +0.003 A 
ATOM     29  C   UNL     1      -4.533   5.765  22.919  0.00  0.00    +0.044 C 
ENDBRANCH  19  22
ENDBRANCH  10  15
BRANCH  12   4
ATOM      4  O   UNL     1       3.150   0.150  21.260  0.00  0.00    -0.390 OA
ATOM     31  H   UNL     1       3.309   0.953  20.736  0.00  0.00    +0.210 HD
ENDBRANCH  12   4
BRANCH   7  14
ATOM     14  C   UNL     1       0.143  -1.550  24.521  0.00  0.00    +0.120 C 
BRANCH  14  16
ATOM     16  C   UNL     1      -1.352  -1.721  24.587  0.00  0.00    -0.030 A 
ATOM     17  C   UNL     1      -2.146  -0.706  25.124  0.00  0.00    +0.051 A 
ATOM     18  C   UNL     1      -1.942  -2.891  24.113  0.00  0.00    +0.005 A 
ATOM     20  C   UNL     1      -3.531  -0.865  25.187  0.00  0.00    +0.130 A 
ATOM     21  C   UNL     1      -3.327  -3.049  24.175  0.00  0.00    +0.004 A 
ATOM     23  C   UNL     1      -4.120  -2.036  24.711  0.00  0.00    +0.046 A 
BRANCH  20   6
ATOM      6  O   UNL     1      -4.305   0.124  25.711  0.00  0.00    -0.406 OA
BRANCH   6  30
ATOM      1  F   UNL     1      -4.462   1.578  23.952  0.00  0.00    -0.133 F 
ATOM      2  F   UNL     1      -5.931   1.683  25.567  0.00  0.00    -0.133 F 
ATOM      3  F   UNL     1      -5.994   0.000  24.175  0.00  0.00    -0.133 F 
ATOM     30  C   UNL     1      -5.168   0.840  24.835  0.00  0.00    +0.575 C 
ENDBRANCH   6  30
ENDBRANCH  20   6
ENDBRANCH  14  16
ENDBRANCH   7  14
TORSDOF 7
ENDMDL
MODEL 7
REMARK VINA RESULT:       1.2      3.044      7.158
REMARK  Name = 26743884
REMARK  8 active torsions:
REMARK  status: ('A' for Active; 'I' for Inactive)
REMARK    1  A    between atoms: O_4  and  C_12
REMARK    2  A    between atoms: O_6  and  C_20
REMARK    3  A    between atoms: O_6  and  C_30
REMARK    4  A    between atoms: N_7  and  C_14
REMARK    5  A    between atoms: C_10  and  C_15
REMARK    6  A    between atoms: C_14  and  C_16
REMARK    7  A    between atoms: C_19  and  C_22
REMARK    8  A    between atoms: C_26  and  C_29
REMARK                            x       y       z     vdW  Elec       q    Type
REMARK                         _______ _______ _______ _____ _____    ______ ____
ROOT
ATOM      7  N   UNL     1       2.455   1.405  23.598  0.00  0.00    -0.285 NA
ATOM     10  C   UNL     1       1.953   0.281  22.782  0.00  0.00    +0.149 C 
ATOM     11  C   UNL     1       3.168  -0.647  22.601  0.00  0.00    +0.061 C 
ATOM     12  C   UNL     1       4.316   0.061  23.311  0.00  0.00    +0.130 C 
ATOM     13  C   UNL     1       3.885   1.516  23.315  0.00  0.00    +0.116 C 
ENDROOT
BRANCH  10  15
ATOM      5  O   UNL     1       1.058  -1.408  24.304  0.00  0.00    -0.336 OA
ATOM      8  N   UNL     1      -0.510  -0.213  23.242  0.00  0.00    -0.190 NA
ATOM      9  N   UNL     1      -0.174  -1.899  24.753  0.00  0.00    -0.056 NA
ATOM     15  C   UNL     1       0.771  -0.419  23.419  0.00  0.00    +0.245 A 
ATOM     19  C   UNL     1      -1.050  -1.145  24.081  0.00  0.00    +0.202 A 
BRANCH  19  22
ATOM     22  C   UNL     1      -2.469  -1.295  24.225  0.00  0.00    +0.023 A 
ATOM     24  C   UNL     1      -3.253  -0.201  24.590  0.00  0.00    +0.015 A 
ATOM     25  C   UNL     1      -3.065  -2.536  23.999  0.00  0.00    +0.012 A 
ATOM     26  C   UNL     1      -4.633  -0.348  24.730  0.00  0.00    -0.050 A 
ATOM     27  C   UNL     1      -4.445  -2.683  24.138  0.00  0.00    +0.001 A 
ATOM     28  C   UNL     1      -5.229  -1.590  24.503  0.00  0.00    +0.003 A 
ATOM     29  C   UNL     1      -5.473   0.821  25.120  0.00  0.00    +0.044 C 
ENDBRANCH  19  22
ENDBRANCH  10  15
BRANCH  12   4
ATOM      4  O   UNL     1       5.530  -0.125  22.610  0.00  0.00    -0.390 OA
ATOM     31  H   UNL     1       6.208   0.412  23.053  0.00  0.00    +0.210 HD
ENDBRANCH  12   4
BRANCH   7  14
ATOM     14  C   UNL     1       1.749   2.655  23.349  0.00  0.00    +0.120 C 
BRANCH  14  16
ATOM     16  C   UNL     1       0.610   2.857  24.313  0.00  0.00    -0.030 A 
ATOM     17  C   UNL     1      -0.457   3.687  23.966  0.00  0.00    +0.051 A 
ATOM     18  C   UNL     1       0.620   2.215  25.550  0.00  0.00    +0.005 A 
ATOM     20  C   UNL     1      -1.512   3.876  24.859  0.00  0.00    +0.130 A 
ATOM     21  C   UNL     1      -0.435   2.404  26.443  0.00  0.00    +0.004 A 
ATOM     23  C   UNL     1      -1.501   3.233  26.097  0.00  0.00    +0.046 A 
BRANCH  20   6
ATOM      6  O   UNL     1      -2.552   4.687  24.521  0.00  0.00    -0.406 OA
BRANCH   6  30
ATOM      1  F   UNL     1      -3.528   2.867  23.537  0.00  0.00    -0.133 F 
ATOM      2  F   UNL     1      -4.316   4.863  23.125  0.00  0.00    -0.133 F 
ATOM      3  F   UNL     1      -4.648   3.970  25.091  0.00  0.00    -0.133 F 
ATOM     30  C   UNL     1      -3.761   4.082  24.078  0.00  0.00    +0.575 C 
ENDBRANCH   6  30
ENDBRANCH  20   6
ENDBRANCH  14  16
ENDBRANCH   7  14
TORSDOF 7
ENDMDL
MODEL 8
REMARK VINA RESULT:       1.3      2.569      4.954
REMARK  Name = 26743884
REMARK  8 active torsions:
REMARK  status: ('A' for Active; 'I' for Inactive)
REMARK    1  A    between atoms: O_4  and  C_12
REMARK    2  A    between atoms: O_6  and  C_20
REMARK    3  A    between atoms: O_6  and  C_30
REMARK    4  A    between atoms: N_7  and  C_14
REMARK    5  A    between atoms: C_10  and  C_15
REMARK    6  A    between atoms: C_14  and  C_16
REMARK    7  A    between atoms: C_19  and  C_22
REMARK    8  A    between atoms: C_26  and  C_29
REMARK                            x       y       z     vdW  Elec       q    Type
REMARK                         _______ _______ _______ _____ _____    ______ ____
ROOT
ATOM      7  N   UNL     1      -3.530  -0.985  24.666  0.00  0.00    -0.285 NA
ATOM     10  C   UNL     1      -2.699  -2.169  24.966  0.00  0.00    +0.149 C 
ATOM     11  C   UNL     1      -3.201  -3.258  24.000  0.00  0.00    +0.061 C 
ATOM     12  C   UNL     1      -4.344  -2.607  23.231  0.00  0.00    +0.130 C 
ATOM     13  C   UNL     1      -4.801  -1.492  24.152  0.00  0.00    +0.116 C 
ENDROOT
BRANCH  10  15
ATOM      5  O   UNL     1      -0.377  -2.717  25.497  0.00  0.00    -0.336 OA
ATOM      8  N   UNL     1      -0.611  -0.963  24.123  0.00  0.00    -0.190 NA
ATOM      9  N   UNL     1       0.920  -2.272  25.209  0.00  0.00    -0.056 NA
ATOM     15  C   UNL     1      -1.217  -1.893  24.818  0.00  0.00    +0.245 A 
ATOM     19  C   UNL     1       0.699  -1.236  24.395  0.00  0.00    +0.202 A 
BRANCH  19  22
ATOM     22  C   UNL     1       1.762  -0.453  23.835  0.00  0.00    +0.023 A 
ATOM     24  C   UNL     1       3.072  -0.933  23.863  0.00  0.00    +0.015 A 
ATOM     25  C   UNL     1       1.486   0.788  23.261  0.00  0.00    +0.012 A 
ATOM     26  C   UNL     1       4.105  -0.172  23.317  0.00  0.00    -0.050 A 
ATOM     27  C   UNL     1       2.519   1.549  22.715  0.00  0.00    +0.001 A 
ATOM     28  C   UNL     1       3.829   1.070  22.743  0.00  0.00    +0.003 A 
ATOM     29  C   UNL     1       5.505  -0.683  23.346  0.00  0.00    +0.044 C 
ENDBRANCH  19  22
ENDBRANCH  10  15
BRANCH  12   4
ATOM      4  O   UNL     1      -5.377  -3.540  22.982  0.00  0.00    -0.390 OA
ATOM     31  H   UNL     1      -5.016  -4.228  22.398  0.00  0.00    +0.210 HD
ENDBRANCH  12   4
BRANCH   7  14
ATOM     14  C   UNL     1      -3.713  -0.107  25.812  0.00  0.00    +0.120 C 
BRANCH  14  16
ATOM     16  C   UNL     1      -3.945   1.321  25.394  0.00  0.00    -0.030 A 
ATOM     17  C   UNL     1      -2.888   2.081  24.891  0.00  0.00    +0.051 A 
ATOM     18  C   UNL     1      -5.215   1.884  25.510  0.00  0.00    +0.005 A 
ATOM     20  C   UNL     1      -3.102   3.404  24.505  0.00  0.00    +0.130 A 
ATOM     21  C   UNL     1      -5.430   3.207  25.124  0.00  0.00    +0.004 A 
ATOM     23  C   UNL     1      -4.374   3.966  24.621  0.00  0.00    +0.046 A 
BRANCH  20   6
ATOM      6  O   UNL     1      -2.071   4.145  24.016  0.00  0.00    -0.406 OA
BRANCH   6  30
ATOM      1  F   UNL     1      -1.667   5.729  25.615  0.00  0.00    -0.133 F 
ATOM      2  F   UNL     1      -0.061   5.143  24.254  0.00  0.00    -0.133 F 
ATOM      3  F   UNL     1      -0.706   3.749  25.807  0.00  0.00    -0.133 F 
ATOM     30  C   UNL     1      -1.135   4.689  24.939  0.00  0.00    +0.575 C 
ENDBRANCH   6  30
ENDBRANCH  20   6
ENDBRANCH  14  16
ENDBRANCH   7  14
TORSDOF 7
ENDMDL
MODEL 9
REMARK VINA RESULT:       1.3      1.869      2.403
REMARK  Name = 26743884
REMARK  8 active torsions:
REMARK  status: ('A' for Active; 'I' for Inactive)
REMARK    1  A    between atoms: O_4  and  C_12
REMARK    2  A    between atoms: O_6  and  C_20
REMARK    3  A    between atoms: O_6  and  C_30
REMARK    4  A    between atoms: N_7  and  C_14
REMARK    5  A    between atoms: C_10  and  C_15
REMARK    6  A    between atoms: C_14  and  C_16
REMARK    7  A    between atoms: C_19  and  C_22
REMARK    8  A    between atoms: C_26  and  C_29
REMARK                            x       y       z     vdW  Elec       q    Type
REMARK                         _______ _______ _______ _____ _____    ______ ____
ROOT
ATOM      7  N   UNL     1      -4.334   2.060  25.532  0.00  0.00    -0.285 NA
ATOM     10  C   UNL     1      -3.790   2.605  24.272  0.00  0.00    +0.149 C 
ATOM     11  C   UNL     1      -4.172   4.096  24.290  0.00  0.00    +0.061 C 
ATOM     12  C   UNL     1      -4.967   4.285  25.577  0.00  0.00    +0.130 C 
ATOM     13  C   UNL     1      -5.485   2.892  25.880  0.00  0.00    +0.116 C 
ENDROOT
BRANCH  10  15
ATOM      5  O   UNL     1      -1.496   3.220  24.847  0.00  0.00    -0.336 OA
ATOM      8  N   UNL     1      -1.651   1.494  23.427  0.00  0.00    -0.190 NA
ATOM      9  N   UNL     1      -0.181   2.828  24.566  0.00  0.00    -0.056 NA
ATOM     15  C   UNL     1      -2.298   2.384  24.137  0.00  0.00    +0.245 A 
ATOM     19  C   UNL     1      -0.355   1.807  23.722  0.00  0.00    +0.202 A 
BRANCH  19  22
ATOM     22  C   UNL     1       0.742   1.076  23.156  0.00  0.00    +0.023 A 
ATOM     24  C   UNL     1       2.054   1.434  23.468  0.00  0.00    +0.015 A 
ATOM     25  C   UNL     1       0.496   0.006  22.295  0.00  0.00    +0.012 A 
ATOM     26  C   UNL     1       3.120   0.722  22.918  0.00  0.00    -0.050 A 
ATOM     27  C   UNL     1       1.563  -0.705  21.745  0.00  0.00    +0.001 A 
ATOM     28  C   UNL     1       2.874  -0.348  22.057  0.00  0.00    +0.003 A 
ATOM     29  C   UNL     1       4.523   1.104  23.250  0.00  0.00    +0.044 C 
ENDBRANCH  19  22
ENDBRANCH  10  15
BRANCH  12   4
ATOM      4  O   UNL     1      -6.022   5.207  25.384  0.00  0.00    -0.390 OA
ATOM     31  H   UNL     1      -6.336   5.106  24.470  0.00  0.00    +0.210 HD
ENDBRANCH  12   4
BRANCH   7  14
ATOM     14  C   UNL     1      -4.683   0.649  25.444  0.00  0.00    +0.120 C 
BRANCH  14  16
ATOM     16  C   UNL     1      -3.462  -0.230  25.400  0.00  0.00    -0.030 A 
ATOM     17  C   UNL     1      -3.430  -1.336  24.550  0.00  0.00    +0.051 A 
ATOM     18  C   UNL     1      -2.363   0.061  26.207  0.00  0.00    +0.005 A 
ATOM     20  C   UNL     1      -2.299  -2.152  24.509  0.00  0.00    +0.130 A 
ATOM     21  C   UNL     1      -1.232  -0.755  26.167  0.00  0.00    +0.004 A 
ATOM     23  C   UNL     1      -1.200  -1.860  25.318  0.00  0.00    +0.046 A 
BRANCH  20   6
ATOM      6  O   UNL     1      -2.269  -3.231  23.681  0.00  0.00    -0.406 OA
BRANCH   6  30
ATOM      1  F   UNL     1      -4.350  -3.166  22.736  0.00  0.00    -0.133 F 
ATOM      2  F   UNL     1      -4.061  -4.228  24.624  0.00  0.00    -0.133 F 
ATOM      3  F   UNL     1      -3.258  -5.087  22.783  0.00  0.00    -0.133 F 
ATOM     30  C   UNL     1      -3.485  -3.928  23.438  0.00  0.00    +0.575 C 
ENDBRANCH   6  30
ENDBRANCH  20   6
ENDBRANCH  14  16
ENDBRANCH   7  14
TORSDOF 7
ENDMDL
