MODEL 1
REMARK VINA RESULT:      -2.0      0.000      0.000
REMARK  Name = 45784270
REMARK  4 active torsions:
REMARK  status: ('A' for Active; 'I' for Inactive)
REMARK    1  A    between atoms: N_4  and  C_13
REMARK    2  A    between atoms: C_8  and  C_12
REMARK    3  A    between atoms: C_13  and  C_15
REMARK    4  A    between atoms: C_21  and  C_25
REMARK                            x       y       z     vdW  Elec       q    Type
REMARK                         _______ _______ _______ _____ _____    ______ ____
ROOT
ATOM      5  N   UNL     1      -3.460 -10.153  15.244  0.00  0.00    -0.342 N 
ATOM      6  N   UNL     1      -5.306 -10.605  14.094  0.00  0.00    -0.232 NA
ATOM     12  C   UNL     1      -4.775 -10.520  15.293  0.00  0.00    +0.113 A 
ATOM     14  C   UNL     1      -3.117  -9.990  13.927  0.00  0.00    +0.067 A 
ATOM     16  C   UNL     1      -4.288 -10.277  13.228  0.00  0.00    +0.089 A 
ATOM     17  C   UNL     1      -1.923  -9.627  13.305  0.00  0.00    +0.040 A 
ATOM     18  C   UNL     1      -4.283 -10.203  11.824  0.00  0.00    +0.030 A 
ATOM     21  C   UNL     1      -1.936  -9.558  11.908  0.00  0.00    +0.057 A 
ATOM     22  C   UNL     1      -3.093  -9.841  11.179  0.00  0.00    +0.014 A 
ATOM     26  H   UNL     1      -2.844 -10.024  16.037  0.00  0.00    +0.167 HD
ENDROOT
BRANCH  12   8
ATOM      4  N   UNL     1      -7.430 -10.314  17.810  0.00  0.00    -0.297 NA
ATOM      8  C   UNL     1      -5.471 -10.781  16.608  0.00  0.00    +0.070 C 
ATOM      9  C   UNL     1      -5.164  -9.759  17.717  0.00  0.00    +0.028 C 
ATOM     10  C   UNL     1      -7.001 -10.775  16.488  0.00  0.00    +0.096 C 
ATOM     11  C   UNL     1      -6.522  -9.215  18.138  0.00  0.00    +0.085 C 
BRANCH   4  13
ATOM     13  C   UNL     1      -8.827  -9.903  17.828  0.00  0.00    +0.119 C 
BRANCH  13  15
ATOM      7  N   UNL     1     -10.320  -9.138  13.868  0.00  0.00    -0.263 NA
ATOM     15  C   UNL     1      -9.350  -9.636  16.442  0.00  0.00    -0.031 A 
ATOM     19  C   UNL     1      -9.638 -10.694  15.588  0.00  0.00    +0.024 A 
ATOM     20  C   UNL     1      -9.547  -8.329  16.011  0.00  0.00    +0.024 A 
ATOM     23  C   UNL     1     -10.116 -10.395  14.323  0.00  0.00    +0.111 A 
ATOM     24  C   UNL     1     -10.029  -8.135  14.726  0.00  0.00    +0.111 A 
ENDBRANCH  13  15
ENDBRANCH   4  13
ENDBRANCH  12   8
BRANCH  21  25
ATOM      1  F   UNL     1      -0.079  -8.084  11.732  0.00  0.00    -0.166 F 
ATOM      2  F   UNL     1       0.259 -10.157  11.170  0.00  0.00    -0.166 F 
ATOM      3  F   UNL     1      -0.894  -8.859   9.871  0.00  0.00    -0.166 F 
ATOM     25  C   UNL     1      -0.688  -9.174  11.183  0.00  0.00    +0.417 C 
ENDBRANCH  21  25
TORSDOF 4
ENDMDL
MODEL 2
REMARK VINA RESULT:      -2.0     13.405     15.085
REMARK  Name = 45784270
REMARK  4 active torsions:
REMARK  status: ('A' for Active; 'I' for Inactive)
REMARK    1  A    between atoms: N_4  and  C_13
REMARK    2  A    between atoms: C_8  and  C_12
REMARK    3  A    between atoms: C_13  and  C_15
REMARK    4  A    between atoms: C_21  and  C_25
REMARK                            x       y       z     vdW  Elec       q    Type
REMARK                         _______ _______ _______ _____ _____    ______ ____
ROOT
ATOM      5  N   UNL     1       0.927   1.917  24.444  0.00  0.00    -0.342 N 
ATOM      6  N   UNL     1      -0.144   0.815  22.839  0.00  0.00    -0.232 NA
ATOM     12  C   UNL     1      -0.272   1.655  23.841  0.00  0.00    +0.113 A 
ATOM     14  C   UNL     1       1.892   1.197  23.790  0.00  0.00    +0.067 A 
ATOM     16  C   UNL     1       1.199   0.518  22.791  0.00  0.00    +0.089 A 
ATOM     17  C   UNL     1       3.269   1.085  23.978  0.00  0.00    +0.040 A 
ATOM     18  C   UNL     1       1.907  -0.328  21.920  0.00  0.00    +0.030 A 
ATOM     21  C   UNL     1       3.958   0.239  23.102  0.00  0.00    +0.057 A 
ATOM     22  C   UNL     1       3.291  -0.456  22.092  0.00  0.00    +0.014 A 
ATOM     26  H   UNL     1       1.078   2.531  25.235  0.00  0.00    +0.167 HD
ENDROOT
BRANCH  12   8
ATOM      4  N   UNL     1      -3.787   1.830  24.860  0.00  0.00    -0.297 NA
ATOM      8  C   UNL     1      -1.552   2.296  24.324  0.00  0.00    +0.070 C 
ATOM      9  C   UNL     1      -2.470   2.829  23.211  0.00  0.00    +0.028 C 
ATOM     10  C   UNL     1      -2.436   1.333  25.129  0.00  0.00    +0.096 C 
ATOM     11  C   UNL     1      -3.802   2.123  23.426  0.00  0.00    +0.085 C 
BRANCH   4  13
ATOM     13  C   UNL     1      -4.816   0.873  25.240  0.00  0.00    +0.119 C 
BRANCH  13  15
ATOM      7  N   UNL     1      -3.529  -3.185  24.632  0.00  0.00    -0.263 NA
ATOM     15  C   UNL     1      -4.366  -0.548  25.028  0.00  0.00    -0.031 A 
ATOM     19  C   UNL     1      -3.657  -1.211  26.022  0.00  0.00    +0.024 A 
ATOM     20  C   UNL     1      -4.657  -1.201  23.836  0.00  0.00    +0.024 A 
ATOM     23  C   UNL     1      -3.264  -2.517  25.778  0.00  0.00    +0.111 A 
ATOM     24  C   UNL     1      -4.220  -2.508  23.689  0.00  0.00    +0.111 A 
ENDBRANCH  13  15
ENDBRANCH   4  13
ENDBRANCH  12   8
BRANCH  21  25
ATOM      1  F   UNL     1       5.766  -0.930  24.111  0.00  0.00    -0.166 F 
ATOM      2  F   UNL     1       6.075  -0.211  22.082  0.00  0.00    -0.166 F 
ATOM      3  F   UNL     1       6.059   1.192  23.737  0.00  0.00    -0.166 F 
ATOM     25  C   UNL     1       5.436   0.078  23.253  0.00  0.00    +0.417 C 
ENDBRANCH  21  25
TORSDOF 4
ENDMDL
MODEL 3
REMARK VINA RESULT:      -1.5     13.943     15.232
REMARK  Name = 45784270
REMARK  4 active torsions:
REMARK  status: ('A' for Active; 'I' for Inactive)
REMARK    1  A    between atoms: N_4  and  C_13
REMARK    2  A    between atoms: C_8  and  C_12
REMARK    3  A    between atoms: C_13  and  C_15
REMARK    4  A    between atoms: C_21  and  C_25
REMARK                            x       y       z     vdW  Elec       q    Type
REMARK                         _______ _______ _______ _____ _____    ______ ____
ROOT
ATOM      5  N   UNL     1       0.451  -1.461  24.078  0.00  0.00    -0.342 N 
ATOM      6  N   UNL     1      -0.425   0.520  23.584  0.00  0.00    -0.232 NA
ATOM     12  C   UNL     1      -0.686  -0.713  23.957  0.00  0.00    +0.113 A 
ATOM     14  C   UNL     1       1.517  -0.659  23.762  0.00  0.00    +0.067 A 
ATOM     16  C   UNL     1       0.944   0.573  23.458  0.00  0.00    +0.089 A 
ATOM     17  C   UNL     1       2.890  -0.897  23.718  0.00  0.00    +0.040 A 
ATOM     18  C   UNL     1       1.777   1.642  23.085  0.00  0.00    +0.030 A 
ATOM     21  C   UNL     1       3.704   0.178  23.345  0.00  0.00    +0.057 A 
ATOM     22  C   UNL     1       3.159   1.425  23.033  0.00  0.00    +0.014 A 
ATOM     26  H   UNL     1       0.501  -2.435  24.350  0.00  0.00    +0.167 HD
ENDROOT
BRANCH  12   8
ATOM      4  N   UNL     1      -4.290  -0.726  24.620  0.00  0.00    -0.297 NA
ATOM      8  C   UNL     1      -2.049  -1.302  24.236  0.00  0.00    +0.070 C 
ATOM      9  C   UNL     1      -2.380  -1.489  25.727  0.00  0.00    +0.028 C 
ATOM     10  C   UNL     1      -3.197  -0.443  23.688  0.00  0.00    +0.096 C 
ATOM     11  C   UNL     1      -3.669  -0.708  25.945  0.00  0.00    +0.085 C 
BRANCH   4  13
ATOM     13  C   UNL     1      -5.380   0.232  24.505  0.00  0.00    +0.119 C 
BRANCH  13  15
ATOM      7  N   UNL     1      -4.038   4.268  25.139  0.00  0.00    -0.263 NA
ATOM     15  C   UNL     1      -4.910   1.645  24.728  0.00  0.00    -0.031 A 
ATOM     19  C   UNL     1      -5.498   2.429  25.713  0.00  0.00    +0.024 A 
ATOM     20  C   UNL     1      -3.886   2.170  23.947  0.00  0.00    +0.024 A 
ATOM     23  C   UNL     1      -5.030   3.722  25.878  0.00  0.00    +0.111 A 
ATOM     24  C   UNL     1      -3.490   3.475  24.191  0.00  0.00    +0.111 A 
ENDBRANCH  13  15
ENDBRANCH   4  13
ENDBRANCH  12   8
BRANCH  21  25
ATOM      1  F   UNL     1       5.867   0.948  23.961  0.00  0.00    -0.166 F 
ATOM      2  F   UNL     1       5.604  -1.204  23.801  0.00  0.00    -0.166 F 
ATOM      3  F   UNL     1       5.681   0.013  22.007  0.00  0.00    -0.166 F 
ATOM     25  C   UNL     1       5.184  -0.015  23.279  0.00  0.00    +0.417 C 
ENDBRANCH  21  25
TORSDOF 4
ENDMDL
MODEL 4
REMARK VINA RESULT:      -1.4      2.296      3.319
REMARK  Name = 45784270
REMARK  4 active torsions:
REMARK  status: ('A' for Active; 'I' for Inactive)
REMARK    1  A    between atoms: N_4  and  C_13
REMARK    2  A    between atoms: C_8  and  C_12
REMARK    3  A    between atoms: C_13  and  C_15
REMARK    4  A    between atoms: C_21  and  C_25
REMARK                            x       y       z     vdW  Elec       q    Type
REMARK                         _______ _______ _______ _____ _____    ______ ____
ROOT
ATOM      5  N   UNL     1      -1.705  -9.305  14.574  0.00  0.00    -0.342 N 
ATOM      6  N   UNL     1      -2.505 -10.346  12.781  0.00  0.00    -0.232 NA
ATOM     12  C   UNL     1      -2.649 -10.158  14.073  0.00  0.00    +0.113 A 
ATOM     14  C   UNL     1      -0.898  -8.918  13.536  0.00  0.00    +0.067 A 
ATOM     16  C   UNL     1      -1.418  -9.580  12.427  0.00  0.00    +0.089 A 
ATOM     17  C   UNL     1       0.208  -8.070  13.472  0.00  0.00    +0.040 A 
ATOM     18  C   UNL     1      -0.811  -9.398  11.173  0.00  0.00    +0.030 A 
ATOM     21  C   UNL     1       0.800  -7.900  12.217  0.00  0.00    +0.057 A 
ATOM     22  C   UNL     1       0.302  -8.552  11.086  0.00  0.00    +0.014 A 
ATOM     26  H   UNL     1      -1.615  -9.011  15.538  0.00  0.00    +0.167 HD
ENDROOT
BRANCH  12   8
ATOM      4  N   UNL     1      -5.774 -10.342  15.979  0.00  0.00    -0.297 NA
ATOM      8  C   UNL     1      -3.704 -10.773  14.964  0.00  0.00    +0.070 C 
ATOM      9  C   UNL     1      -3.499 -10.535  16.470  0.00  0.00    +0.028 C 
ATOM     10  C   UNL     1      -5.115 -10.242  14.675  0.00  0.00    +0.096 C 
ATOM     11  C   UNL     1      -4.781  -9.861  16.940  0.00  0.00    +0.085 C 
BRANCH   4  13
ATOM     13  C   UNL     1      -7.013  -9.580  16.034  0.00  0.00    +0.119 C 
BRANCH  13  15
ATOM      7  N   UNL     1      -9.392 -10.643  19.456  0.00  0.00    -0.263 NA
ATOM     15  C   UNL     1      -7.846  -9.952  17.232  0.00  0.00    -0.031 A 
ATOM     19  C   UNL     1      -7.236 -10.450  18.378  0.00  0.00    +0.024 A 
ATOM     20  C   UNL     1      -9.227  -9.799  17.196  0.00  0.00    +0.024 A 
ATOM     23  C   UNL     1      -8.046 -10.778  19.453  0.00  0.00    +0.111 A 
ATOM     24  C   UNL     1      -9.949 -10.156  18.324  0.00  0.00    +0.111 A 
ENDBRANCH  13  15
ENDBRANCH   4  13
ENDBRANCH  12   8
BRANCH  21  25
ATOM      1  F   UNL     1       1.647  -5.685  12.049  0.00  0.00    -0.166 F 
ATOM      2  F   UNL     1       2.881  -7.127  13.109  0.00  0.00    -0.166 F 
ATOM      3  F   UNL     1       2.714  -7.227  10.949  0.00  0.00    -0.166 F 
ATOM     25  C   UNL     1       1.988  -7.004  12.084  0.00  0.00    +0.417 C 
ENDBRANCH  21  25
TORSDOF 4
ENDMDL
MODEL 5
REMARK VINA RESULT:      -0.9      1.958      2.864
REMARK  Name = 45784270
REMARK  4 active torsions:
REMARK  status: ('A' for Active; 'I' for Inactive)
REMARK    1  A    between atoms: N_4  and  C_13
REMARK    2  A    between atoms: C_8  and  C_12
REMARK    3  A    between atoms: C_13  and  C_15
REMARK    4  A    between atoms: C_21  and  C_25
REMARK                            x       y       z     vdW  Elec       q    Type
REMARK                         _______ _______ _______ _____ _____    ______ ____
ROOT
ATOM      5  N   UNL     1      -1.765  -9.264  14.628  0.00  0.00    -0.342 N 
ATOM      6  N   UNL     1      -2.515 -10.391  12.866  0.00  0.00    -0.232 NA
ATOM     12  C   UNL     1      -2.677 -10.164  14.150  0.00  0.00    +0.113 A 
ATOM     14  C   UNL     1      -0.961  -8.887  13.584  0.00  0.00    +0.067 A 
ATOM     16  C   UNL     1      -1.450  -9.603  12.495  0.00  0.00    +0.089 A 
ATOM     17  C   UNL     1       0.118  -8.007  13.500  0.00  0.00    +0.040 A 
ATOM     18  C   UNL     1      -0.837  -9.445  11.240  0.00  0.00    +0.030 A 
ATOM     21  C   UNL     1       0.716  -7.861  12.244  0.00  0.00    +0.057 A 
ATOM     22  C   UNL     1       0.249  -8.566  11.133  0.00  0.00    +0.014 A 
ATOM     26  H   UNL     1      -1.692  -8.934  15.583  0.00  0.00    +0.167 HD
ENDROOT
BRANCH  12   8
ATOM      4  N   UNL     1      -5.643 -10.283  16.298  0.00  0.00    -0.297 NA
ATOM      8  C   UNL     1      -3.719 -10.781  15.053  0.00  0.00    +0.070 C 
ATOM      9  C   UNL     1      -3.372 -10.761  16.552  0.00  0.00    +0.028 C 
ATOM     10  C   UNL     1      -5.081 -10.080  14.961  0.00  0.00    +0.096 C 
ATOM     11  C   UNL     1      -4.532 -10.031  17.215  0.00  0.00    +0.085 C 
BRANCH   4  13
ATOM     13  C   UNL     1      -6.784  -9.416  16.557  0.00  0.00    +0.119 C 
BRANCH  13  15
ATOM      7  N   UNL     1     -10.298 -10.718  14.447  0.00  0.00    -0.263 NA
ATOM     15  C   UNL     1      -8.014  -9.872  15.819  0.00  0.00    -0.031 A 
ATOM     19  C   UNL     1      -8.030  -9.881  14.429  0.00  0.00    +0.024 A 
ATOM     20  C   UNL     1      -9.138 -10.287  16.524  0.00  0.00    +0.024 A 
ATOM     23  C   UNL     1      -9.186 -10.308  13.796  0.00  0.00    +0.111 A 
ATOM     24  C   UNL     1     -10.245 -10.696  15.798  0.00  0.00    +0.111 A 
ENDBRANCH  13  15
ENDBRANCH   4  13
ENDBRANCH  12   8
BRANCH  21  25
ATOM      1  F   UNL     1       2.460  -7.026  10.862  0.00  0.00    -0.166 F 
ATOM      2  F   UNL     1       1.546  -5.617  12.243  0.00  0.00    -0.166 F 
ATOM      3  F   UNL     1       2.877  -7.158  12.991  0.00  0.00    -0.166 F 
ATOM     25  C   UNL     1       1.876  -6.933  12.090  0.00  0.00    +0.417 C 
ENDBRANCH  21  25
TORSDOF 4
ENDMDL
MODEL 6
REMARK VINA RESULT:       0.1     14.007     15.483
REMARK  Name = 45784270
REMARK  4 active torsions:
REMARK  status: ('A' for Active; 'I' for Inactive)
REMARK    1  A    between atoms: N_4  and  C_13
REMARK    2  A    between atoms: C_8  and  C_12
REMARK    3  A    between atoms: C_13  and  C_15
REMARK    4  A    between atoms: C_21  and  C_25
REMARK                            x       y       z     vdW  Elec       q    Type
REMARK                         _______ _______ _______ _____ _____    ______ ____
ROOT
ATOM      5  N   UNL     1      -0.973   0.339  23.450  0.00  0.00    -0.342 N 
ATOM      6  N   UNL     1      -0.788  -1.661  24.401  0.00  0.00    -0.232 NA
ATOM     12  C   UNL     1      -1.621  -0.715  24.031  0.00  0.00    +0.113 A 
ATOM     14  C   UNL     1       0.369   0.055  23.445  0.00  0.00    +0.067 A 
ATOM     16  C   UNL     1       0.458  -1.199  24.043  0.00  0.00    +0.089 A 
ATOM     17  C   UNL     1       1.477   0.764  22.982  0.00  0.00    +0.040 A 
ATOM     18  C   UNL     1       1.722  -1.795  24.198  0.00  0.00    +0.030 A 
ATOM     21  C   UNL     1       2.726   0.156  23.143  0.00  0.00    +0.057 A 
ATOM     22  C   UNL     1       2.849  -1.100  23.741  0.00  0.00    +0.014 A 
ATOM     26  H   UNL     1      -1.402   1.181  23.087  0.00  0.00    +0.167 HD
ENDROOT
BRANCH  12   8
ATOM      4  N   UNL     1      -4.945   0.645  24.758  0.00  0.00    -0.297 NA
ATOM      8  C   UNL     1      -3.123  -0.720  24.194  0.00  0.00    +0.070 C 
ATOM      9  C   UNL     1      -3.620  -1.082  25.604  0.00  0.00    +0.028 C 
ATOM     10  C   UNL     1      -3.762   0.644  23.895  0.00  0.00    +0.096 C 
ATOM     11  C   UNL     1      -4.481   0.098  26.034  0.00  0.00    +0.085 C 
BRANCH   4  13
ATOM     13  C   UNL     1      -5.526   1.972  24.903  0.00  0.00    +0.119 C 
BRANCH  13  15
ATOM      7  N   UNL     1      -2.505   5.006  25.313  0.00  0.00    -0.263 NA
ATOM     15  C   UNL     1      -4.468   3.034  25.046  0.00  0.00    -0.031 A 
ATOM     19  C   UNL     1      -4.055   3.441  26.310  0.00  0.00    +0.024 A 
ATOM     20  C   UNL     1      -3.900   3.611  23.916  0.00  0.00    +0.024 A 
ATOM     23  C   UNL     1      -3.080   4.421  26.389  0.00  0.00    +0.111 A 
ATOM     24  C   UNL     1      -2.931   4.584  24.101  0.00  0.00    +0.111 A 
ENDBRANCH  13  15
ENDBRANCH   4  13
ENDBRANCH  12   8
BRANCH  21  25
ATOM      1  F   UNL     1       3.811   2.222  22.689  0.00  0.00    -0.166 F 
ATOM      2  F   UNL     1       5.061   0.599  23.416  0.00  0.00    -0.166 F 
ATOM      3  F   UNL     1       4.299   0.553  21.386  0.00  0.00    -0.166 F 
ATOM     25  C   UNL     1       3.951   0.866  22.668  0.00  0.00    +0.417 C 
ENDBRANCH  21  25
TORSDOF 4
ENDMDL
MODEL 7
REMARK VINA RESULT:       0.4     14.833     17.681
REMARK  Name = 45784270
REMARK  4 active torsions:
REMARK  status: ('A' for Active; 'I' for Inactive)
REMARK    1  A    between atoms: N_4  and  C_13
REMARK    2  A    between atoms: C_8  and  C_12
REMARK    3  A    between atoms: C_13  and  C_15
REMARK    4  A    between atoms: C_21  and  C_25
REMARK                            x       y       z     vdW  Elec       q    Type
REMARK                         _______ _______ _______ _____ _____    ______ ____
ROOT
ATOM      5  N   UNL     1      -2.378   0.214  24.152  0.00  0.00    -0.342 N 
ATOM      6  N   UNL     1      -0.883   1.816  24.520  0.00  0.00    -0.232 NA
ATOM     12  C   UNL     1      -1.066   0.591  24.083  0.00  0.00    +0.113 A 
ATOM     14  C   UNL     1      -3.090   1.267  24.668  0.00  0.00    +0.067 A 
ATOM     16  C   UNL     1      -2.134   2.255  24.889  0.00  0.00    +0.089 A 
ATOM     17  C   UNL     1      -4.445   1.435  24.951  0.00  0.00    +0.040 A 
ATOM     18  C   UNL     1      -2.537   3.490  25.424  0.00  0.00    +0.030 A 
ATOM     21  C   UNL     1      -4.829   2.670  25.483  0.00  0.00    +0.057 A 
ATOM     22  C   UNL     1      -3.894   3.680  25.717  0.00  0.00    +0.014 A 
ATOM     26  H   UNL     1      -2.760  -0.680  23.874  0.00  0.00    +0.167 HD
ENDROOT
BRANCH  12   8
ATOM      4  N   UNL     1       2.048  -0.397  22.423  0.00  0.00    -0.297 NA
ATOM      8  C   UNL     1      -0.006  -0.348  23.555  0.00  0.00    +0.070 C 
ATOM      9  C   UNL     1      -0.227  -0.825  22.109  0.00  0.00    +0.028 C 
ATOM     10  C   UNL     1       1.396   0.277  23.548  0.00  0.00    +0.096 C 
ATOM     11  C   UNL     1       1.039  -0.421  21.364  0.00  0.00    +0.085 C 
BRANCH   4  13
ATOM     13  C   UNL     1       3.272   0.273  22.008  0.00  0.00    +0.119 C 
BRANCH  13  15
ATOM      7  N   UNL     1       6.513  -0.481  24.732  0.00  0.00    -0.263 NA
ATOM     15  C   UNL     1       4.406   0.010  22.962  0.00  0.00    -0.031 A 
ATOM     19  C   UNL     1       5.277   1.035  23.311  0.00  0.00    +0.024 A 
ATOM     20  C   UNL     1       4.587  -1.261  23.496  0.00  0.00    +0.024 A 
ATOM     23  C   UNL     1       6.305   0.742  24.192  0.00  0.00    +0.111 A 
ATOM     24  C   UNL     1       5.646  -1.453  24.369  0.00  0.00    +0.111 A 
ENDBRANCH  13  15
ENDBRANCH   4  13
ENDBRANCH  12   8
BRANCH  21  25
ATOM      1  F   UNL     1      -7.111   2.263  24.954  0.00  0.00    -0.166 F 
ATOM      2  F   UNL     1      -6.621   2.498  27.059  0.00  0.00    -0.166 F 
ATOM      3  F   UNL     1      -6.626   4.227  25.749  0.00  0.00    -0.166 F 
ATOM     25  C   UNL     1      -6.267   2.911  25.807  0.00  0.00    +0.417 C 
ENDBRANCH  21  25
TORSDOF 4
ENDMDL
MODEL 8
REMARK VINA RESULT:       0.8      2.375      3.706
REMARK  Name = 45784270
REMARK  4 active torsions:
REMARK  status: ('A' for Active; 'I' for Inactive)
REMARK    1  A    between atoms: N_4  and  C_13
REMARK    2  A    between atoms: C_8  and  C_12
REMARK    3  A    between atoms: C_13  and  C_15
REMARK    4  A    between atoms: C_21  and  C_25
REMARK                            x       y       z     vdW  Elec       q    Type
REMARK                         _______ _______ _______ _____ _____    ______ ____
ROOT
ATOM      5  N   UNL     1      -1.981  -9.123  13.226  0.00  0.00    -0.342 N 
ATOM      6  N   UNL     1      -1.900 -10.385  11.399  0.00  0.00    -0.232 NA
ATOM     12  C   UNL     1      -2.580 -10.105  12.488  0.00  0.00    +0.113 A 
ATOM     14  C   UNL     1      -0.838  -8.745  12.571  0.00  0.00    +0.067 A 
ATOM     16  C   UNL     1      -0.810  -9.547  11.433  0.00  0.00    +0.089 A 
ATOM     17  C   UNL     1       0.144  -7.799  12.866  0.00  0.00    +0.040 A 
ATOM     18  C   UNL     1       0.254  -9.410  10.525  0.00  0.00    +0.030 A 
ATOM     21  C   UNL     1       1.195  -7.676  11.951  0.00  0.00    +0.057 A 
ATOM     22  C   UNL     1       1.251  -8.467  10.802  0.00  0.00    +0.014 A 
ATOM     26  H   UNL     1      -2.317  -8.741  14.101  0.00  0.00    +0.167 HD
ENDROOT
BRANCH  12   8
ATOM      4  N   UNL     1      -6.139 -10.294  13.342  0.00  0.00    -0.297 NA
ATOM      8  C   UNL     1      -3.873 -10.746  12.936  0.00  0.00    +0.070 C 
ATOM      9  C   UNL     1      -4.126 -10.704  14.453  0.00  0.00    +0.028 C 
ATOM     10  C   UNL     1      -5.114 -10.086  12.317  0.00  0.00    +0.096 C 
ATOM     11  C   UNL     1      -5.469 -10.003  14.609  0.00  0.00    +0.085 C 
BRANCH   4  13
ATOM     13  C   UNL     1      -7.313  -9.460  13.130  0.00  0.00    +0.119 C 
BRANCH  13  15
ATOM      7  N   UNL     1     -10.656 -10.769  15.498  0.00  0.00    -0.263 NA
ATOM     15  C   UNL     1      -8.483  -9.919  13.959  0.00  0.00    -0.031 A 
ATOM     19  C   UNL     1      -9.642 -10.371  13.339  0.00  0.00    +0.024 A 
ATOM     20  C   UNL     1      -8.408  -9.891  15.347  0.00  0.00    +0.024 A 
ATOM     23  C   UNL     1     -10.691 -10.781  14.146  0.00  0.00    +0.111 A 
ATOM     24  C   UNL     1      -9.512 -10.322  16.064  0.00  0.00    +0.111 A 
ENDBRANCH  13  15
ENDBRANCH   4  13
ENDBRANCH  12   8
BRANCH  21  25
ATOM      1  F   UNL     1       2.899  -6.884  13.408  0.00  0.00    -0.166 F 
ATOM      2  F   UNL     1       3.270  -6.695  11.274  0.00  0.00    -0.166 F 
ATOM      3  F   UNL     1       1.834  -5.389  12.242  0.00  0.00    -0.166 F 
ATOM     25  C   UNL     1       2.278  -6.680  12.211  0.00  0.00    +0.417 C 
ENDBRANCH  21  25
TORSDOF 4
ENDMDL
MODEL 9
REMARK VINA RESULT:       0.8      3.198      4.539
REMARK  Name = 45784270
REMARK  4 active torsions:
REMARK  status: ('A' for Active; 'I' for Inactive)
REMARK    1  A    between atoms: N_4  and  C_13
REMARK    2  A    between atoms: C_8  and  C_12
REMARK    3  A    between atoms: C_13  and  C_15
REMARK    4  A    between atoms: C_21  and  C_25
REMARK                            x       y       z     vdW  Elec       q    Type
REMARK                         _______ _______ _______ _____ _____    ______ ____
ROOT
ATOM      5  N   UNL     1      -1.868  -9.168  13.119  0.00  0.00    -0.342 N 
ATOM      6  N   UNL     1      -1.793 -10.320  11.220  0.00  0.00    -0.232 NA
ATOM     12  C   UNL     1      -2.468 -10.106  12.327  0.00  0.00    +0.113 A 
ATOM     14  C   UNL     1      -0.729  -8.747  12.482  0.00  0.00    +0.067 A 
ATOM     16  C   UNL     1      -0.705  -9.481  11.299  0.00  0.00    +0.089 A 
ATOM     17  C   UNL     1       0.251  -7.817  12.828  0.00  0.00    +0.040 A 
ATOM     18  C   UNL     1       0.355  -9.287  10.395  0.00  0.00    +0.030 A 
ATOM     21  C   UNL     1       1.297  -7.637  11.917  0.00  0.00    +0.057 A 
ATOM     22  C   UNL     1       1.350  -8.359  10.723  0.00  0.00    +0.014 A 
ATOM     26  H   UNL     1      -2.202  -8.839  14.017  0.00  0.00    +0.167 HD
ENDROOT
BRANCH  12   8
ATOM      4  N   UNL     1      -6.033 -10.367  13.135  0.00  0.00    -0.297 NA
ATOM      8  C   UNL     1      -3.757 -10.777  12.742  0.00  0.00    +0.070 C 
ATOM      9  C   UNL     1      -4.027 -10.781  14.256  0.00  0.00    +0.028 C 
ATOM     10  C   UNL     1      -5.000 -10.116  12.128  0.00  0.00    +0.096 C 
ATOM     11  C   UNL     1      -5.381 -10.103  14.417  0.00  0.00    +0.085 C 
BRANCH   4  13
ATOM     13  C   UNL     1      -7.216  -9.543  12.933  0.00  0.00    +0.119 C 
BRANCH  13  15
ATOM      7  N   UNL     1      -8.867 -10.044   8.994  0.00  0.00    -0.263 NA
ATOM     15  C   UNL     1      -7.793  -9.719  11.554  0.00  0.00    -0.031 A 
ATOM     19  C   UNL     1      -7.258  -9.019  10.479  0.00  0.00    +0.024 A 
ATOM     20  C   UNL     1      -8.864 -10.581  11.351  0.00  0.00    +0.024 A 
ATOM     23  C   UNL     1      -7.826  -9.214   9.231  0.00  0.00    +0.111 A 
ATOM     24  C   UNL     1      -9.360 -10.708  10.064  0.00  0.00    +0.111 A 
ENDBRANCH  13  15
ENDBRANCH   4  13
ENDBRANCH  12   8
BRANCH  21  25
ATOM      1  F   UNL     1       2.939  -6.868  13.455  0.00  0.00    -0.166 F 
ATOM      2  F   UNL     1       3.414  -6.681  11.342  0.00  0.00    -0.166 F 
ATOM      3  F   UNL     1       1.949  -5.359  12.243  0.00  0.00    -0.166 F 
ATOM     25  C   UNL     1       2.378  -6.655  12.231  0.00  0.00    +0.417 C 
ENDBRANCH  21  25
TORSDOF 4
ENDMDL
MODEL 10
REMARK VINA RESULT:       1.9     15.298     18.051
REMARK  Name = 45784270
REMARK  4 active torsions:
REMARK  status: ('A' for Active; 'I' for Inactive)
REMARK    1  A    between atoms: N_4  and  C_13
REMARK    2  A    between atoms: C_8  and  C_12
REMARK    3  A    between atoms: C_13  and  C_15
REMARK    4  A    between atoms: C_21  and  C_25
REMARK                            x       y       z     vdW  Elec       q    Type
REMARK                         _______ _______ _______ _____ _____    ______ ____
ROOT
ATOM      5  N   UNL     1      -2.726   1.290  24.728  0.00  0.00    -0.342 N 
ATOM      6  N   UNL     1      -1.061   2.434  25.653  0.00  0.00    -0.232 NA
ATOM     12  C   UNL     1      -1.403   1.307  25.070  0.00  0.00    +0.113 A 
ATOM     14  C   UNL     1      -3.276   2.484  25.117  0.00  0.00    +0.067 A 
ATOM     16  C   UNL     1      -2.215   3.182  25.691  0.00  0.00    +0.089 A 
ATOM     17  C   UNL     1      -4.567   3.000  25.018  0.00  0.00    +0.040 A 
ATOM     18  C   UNL     1      -2.441   4.471  26.202  0.00  0.00    +0.030 A 
ATOM     21  C   UNL     1      -4.774   4.285  25.532  0.00  0.00    +0.057 A 
ATOM     22  C   UNL     1      -3.731   5.008  26.114  0.00  0.00    +0.014 A 
ATOM     26  H   UNL     1      -3.217   0.532  24.271  0.00  0.00    +0.167 HD
ENDROOT
BRANCH  12   8
ATOM      4  N   UNL     1       1.152  -0.635  23.302  0.00  0.00    -0.297 NA
ATOM      8  C   UNL     1      -0.501   0.130  24.780  0.00  0.00    +0.070 C 
ATOM      9  C   UNL     1      -1.102  -0.929  23.840  0.00  0.00    +0.028 C 
ATOM     10  C   UNL     1       0.819   0.539  24.110  0.00  0.00    +0.096 C 
ATOM     11  C   UNL     1      -0.113  -1.039  22.687  0.00  0.00    +0.085 C 
BRANCH   4  13
ATOM     13  C   UNL     1       2.184  -0.354  22.314  0.00  0.00    +0.119 C 
BRANCH  13  15
ATOM      7  N   UNL     1       6.087  -0.120  24.104  0.00  0.00    -0.263 NA
ATOM     15  C   UNL     1       3.551  -0.273  22.940  0.00  0.00    -0.031 A 
ATOM     19  C   UNL     1       4.069  -1.363  23.628  0.00  0.00    +0.024 A 
ATOM     20  C   UNL     1       4.299   0.894  22.833  0.00  0.00    +0.024 A 
ATOM     23  C   UNL     1       5.331  -1.237  24.188  0.00  0.00    +0.111 A 
ATOM     24  C   UNL     1       5.550   0.920  23.427  0.00  0.00    +0.111 A 
ENDBRANCH  13  15
ENDBRANCH   4  13
ENDBRANCH  12   8
BRANCH  21  25
ATOM      1  F   UNL     1      -6.512   5.481  26.626  0.00  0.00    -0.166 F 
ATOM      2  F   UNL     1      -6.249   5.863  24.502  0.00  0.00    -0.166 F 
ATOM      3  F   UNL     1      -7.120   3.990  25.166  0.00  0.00    -0.166 F 
ATOM     25  C   UNL     1      -6.137   4.892  25.455  0.00  0.00    +0.417 C 
ENDBRANCH  21  25
TORSDOF 4
ENDMDL
