MODEL 1
REMARK VINA RESULT:      -2.9      0.000      0.000
REMARK  Name = 51137305
REMARK  6 active torsions:
REMARK  status: ('A' for Active; 'I' for Inactive)
REMARK    1  A    between atoms: O_2  and  C_14
REMARK    2  A    between atoms: O_2  and  C_23
REMARK    3  A    between atoms: N_3  and  C_11
REMARK    4  A    between atoms: C_7  and  C_12
REMARK    5  A    between atoms: C_11  and  C_13
REMARK    6  A    between atoms: C_16  and  C_19
REMARK                            x       y       z     vdW  Elec       q    Type
REMARK                         _______ _______ _______ _____ _____    ______ ____
ROOT
ATOM      3  N   UNL     1      -3.422  -0.854  24.913  0.00  0.00    -0.297 NA
ATOM      7  C   UNL     1      -1.165  -1.277  24.439  0.00  0.00    +0.092 C 
ATOM      8  C   UNL     1      -1.278  -0.525  25.776  0.00  0.00    +0.029 C 
ATOM      9  C   UNL     1      -2.535  -1.093  23.773  0.00  0.00    +0.097 C 
ATOM     10  C   UNL     1      -2.683   0.063  25.781  0.00  0.00    +0.085 C 
ENDROOT
BRANCH   7  12
ATOM      1  O   UNL     1       1.228  -0.880  24.106  0.00  0.00    -0.420 OA
ATOM      4  N   UNL     1      -0.033  -0.414  22.316  0.00  0.00    -0.112 NA
ATOM      5  N   UNL     1       1.285  -0.147  21.993  0.00  0.00    -0.107 NA
ATOM     12  C   UNL     1      -0.018  -0.839  23.558  0.00  0.00    +0.222 A 
ATOM     16  C   UNL     1       1.984  -0.432  23.066  0.00  0.00    +0.248 A 
BRANCH  16  19
ATOM      6  N   UNL     1       6.146  -0.183  23.781  0.00  0.00    -0.263 NA
ATOM     19  C   UNL     1       3.395  -0.348  23.307  0.00  0.00    +0.041 A 
ATOM     21  C   UNL     1       4.084   0.826  23.022  0.00  0.00    +0.033 A 
ATOM     22  C   UNL     1       4.080  -1.440  23.829  0.00  0.00    +0.033 A 
ATOM     24  C   UNL     1       5.446   0.857  23.274  0.00  0.00    +0.111 A 
ATOM     25  C   UNL     1       5.443  -1.307  24.045  0.00  0.00    +0.111 A 
ENDBRANCH  16  19
ENDBRANCH   7  12
BRANCH   3  11
ATOM     11  C   UNL     1      -4.713  -0.315  24.510  0.00  0.00    +0.123 C 
BRANCH  11  13
ATOM     13  C   UNL     1      -4.822   1.158  24.802  0.00  0.00    +0.008 A 
ATOM     14  C   UNL     1      -4.087   2.088  24.066  0.00  0.00    +0.124 A 
ATOM     15  C   UNL     1      -5.670   1.591  25.822  0.00  0.00    +0.008 A 
ATOM     17  C   UNL     1      -4.199   3.449  24.350  0.00  0.00    +0.046 A 
ATOM     18  C   UNL     1      -5.783   2.951  26.106  0.00  0.00    +0.001 A 
ATOM     20  C   UNL     1      -5.047   3.880  25.370  0.00  0.00    +0.004 A 
BRANCH  14   2
ATOM      2  O   UNL     1      -3.252   1.683  23.067  0.00  0.00    -0.495 OA
ATOM     23  C   UNL     1      -1.990   2.339  22.971  0.00  0.00    +0.277 C 
ENDBRANCH  14   2
ENDBRANCH  11  13
ENDBRANCH   3  11
TORSDOF 5
ENDMDL
MODEL 2
REMARK VINA RESULT:      -2.6     18.040     19.605
REMARK  Name = 51137305
REMARK  6 active torsions:
REMARK  status: ('A' for Active; 'I' for Inactive)
REMARK    1  A    between atoms: O_2  and  C_14
REMARK    2  A    between atoms: O_2  and  C_23
REMARK    3  A    between atoms: N_3  and  C_11
REMARK    4  A    between atoms: C_7  and  C_12
REMARK    5  A    between atoms: C_11  and  C_13
REMARK    6  A    between atoms: C_16  and  C_19
REMARK                            x       y       z     vdW  Elec       q    Type
REMARK                         _______ _______ _______ _____ _____    ______ ____
ROOT
ATOM      3  N   UNL     1      17.224  -5.771  28.513  0.00  0.00    -0.297 NA
ATOM      7  C   UNL     1      16.972  -8.066  28.919  0.00  0.00    +0.092 C 
ATOM      8  C   UNL     1      16.259  -7.694  27.608  0.00  0.00    +0.029 C 
ATOM      9  C   UNL     1      17.214  -6.725  29.624  0.00  0.00    +0.097 C 
ATOM     10  C   UNL     1      16.112  -6.178  27.654  0.00  0.00    +0.085 C 
ENDROOT
BRANCH   7  12
ATOM      1  O   UNL     1      14.935  -8.774  30.079  0.00  0.00    -0.420 OA
ATOM      4  N   UNL     1      16.654 -10.188  30.309  0.00  0.00    -0.112 NA
ATOM      5  N   UNL     1      15.578 -10.705  31.008  0.00  0.00    -0.107 NA
ATOM     12  C   UNL     1      16.233  -9.061  29.784  0.00  0.00    +0.222 A 
ATOM     16  C   UNL     1      14.599  -9.847  30.846  0.00  0.00    +0.248 A 
BRANCH  16  19
ATOM      6  N   UNL     1      10.632  -9.905  32.313  0.00  0.00    -0.263 NA
ATOM     19  C   UNL     1      13.254  -9.866  31.343  0.00  0.00    +0.041 A 
ATOM     21  C   UNL     1      12.336 -10.781  30.839  0.00  0.00    +0.033 A 
ATOM     22  C   UNL     1      12.862  -8.971  32.333  0.00  0.00    +0.033 A 
ATOM     24  C   UNL     1      11.049 -10.760  31.352  0.00  0.00    +0.111 A 
ATOM     25  C   UNL     1      11.552  -9.031  32.779  0.00  0.00    +0.111 A 
ENDBRANCH  16  19
ENDBRANCH   7  12
BRANCH   3  11
ATOM     11  C   UNL     1      17.099  -4.392  28.964  0.00  0.00    +0.123 C 
BRANCH  11  13
ATOM     13  C   UNL     1      16.155  -4.267  30.130  0.00  0.00    +0.008 A 
ATOM     14  C   UNL     1      16.263  -3.201  31.024  0.00  0.00    +0.124 A 
ATOM     15  C   UNL     1      15.163  -5.231  30.311  0.00  0.00    +0.008 A 
ATOM     17  C   UNL     1      15.381  -3.100  32.099  0.00  0.00    +0.046 A 
ATOM     18  C   UNL     1      14.280  -5.129  31.386  0.00  0.00    +0.001 A 
ATOM     20  C   UNL     1      14.389  -4.064  32.280  0.00  0.00    +0.004 A 
BRANCH  14   2
ATOM      2  O   UNL     1      17.227  -2.251  30.863  0.00  0.00    -0.495 OA
ATOM     23  C   UNL     1      17.148  -1.100  31.699  0.00  0.00    +0.277 C 
ENDBRANCH  14   2
ENDBRANCH  11  13
ENDBRANCH   3  11
TORSDOF 5
ENDMDL
MODEL 3
REMARK VINA RESULT:      -2.4     17.820     19.417
REMARK  Name = 51137305
REMARK  6 active torsions:
REMARK  status: ('A' for Active; 'I' for Inactive)
REMARK    1  A    between atoms: O_2  and  C_14
REMARK    2  A    between atoms: O_2  and  C_23
REMARK    3  A    between atoms: N_3  and  C_11
REMARK    4  A    between atoms: C_7  and  C_12
REMARK    5  A    between atoms: C_11  and  C_13
REMARK    6  A    between atoms: C_16  and  C_19
REMARK                            x       y       z     vdW  Elec       q    Type
REMARK                         _______ _______ _______ _____ _____    ______ ____
ROOT
ATOM      3  N   UNL     1      16.353  -2.673  29.729  0.00  0.00    -0.297 NA
ATOM      7  C   UNL     1      15.040  -4.055  31.094  0.00  0.00    +0.092 C 
ATOM      8  C   UNL     1      15.703  -2.963  31.952  0.00  0.00    +0.029 C 
ATOM      9  C   UNL     1      15.818  -4.035  29.772  0.00  0.00    +0.097 C 
ATOM     10  C   UNL     1      16.828  -2.410  31.088  0.00  0.00    +0.085 C 
ENDROOT
BRANCH   7  12
ATOM      1  O   UNL     1      13.970  -6.241  31.365  0.00  0.00    -0.420 OA
ATOM      4  N   UNL     1      15.813  -5.967  32.604  0.00  0.00    -0.112 NA
ATOM      5  N   UNL     1      15.314  -7.233  32.853  0.00  0.00    -0.107 NA
ATOM     12  C   UNL     1      14.996  -5.425  31.731  0.00  0.00    +0.222 A 
ATOM     16  C   UNL     1      14.240  -7.349  32.109  0.00  0.00    +0.248 A 
BRANCH  16  19
ATOM      6  N   UNL     1      11.535 -10.572  31.672  0.00  0.00    -0.263 NA
ATOM     19  C   UNL     1      13.323  -8.442  31.962  0.00  0.00    +0.041 A 
ATOM     21  C   UNL     1      12.261  -8.587  32.846  0.00  0.00    +0.033 A 
ATOM     22  C   UNL     1      13.493  -9.361  30.932  0.00  0.00    +0.033 A 
ATOM     24  C   UNL     1      11.402  -9.659  32.661  0.00  0.00    +0.111 A 
ATOM     25  C   UNL     1      12.580 -10.399  30.832  0.00  0.00    +0.111 A 
ENDBRANCH  16  19
ENDBRANCH   7  12
BRANCH   3  11
ATOM     11  C   UNL     1      17.405  -2.520  28.735  0.00  0.00    +0.123 C 
BRANCH  11  13
ATOM     13  C   UNL     1      17.391  -3.636  27.726  0.00  0.00    +0.008 A 
ATOM     14  C   UNL     1      17.372  -3.362  26.359  0.00  0.00    +0.124 A 
ATOM     15  C   UNL     1      17.396  -4.959  28.171  0.00  0.00    +0.008 A 
ATOM     17  C   UNL     1      17.358  -4.408  25.436  0.00  0.00    +0.046 A 
ATOM     18  C   UNL     1      17.382  -6.005  27.249  0.00  0.00    +0.001 A 
ATOM     20  C   UNL     1      17.363  -5.730  25.882  0.00  0.00    +0.004 A 
BRANCH  14   2
ATOM      2  O   UNL     1      17.365  -2.076  25.905  0.00  0.00    -0.495 OA
ATOM     23  C   UNL     1      16.668  -1.821  24.688  0.00  0.00    +0.277 C 
ENDBRANCH  14   2
ENDBRANCH  11  13
ENDBRANCH   3  11
TORSDOF 5
ENDMDL
MODEL 4
REMARK VINA RESULT:      -2.4      1.506      2.434
REMARK  Name = 51137305
REMARK  6 active torsions:
REMARK  status: ('A' for Active; 'I' for Inactive)
REMARK    1  A    between atoms: O_2  and  C_14
REMARK    2  A    between atoms: O_2  and  C_23
REMARK    3  A    between atoms: N_3  and  C_11
REMARK    4  A    between atoms: C_7  and  C_12
REMARK    5  A    between atoms: C_11  and  C_13
REMARK    6  A    between atoms: C_16  and  C_19
REMARK                            x       y       z     vdW  Elec       q    Type
REMARK                         _______ _______ _______ _____ _____    ______ ____
ROOT
ATOM      3  N   UNL     1      -2.777   0.032  25.042  0.00  0.00    -0.297 NA
ATOM      7  C   UNL     1      -1.188  -0.944  23.621  0.00  0.00    +0.092 C 
ATOM      8  C   UNL     1      -1.028  -1.515  25.041  0.00  0.00    +0.029 C 
ATOM      9  C   UNL     1      -2.051   0.311  23.802  0.00  0.00    +0.097 C 
ATOM     10  C   UNL     1      -1.779  -0.544  25.943  0.00  0.00    +0.085 C 
ENDROOT
BRANCH   7  12
ATOM      1  O   UNL     1       1.242  -0.646  23.653  0.00  0.00    -0.420 OA
ATOM      4  N   UNL     1       0.325  -0.442  21.623  0.00  0.00    -0.112 NA
ATOM      5  N   UNL     1       1.689  -0.252  21.497  0.00  0.00    -0.107 NA
ATOM     12  C   UNL     1       0.110  -0.669  22.898  0.00  0.00    +0.222 A 
ATOM     16  C   UNL     1       2.183  -0.379  22.706  0.00  0.00    +0.248 A 
BRANCH  16  19
ATOM      6  N   UNL     1       6.172  -0.097  24.084  0.00  0.00    -0.263 NA
ATOM     19  C   UNL     1       3.535  -0.284  23.174  0.00  0.00    +0.041 A 
ATOM     21  C   UNL     1       4.146  -1.379  23.773  0.00  0.00    +0.033 A 
ATOM     22  C   UNL     1       4.241   0.906  23.029  0.00  0.00    +0.033 A 
ATOM     24  C   UNL     1       5.454  -1.237  24.207  0.00  0.00    +0.111 A 
ATOM     25  C   UNL     1       5.545   0.947  23.497  0.00  0.00    +0.111 A 
ENDBRANCH  16  19
ENDBRANCH   7  12
BRANCH   3  11
ATOM     11  C   UNL     1      -3.405   1.222  25.598  0.00  0.00    +0.123 C 
BRANCH  11  13
ATOM     13  C   UNL     1      -2.561   2.451  25.390  0.00  0.00    +0.008 A 
ATOM     14  C   UNL     1      -3.113   3.612  24.851  0.00  0.00    +0.124 A 
ATOM     15  C   UNL     1      -1.211   2.420  25.744  0.00  0.00    +0.008 A 
ATOM     17  C   UNL     1      -2.317   4.743  24.664  0.00  0.00    +0.046 A 
ATOM     18  C   UNL     1      -0.415   3.549  25.558  0.00  0.00    +0.001 A 
ATOM     20  C   UNL     1      -0.968   4.710  25.018  0.00  0.00    +0.004 A 
BRANCH  14   2
ATOM      2  O   UNL     1      -4.429   3.660  24.498  0.00  0.00    -0.495 OA
ATOM     23  C   UNL     1      -5.372   3.876  25.545  0.00  0.00    +0.277 C 
ENDBRANCH  14   2
ENDBRANCH  11  13
ENDBRANCH   3  11
TORSDOF 5
ENDMDL
MODEL 5
REMARK VINA RESULT:      -2.0     18.315     19.396
REMARK  Name = 51137305
REMARK  6 active torsions:
REMARK  status: ('A' for Active; 'I' for Inactive)
REMARK    1  A    between atoms: O_2  and  C_14
REMARK    2  A    between atoms: O_2  and  C_23
REMARK    3  A    between atoms: N_3  and  C_11
REMARK    4  A    between atoms: C_7  and  C_12
REMARK    5  A    between atoms: C_11  and  C_13
REMARK    6  A    between atoms: C_16  and  C_19
REMARK                            x       y       z     vdW  Elec       q    Type
REMARK                         _______ _______ _______ _____ _____    ______ ____
ROOT
ATOM      3  N   UNL     1      17.400  -3.719  28.188  0.00  0.00    -0.297 NA
ATOM      7  C   UNL     1      17.401  -6.031  27.801  0.00  0.00    +0.092 C 
ATOM      8  C   UNL     1      17.183  -5.287  26.472  0.00  0.00    +0.029 C 
ATOM      9  C   UNL     1      17.131  -4.978  28.884  0.00  0.00    +0.097 C 
ATOM     10  C   UNL     1      16.778  -3.874  26.873  0.00  0.00    +0.085 C 
ENDROOT
BRANCH   7  12
ATOM      1  O   UNL     1      15.840  -7.381  29.120  0.00  0.00    -0.420 OA
ATOM      4  N   UNL     1      16.430  -8.310  27.172  0.00  0.00    -0.112 NA
ATOM      5  N   UNL     1      15.554  -9.171  27.809  0.00  0.00    -0.107 NA
ATOM     12  C   UNL     1      16.567  -7.280  27.973  0.00  0.00    +0.222 A 
ATOM     16  C   UNL     1      15.237  -8.588  28.940  0.00  0.00    +0.248 A 
BRANCH  16  19
ATOM      6  N   UNL     1      12.673  -9.858  32.056  0.00  0.00    -0.263 NA
ATOM     19  C   UNL     1      14.368  -9.018  29.997  0.00  0.00    +0.041 A 
ATOM     21  C   UNL     1      13.585  -8.093  30.678  0.00  0.00    +0.033 A 
ATOM     22  C   UNL     1      14.305 -10.364  30.345  0.00  0.00    +0.033 A 
ATOM     24  C   UNL     1      12.762  -8.559  31.691  0.00  0.00    +0.111 A 
ATOM     25  C   UNL     1      13.449 -10.728  31.372  0.00  0.00    +0.111 A 
ENDBRANCH  16  19
ENDBRANCH   7  12
BRANCH   3  11
ATOM     11  C   UNL     1      16.885  -2.564  28.910  0.00  0.00    +0.123 C 
BRANCH  11  13
ATOM     13  C   UNL     1      16.300  -2.951  30.242  0.00  0.00    +0.008 A 
ATOM     14  C   UNL     1      16.584  -2.208  31.388  0.00  0.00    +0.124 A 
ATOM     15  C   UNL     1      15.466  -4.066  30.323  0.00  0.00    +0.008 A 
ATOM     17  C   UNL     1      16.034  -2.580  32.616  0.00  0.00    +0.046 A 
ATOM     18  C   UNL     1      14.916  -4.438  31.550  0.00  0.00    +0.001 A 
ATOM     20  C   UNL     1      15.201  -3.695  32.696  0.00  0.00    +0.004 A 
BRANCH  14   2
ATOM      2  O   UNL     1      17.398  -1.116  31.328  0.00  0.00    -0.495 OA
ATOM     23  C   UNL     1      17.276  -0.159  32.377  0.00  0.00    +0.277 C 
ENDBRANCH  14   2
ENDBRANCH  11  13
ENDBRANCH   3  11
TORSDOF 5
ENDMDL
MODEL 6
REMARK VINA RESULT:      -1.9      3.035      5.090
REMARK  Name = 51137305
REMARK  6 active torsions:
REMARK  status: ('A' for Active; 'I' for Inactive)
REMARK    1  A    between atoms: O_2  and  C_14
REMARK    2  A    between atoms: O_2  and  C_23
REMARK    3  A    between atoms: N_3  and  C_11
REMARK    4  A    between atoms: C_7  and  C_12
REMARK    5  A    between atoms: C_11  and  C_13
REMARK    6  A    between atoms: C_16  and  C_19
REMARK                            x       y       z     vdW  Elec       q    Type
REMARK                         _______ _______ _______ _____ _____    ______ ____
ROOT
ATOM      3  N   UNL     1      -1.609   4.577  25.546  0.00  0.00    -0.297 NA
ATOM      7  C   UNL     1      -0.231   2.695  25.303  0.00  0.00    +0.092 C 
ATOM      8  C   UNL     1       0.166   3.762  24.268  0.00  0.00    +0.029 C 
ATOM      9  C   UNL     1      -1.614   3.135  25.803  0.00  0.00    +0.097 C 
ATOM     10  C   UNL     1      -1.015   4.722  24.217  0.00  0.00    +0.085 C 
ENDROOT
BRANCH   7  12
ATOM      1  O   UNL     1      -1.394   0.595  24.821  0.00  0.00    -0.420 OA
ATOM      4  N   UNL     1       0.783   0.572  24.306  0.00  0.00    -0.112 NA
ATOM      5  N   UNL     1       0.254  -0.665  23.985  0.00  0.00    -0.107 NA
ATOM     12  C   UNL     1      -0.215   1.274  24.790  0.00  0.00    +0.222 A 
ATOM     16  C   UNL     1      -1.017  -0.606  24.303  0.00  0.00    +0.248 A 
BRANCH  16  19
ATOM      6  N   UNL     1      -4.069  -3.517  23.969  0.00  0.00    -0.263 NA
ATOM     19  C   UNL     1      -2.052  -1.593  24.191  0.00  0.00    +0.041 A 
ATOM     21  C   UNL     1      -3.370  -1.202  23.984  0.00  0.00    +0.033 A 
ATOM     22  C   UNL     1      -1.740  -2.945  24.288  0.00  0.00    +0.033 A 
ATOM     24  C   UNL     1      -4.333  -2.193  23.881  0.00  0.00    +0.111 A 
ATOM     25  C   UNL     1      -2.776  -3.858  24.171  0.00  0.00    +0.111 A 
ENDBRANCH  16  19
ENDBRANCH   7  12
BRANCH   3  11
ATOM     11  C   UNL     1      -2.941   5.159  25.623  0.00  0.00    +0.123 C 
BRANCH  11  13
ATOM     13  C   UNL     1      -4.018   4.113  25.514  0.00  0.00    +0.008 A 
ATOM     14  C   UNL     1      -4.201   3.398  24.330  0.00  0.00    +0.124 A 
ATOM     15  C   UNL     1      -4.839   3.861  26.614  0.00  0.00    +0.008 A 
ATOM     17  C   UNL     1      -5.203   2.432  24.245  0.00  0.00    +0.046 A 
ATOM     18  C   UNL     1      -5.841   2.895  26.530  0.00  0.00    +0.001 A 
ATOM     20  C   UNL     1      -6.024   2.181  25.345  0.00  0.00    +0.004 A 
BRANCH  14   2
ATOM      2  O   UNL     1      -3.409   3.632  23.245  0.00  0.00    -0.495 OA
ATOM     23  C   UNL     1      -2.999   2.497  22.487  0.00  0.00    +0.277 C 
ENDBRANCH  14   2
ENDBRANCH  11  13
ENDBRANCH   3  11
TORSDOF 5
ENDMDL
MODEL 7
REMARK VINA RESULT:      -1.7      1.871      2.665
REMARK  Name = 51137305
REMARK  6 active torsions:
REMARK  status: ('A' for Active; 'I' for Inactive)
REMARK    1  A    between atoms: O_2  and  C_14
REMARK    2  A    between atoms: O_2  and  C_23
REMARK    3  A    between atoms: N_3  and  C_11
REMARK    4  A    between atoms: C_7  and  C_12
REMARK    5  A    between atoms: C_11  and  C_13
REMARK    6  A    between atoms: C_16  and  C_19
REMARK                            x       y       z     vdW  Elec       q    Type
REMARK                         _______ _______ _______ _____ _____    ______ ____
ROOT
ATOM      3  N   UNL     1      -5.209   0.765  24.831  0.00  0.00    -0.297 NA
ATOM      7  C   UNL     1      -3.717  -1.029  24.603  0.00  0.00    +0.092 C 
ATOM      8  C   UNL     1      -4.159  -0.910  26.072  0.00  0.00    +0.029 C 
ATOM      9  C   UNL     1      -4.119   0.308  23.967  0.00  0.00    +0.097 C 
ATOM     10  C   UNL     1      -4.754   0.487  26.193  0.00  0.00    +0.085 C 
ENDROOT
BRANCH   7  12
ATOM      1  O   UNL     1      -1.436  -0.338  24.042  0.00  0.00    -0.420 OA
ATOM      4  N   UNL     1      -1.637  -2.513  24.528  0.00  0.00    -0.112 NA
ATOM      5  N   UNL     1      -0.309  -2.261  24.232  0.00  0.00    -0.107 NA
ATOM     12  C   UNL     1      -2.257  -1.362  24.404  0.00  0.00    +0.222 A 
ATOM     16  C   UNL     1      -0.240  -0.981  23.955  0.00  0.00    +0.248 A 
BRANCH  16  19
ATOM      6  N   UNL     1       3.071   1.412  22.855  0.00  0.00    -0.263 NA
ATOM     19  C   UNL     1       0.882  -0.169  23.581  0.00  0.00    +0.041 A 
ATOM     21  C   UNL     1       0.917   1.177  23.927  0.00  0.00    +0.033 A 
ATOM     22  C   UNL     1       1.942  -0.726  22.872  0.00  0.00    +0.033 A 
ATOM     24  C   UNL     1       2.023   1.918  23.544  0.00  0.00    +0.111 A 
ATOM     25  C   UNL     1       3.002   0.100  22.536  0.00  0.00    +0.111 A 
ENDBRANCH  16  19
ENDBRANCH   7  12
BRANCH   3  11
ATOM     11  C   UNL     1      -5.524   2.172  24.629  0.00  0.00    +0.123 C 
BRANCH  11  13
ATOM     13  C   UNL     1      -4.339   3.058  24.906  0.00  0.00    +0.008 A 
ATOM     14  C   UNL     1      -3.434   3.375  23.893  0.00  0.00    +0.124 A 
ATOM     15  C   UNL     1      -4.151   3.565  26.192  0.00  0.00    +0.008 A 
ATOM     17  C   UNL     1      -2.341   4.198  24.166  0.00  0.00    +0.046 A 
ATOM     18  C   UNL     1      -3.059   4.387  26.465  0.00  0.00    +0.001 A 
ATOM     20  C   UNL     1      -2.153   4.703  25.452  0.00  0.00    +0.004 A 
BRANCH  14   2
ATOM      2  O   UNL     1      -3.602   2.889  22.630  0.00  0.00    -0.495 OA
ATOM     23  C   UNL     1      -2.469   2.280  22.015  0.00  0.00    +0.277 C 
ENDBRANCH  14   2
ENDBRANCH  11  13
ENDBRANCH   3  11
TORSDOF 5
ENDMDL
MODEL 8
REMARK VINA RESULT:      -1.5      1.777      3.321
REMARK  Name = 51137305
REMARK  6 active torsions:
REMARK  status: ('A' for Active; 'I' for Inactive)
REMARK    1  A    between atoms: O_2  and  C_14
REMARK    2  A    between atoms: O_2  and  C_23
REMARK    3  A    between atoms: N_3  and  C_11
REMARK    4  A    between atoms: C_7  and  C_12
REMARK    5  A    between atoms: C_11  and  C_13
REMARK    6  A    between atoms: C_16  and  C_19
REMARK                            x       y       z     vdW  Elec       q    Type
REMARK                         _______ _______ _______ _____ _____    ______ ____
ROOT
ATOM      3  N   UNL     1      -2.995   1.624  24.726  0.00  0.00    -0.297 NA
ATOM      7  C   UNL     1      -0.834   1.734  23.823  0.00  0.00    +0.092 C 
ATOM      8  C   UNL     1      -1.830   2.400  22.858  0.00  0.00    +0.029 C 
ATOM      9  C   UNL     1      -1.710   0.924  24.787  0.00  0.00    +0.097 C 
ATOM     10  C   UNL     1      -3.201   1.912  23.307  0.00  0.00    +0.085 C 
ENDROOT
BRANCH   7  12
ATOM      1  O   UNL     1       1.468   0.904  23.733  0.00  0.00    -0.420 OA
ATOM      4  N   UNL     1       0.161   0.151  22.081  0.00  0.00    -0.112 NA
ATOM      5  N   UNL     1       1.423  -0.391  21.910  0.00  0.00    -0.107 NA
ATOM     12  C   UNL     1       0.235   0.899  23.156  0.00  0.00    +0.222 A 
ATOM     16  C   UNL     1       2.151   0.076  22.896  0.00  0.00    +0.248 A 
BRANCH  16  19
ATOM      6  N   UNL     1       6.217  -0.583  23.859  0.00  0.00    -0.263 NA
ATOM     19  C   UNL     1       3.529  -0.148  23.222  0.00  0.00    +0.041 A 
ATOM     21  C   UNL     1       4.467   0.858  23.019  0.00  0.00    +0.033 A 
ATOM     22  C   UNL     1       3.934  -1.373  23.743  0.00  0.00    +0.033 A 
ATOM     24  C   UNL     1       5.786   0.593  23.351  0.00  0.00    +0.111 A 
ATOM     25  C   UNL     1       5.277  -1.538  24.042  0.00  0.00    +0.111 A 
ENDBRANCH  16  19
ENDBRANCH   7  12
BRANCH   3  11
ATOM     11  C   UNL     1      -4.082   0.842  25.296  0.00  0.00    +0.123 C 
BRANCH  11  13
ATOM     13  C   UNL     1      -3.966  -0.618  24.946  0.00  0.00    +0.008 A 
ATOM     14  C   UNL     1      -3.224  -1.487  25.747  0.00  0.00    +0.124 A 
ATOM     15  C   UNL     1      -4.611  -1.100  23.807  0.00  0.00    +0.008 A 
ATOM     17  C   UNL     1      -3.126  -2.837  25.408  0.00  0.00    +0.046 A 
ATOM     18  C   UNL     1      -4.514  -2.449  23.468  0.00  0.00    +0.001 A 
ATOM     20  C   UNL     1      -3.771  -3.317  24.268  0.00  0.00    +0.004 A 
BRANCH  14   2
ATOM      2  O   UNL     1      -2.587  -1.033  26.863  0.00  0.00    -0.495 OA
ATOM     23  C   UNL     1      -1.162  -1.067  26.854  0.00  0.00    +0.277 C 
ENDBRANCH  14   2
ENDBRANCH  11  13
ENDBRANCH   3  11
TORSDOF 5
ENDMDL
MODEL 9
REMARK VINA RESULT:      -1.4      1.868      2.796
REMARK  Name = 51137305
REMARK  6 active torsions:
REMARK  status: ('A' for Active; 'I' for Inactive)
REMARK    1  A    between atoms: O_2  and  C_14
REMARK    2  A    between atoms: O_2  and  C_23
REMARK    3  A    between atoms: N_3  and  C_11
REMARK    4  A    between atoms: C_7  and  C_12
REMARK    5  A    between atoms: C_11  and  C_13
REMARK    6  A    between atoms: C_16  and  C_19
REMARK                            x       y       z     vdW  Elec       q    Type
REMARK                         _______ _______ _______ _____ _____    ______ ____
ROOT
ATOM      3  N   UNL     1      -4.370   0.589  24.105  0.00  0.00    -0.297 NA
ATOM      7  C   UNL     1      -2.796  -1.146  24.192  0.00  0.00    +0.092 C 
ATOM      8  C   UNL     1      -3.688  -1.197  25.445  0.00  0.00    +0.029 C 
ATOM      9  C   UNL     1      -3.040   0.247  23.598  0.00  0.00    +0.097 C 
ATOM     10  C   UNL     1      -4.360   0.169  25.506  0.00  0.00    +0.085 C 
ENDROOT
BRANCH   7  12
ATOM      1  O   UNL     1      -0.432  -0.655  23.780  0.00  0.00    -0.420 OA
ATOM      4  N   UNL     1      -0.779  -2.334  25.218  0.00  0.00    -0.112 NA
ATOM      5  N   UNL     1       0.587  -2.165  25.078  0.00  0.00    -0.107 NA
ATOM     12  C   UNL     1      -1.333  -1.432  24.442  0.00  0.00    +0.222 A 
ATOM     16  C   UNL     1       0.742  -1.176  24.230  0.00  0.00    +0.248 A 
BRANCH  16  19
ATOM      6  N   UNL     1       4.262   0.612  22.711  0.00  0.00    -0.263 NA
ATOM     19  C   UNL     1       1.935  -0.570  23.714  0.00  0.00    +0.041 A 
ATOM     21  C   UNL     1       1.900   0.727  23.215  0.00  0.00    +0.033 A 
ATOM     22  C   UNL     1       3.133  -1.278  23.713  0.00  0.00    +0.033 A 
ATOM     24  C   UNL     1       3.080   1.268  22.729  0.00  0.00    +0.111 A 
ATOM     25  C   UNL     1       4.257  -0.647  23.204  0.00  0.00    +0.111 A 
ENDBRANCH  16  19
ENDBRANCH   7  12
BRANCH   3  11
ATOM     11  C   UNL     1      -4.676   2.004  23.953  0.00  0.00    +0.123 C 
BRANCH  11  13
ATOM     13  C   UNL     1      -3.580   2.877  24.506  0.00  0.00    +0.008 A 
ATOM     14  C   UNL     1      -3.807   3.687  25.619  0.00  0.00    +0.124 A 
ATOM     15  C   UNL     1      -2.327   2.869  23.893  0.00  0.00    +0.008 A 
ATOM     17  C   UNL     1      -2.781   4.490  26.118  0.00  0.00    +0.046 A 
ATOM     18  C   UNL     1      -1.302   3.671  24.392  0.00  0.00    +0.001 A 
ATOM     20  C   UNL     1      -1.529   4.482  25.504  0.00  0.00    +0.004 A 
BRANCH  14   2
ATOM      2  O   UNL     1      -5.025   3.708  26.230  0.00  0.00    -0.495 OA
ATOM     23  C   UNL     1      -6.036   4.516  25.633  0.00  0.00    +0.277 C 
ENDBRANCH  14   2
ENDBRANCH  11  13
ENDBRANCH   3  11
TORSDOF 5
ENDMDL
MODEL 10
REMARK VINA RESULT:      -1.2      2.008      2.857
REMARK  Name = 51137305
REMARK  6 active torsions:
REMARK  status: ('A' for Active; 'I' for Inactive)
REMARK    1  A    between atoms: O_2  and  C_14
REMARK    2  A    between atoms: O_2  and  C_23
REMARK    3  A    between atoms: N_3  and  C_11
REMARK    4  A    between atoms: C_7  and  C_12
REMARK    5  A    between atoms: C_11  and  C_13
REMARK    6  A    between atoms: C_16  and  C_19
REMARK                            x       y       z     vdW  Elec       q    Type
REMARK                         _______ _______ _______ _____ _____    ______ ____
ROOT
ATOM      3  N   UNL     1      -2.401   4.349  25.757  0.00  0.00    -0.297 NA
ATOM      7  C   UNL     1      -0.540   2.950  25.476  0.00  0.00    +0.092 C 
ATOM      8  C   UNL     1      -0.183   4.379  25.029  0.00  0.00    +0.029 C 
ATOM      9  C   UNL     1      -2.073   2.938  25.547  0.00  0.00    +0.097 C 
ATOM     10  C   UNL     1      -1.522   5.081  24.846  0.00  0.00    +0.085 C 
ENDROOT
BRANCH   7  12
ATOM      1  O   UNL     1       1.372   1.710  24.581  0.00  0.00    -0.420 OA
ATOM      4  N   UNL     1      -0.612   0.992  23.834  0.00  0.00    -0.112 NA
ATOM      5  N   UNL     1       0.372   0.211  23.254  0.00  0.00    -0.107 NA
ATOM     12  C   UNL     1       0.018   1.853  24.600  0.00  0.00    +0.222 A 
ATOM     16  C   UNL     1       1.512   0.666  23.718  0.00  0.00    +0.248 A 
BRANCH  16  19
ATOM      6  N   UNL     1       5.480  -0.589  22.964  0.00  0.00    -0.263 NA
ATOM     19  C   UNL     1       2.857   0.240  23.462  0.00  0.00    +0.041 A 
ATOM     21  C   UNL     1       3.770   1.118  22.888  0.00  0.00    +0.033 A 
ATOM     22  C   UNL     1       3.254  -1.053  23.787  0.00  0.00    +0.033 A 
ATOM     24  C   UNL     1       5.058   0.659  22.662  0.00  0.00    +0.111 A 
ATOM     25  C   UNL     1       4.565  -1.414  23.520  0.00  0.00    +0.111 A 
ENDBRANCH  16  19
ENDBRANCH   7  12
BRANCH   3  11
ATOM     11  C   UNL     1      -3.808   4.634  25.518  0.00  0.00    +0.123 C 
BRANCH  11  13
ATOM     13  C   UNL     1      -4.613   3.374  25.335  0.00  0.00    +0.008 A 
ATOM     14  C   UNL     1      -4.568   2.669  24.132  0.00  0.00    +0.124 A 
ATOM     15  C   UNL     1      -5.409   2.914  26.384  0.00  0.00    +0.008 A 
ATOM     17  C   UNL     1      -5.320   1.503  23.979  0.00  0.00    +0.046 A 
ATOM     18  C   UNL     1      -6.160   1.750  26.231  0.00  0.00    +0.001 A 
ATOM     20  C   UNL     1      -6.116   1.045  25.028  0.00  0.00    +0.004 A 
BRANCH  14   2
ATOM      2  O   UNL     1      -3.797   3.104  23.096  0.00  0.00    -0.495 OA
ATOM     23  C   UNL     1      -3.037   2.121  22.397  0.00  0.00    +0.277 C 
ENDBRANCH  14   2
ENDBRANCH  11  13
ENDBRANCH   3  11
TORSDOF 5
ENDMDL
