MODEL 1
REMARK VINA RESULT:      -6.0      0.000      0.000
REMARK  Name = 75536834
REMARK  8 active torsions:
REMARK  status: ('A' for Active; 'I' for Inactive)
REMARK    1  A    between atoms: O_3  and  C_9
REMARK    2  A    between atoms: N_5  and  C_8
REMARK    3  A    between atoms: N_5  and  C_11
REMARK    4  A    between atoms: N_6  and  C_15
REMARK    5  A    between atoms: N_7  and  C_17
REMARK    6  A    between atoms: C_10  and  C_15
REMARK    7  A    between atoms: C_17  and  C_18
REMARK    8  A    between atoms: C_17  and  C_19
REMARK                            x       y       z     vdW  Elec       q    Type
REMARK                         _______ _______ _______ _____ _____    ______ ____
ROOT
ATOM      1  O   UNL     1      -4.800   3.662  26.212  0.00  0.00    -0.371 OA
ATOM      8  C   UNL     1      -2.816   4.047  24.964  0.00  0.00    +0.111 C 
ATOM      9  C   UNL     1      -3.572   2.884  24.346  0.00  0.00    +0.164 C 
ATOM     10  C   UNL     1      -4.974   3.124  24.891  0.00  0.00    +0.165 C 
ATOM     12  C   UNL     1      -3.439   4.109  26.349  0.00  0.00    +0.181 C 
ENDROOT
BRANCH   9   3
ATOM      3  O   UNL     1      -3.545   2.906  22.933  0.00  0.00    -0.388 OA
ATOM     21  H   UNL     1      -2.634   2.737  22.640  0.00  0.00    +0.210 HD
ENDBRANCH   9   3
BRANCH   8   5
ATOM      5  N   UNL     1      -1.375   3.852  24.999  0.00  0.00    -0.302 NA
ATOM     20  H   UNL     1      -0.964   4.132  24.109  0.00  0.00    +0.123 HD
BRANCH   5  11
ATOM      2  O   UNL     1       0.985   2.048  25.028  0.00  0.00    -0.377 OA
ATOM     11  C   UNL     1      -1.075   2.470  25.394  0.00  0.00    +0.106 C 
ATOM     13  C   UNL     1      -0.244   1.808  24.295  0.00  0.00    +0.180 C 
ATOM     14  C   UNL     1       0.225   2.448  26.197  0.00  0.00    +0.180 C 
ENDBRANCH   5  11
ENDBRANCH   8   5
BRANCH  10  15
ATOM     15  C   UNL     1      -5.816   1.862  24.957  0.00  0.00    +0.140 C 
BRANCH  15   6
ATOM      4  O   UNL     1      -4.180  -0.133  23.666  0.00  0.00    -0.253 OA
ATOM      6  N   UNL     1      -5.101   0.791  25.588  0.00  0.00    -0.297 N 
ATOM      7  N   UNL     1      -3.743  -1.069  25.744  0.00  0.00    -0.297 N 
ATOM     16  C   UNL     1      -4.327  -0.138  24.888  0.00  0.00    +0.300 C 
ATOM     22  H   UNL     1      -5.173   0.695  26.597  0.00  0.00    +0.150 HD
ATOM     23  H   UNL     1      -3.863  -0.945  26.745  0.00  0.00    +0.150 HD
BRANCH   7  17
ATOM     17  C   UNL     1      -2.894  -2.139  25.276  0.00  0.00    +0.068 C 
ATOM     18  C   UNL     1      -3.618  -2.977  24.230  0.00  0.00    +0.027 C 
ATOM     19  C   UNL     1      -1.589  -1.578  24.727  0.00  0.00    +0.027 C 
ENDBRANCH   7  17
ENDBRANCH  15   6
ENDBRANCH  10  15
TORSDOF 6
ENDMDL
MODEL 2
REMARK VINA RESULT:      -5.9      1.736      5.327
REMARK  Name = 75536834
REMARK  8 active torsions:
REMARK  status: ('A' for Active; 'I' for Inactive)
REMARK    1  A    between atoms: O_3  and  C_9
REMARK    2  A    between atoms: N_5  and  C_8
REMARK    3  A    between atoms: N_5  and  C_11
REMARK    4  A    between atoms: N_6  and  C_15
REMARK    5  A    between atoms: N_7  and  C_17
REMARK    6  A    between atoms: C_10  and  C_15
REMARK    7  A    between atoms: C_17  and  C_18
REMARK    8  A    between atoms: C_17  and  C_19
REMARK                            x       y       z     vdW  Elec       q    Type
REMARK                         _______ _______ _______ _____ _____    ______ ____
ROOT
ATOM      1  O   UNL     1      -0.598   1.128  26.074  0.00  0.00    -0.371 OA
ATOM      8  C   UNL     1      -0.598  -0.850  24.758  0.00  0.00    +0.111 C 
ATOM      9  C   UNL     1      -0.482   0.355  23.842  0.00  0.00    +0.164 C 
ATOM     10  C   UNL     1       0.026   1.413  24.812  0.00  0.00    +0.165 C 
ATOM     12  C   UNL     1      -1.127  -0.210  26.031  0.00  0.00    +0.181 C 
ENDROOT
BRANCH   9   3
ATOM      3  O   UNL     1       0.419   0.143  22.773  0.00  0.00    -0.388 OA
ATOM     21  H   UNL     1       1.323   0.145  23.129  0.00  0.00    +0.210 HD
ENDBRANCH   9   3
BRANCH   8   5
ATOM      5  N   UNL     1      -1.471  -1.892  24.243  0.00  0.00    -0.302 NA
ATOM     20  H   UNL     1      -1.544  -1.816  23.229  0.00  0.00    +0.123 HD
BRANCH   5  11
ATOM      2  O   UNL     1      -4.330  -2.386  23.605  0.00  0.00    -0.377 OA
ATOM     11  C   UNL     1      -2.760  -1.846  24.945  0.00  0.00    +0.106 C 
ATOM     13  C   UNL     1      -3.780  -1.124  24.065  0.00  0.00    +0.180 C 
ATOM     14  C   UNL     1      -3.562  -3.101  24.606  0.00  0.00    +0.180 C 
ENDBRANCH   5  11
ENDBRANCH   8   5
BRANCH  10  15
ATOM     15  C   UNL     1      -0.308   2.831  24.383  0.00  0.00    +0.140 C 
BRANCH  15   6
ATOM      4  O   UNL     1      -3.027   2.320  23.564  0.00  0.00    -0.253 OA
ATOM      6  N   UNL     1      -1.504   3.300  25.019  0.00  0.00    -0.297 N 
ATOM      7  N   UNL     1      -3.770   3.587  25.360  0.00  0.00    -0.297 N 
ATOM     16  C   UNL     1      -2.790   3.006  24.557  0.00  0.00    +0.300 C 
ATOM     22  H   UNL     1      -1.412   3.889  25.841  0.00  0.00    +0.150 HD
ATOM     23  H   UNL     1      -3.476   4.073  26.202  0.00  0.00    +0.150 HD
BRANCH   7  17
ATOM     17  C   UNL     1      -5.183   3.439  25.103  0.00  0.00    +0.068 C 
ATOM     18  C   UNL     1      -5.708   2.153  25.729  0.00  0.00    +0.027 C 
ATOM     19  C   UNL     1      -5.944   4.653  25.615  0.00  0.00    +0.027 C 
ENDBRANCH   7  17
ENDBRANCH  15   6
ENDBRANCH  10  15
TORSDOF 6
ENDMDL
MODEL 3
REMARK VINA RESULT:      -5.3      1.927      4.115
REMARK  Name = 75536834
REMARK  8 active torsions:
REMARK  status: ('A' for Active; 'I' for Inactive)
REMARK    1  A    between atoms: O_3  and  C_9
REMARK    2  A    between atoms: N_5  and  C_8
REMARK    3  A    between atoms: N_5  and  C_11
REMARK    4  A    between atoms: N_6  and  C_15
REMARK    5  A    between atoms: N_7  and  C_17
REMARK    6  A    between atoms: C_10  and  C_15
REMARK    7  A    between atoms: C_17  and  C_18
REMARK    8  A    between atoms: C_17  and  C_19
REMARK                            x       y       z     vdW  Elec       q    Type
REMARK                         _______ _______ _______ _____ _____    ______ ____
ROOT
ATOM      1  O   UNL     1      -0.197   3.295  23.585  0.00  0.00    -0.371 OA
ATOM      8  C   UNL     1      -1.377   3.799  25.584  0.00  0.00    +0.111 C 
ATOM      9  C   UNL     1      -0.769   2.414  25.705  0.00  0.00    +0.164 C 
ATOM     10  C   UNL     1       0.326   2.482  24.648  0.00  0.00    +0.165 C 
ATOM     12  C   UNL     1      -1.341   4.014  24.080  0.00  0.00    +0.181 C 
ENDROOT
BRANCH   9   3
ATOM      3  O   UNL     1      -0.244   2.158  26.992  0.00  0.00    -0.388 OA
ATOM     21  H   UNL     1      -0.730   2.702  27.635  0.00  0.00    +0.210 HD
ENDBRANCH   9   3
BRANCH   8   5
ATOM      5  N   UNL     1      -2.718   3.897  26.138  0.00  0.00    -0.302 NA
ATOM     20  H   UNL     1      -2.806   3.284  26.947  0.00  0.00    +0.123 HD
BRANCH   5  11
ATOM      2  O   UNL     1      -5.306   2.465  25.856  0.00  0.00    -0.377 OA
ATOM     11  C   UNL     1      -3.706   3.647  25.081  0.00  0.00    +0.106 C 
ATOM     13  C   UNL     1      -4.099   2.170  25.107  0.00  0.00    +0.180 C 
ATOM     14  C   UNL     1      -5.109   3.886  25.639  0.00  0.00    +0.180 C 
ENDBRANCH   5  11
ENDBRANCH   8   5
BRANCH  10  15
ATOM     15  C   UNL     1       0.723   1.120  24.106  0.00  0.00    +0.140 C 
BRANCH  15   6
ATOM      4  O   UNL     1      -0.643  -0.727  25.851  0.00  0.00    -0.253 OA
ATOM      6  N   UNL     1      -0.431   0.328  23.793  0.00  0.00    -0.297 N 
ATOM      7  N   UNL     1      -2.136  -1.190  24.137  0.00  0.00    -0.297 N 
ATOM     16  C   UNL     1      -1.036  -0.547  24.699  0.00  0.00    +0.300 C 
ATOM     22  H   UNL     1      -0.821   0.396  22.857  0.00  0.00    +0.150 HD
ATOM     23  H   UNL     1      -2.427  -0.918  23.202  0.00  0.00    +0.150 HD
BRANCH   7  17
ATOM     17  C   UNL     1      -2.940  -2.146  24.861  0.00  0.00    +0.068 C 
ATOM     18  C   UNL     1      -3.620  -1.481  26.050  0.00  0.00    +0.027 C 
ATOM     19  C   UNL     1      -3.959  -2.792  23.932  0.00  0.00    +0.027 C 
ENDBRANCH   7  17
ENDBRANCH  15   6
ENDBRANCH  10  15
TORSDOF 6
ENDMDL
MODEL 4
REMARK VINA RESULT:      -5.2      1.830      4.388
REMARK  Name = 75536834
REMARK  8 active torsions:
REMARK  status: ('A' for Active; 'I' for Inactive)
REMARK    1  A    between atoms: O_3  and  C_9
REMARK    2  A    between atoms: N_5  and  C_8
REMARK    3  A    between atoms: N_5  and  C_11
REMARK    4  A    between atoms: N_6  and  C_15
REMARK    5  A    between atoms: N_7  and  C_17
REMARK    6  A    between atoms: C_10  and  C_15
REMARK    7  A    between atoms: C_17  and  C_18
REMARK    8  A    between atoms: C_17  and  C_19
REMARK                            x       y       z     vdW  Elec       q    Type
REMARK                         _______ _______ _______ _____ _____    ______ ____
ROOT
ATOM      1  O   UNL     1      -0.851  -1.560  23.347  0.00  0.00    -0.371 OA
ATOM      8  C   UNL     1       0.170   0.017  24.801  0.00  0.00    +0.111 C 
ATOM      9  C   UNL     1      -1.097  -0.509  25.452  0.00  0.00    +0.164 C 
ATOM     10  C   UNL     1      -1.298  -1.812  24.689  0.00  0.00    +0.165 C 
ATOM     12  C   UNL     1      -0.062  -0.356  23.346  0.00  0.00    +0.181 C 
ENDROOT
BRANCH   9   3
ATOM      3  O   UNL     1      -0.946  -0.729  26.840  0.00  0.00    -0.388 OA
ATOM     21  H   UNL     1      -0.611  -1.631  26.973  0.00  0.00    +0.210 HD
ENDBRANCH   9   3
BRANCH   8   5
ATOM      5  N   UNL     1       0.374   1.444  24.993  0.00  0.00    -0.302 NA
ATOM     20  H   UNL     1       0.826   1.613  25.891  0.00  0.00    +0.123 HD
BRANCH   5  11
ATOM      2  O   UNL     1      -0.650   4.215  25.302  0.00  0.00    -0.377 OA
ATOM     11  C   UNL     1      -0.900   2.152  24.817  0.00  0.00    +0.106 C 
ATOM     13  C   UNL     1      -1.138   3.055  26.026  0.00  0.00    +0.180 C 
ATOM     14  C   UNL     1      -0.648   3.459  24.065  0.00  0.00    +0.180 C 
ENDBRANCH   5  11
ENDBRANCH   8   5
BRANCH  10  15
ATOM     15  C   UNL     1      -2.743  -2.278  24.670  0.00  0.00    +0.140 C 
BRANCH  15   6
ATOM      4  O   UNL     1      -3.720   0.113  23.384  0.00  0.00    -0.253 OA
ATOM      6  N   UNL     1      -3.617  -1.290  25.232  0.00  0.00    -0.297 N 
ATOM      7  N   UNL     1      -4.887   0.636  25.320  0.00  0.00    -0.297 N 
ATOM     16  C   UNL     1      -4.046  -0.155  24.540  0.00  0.00    +0.300 C 
ATOM     22  H   UNL     1      -3.930  -1.416  26.191  0.00  0.00    +0.150 HD
ATOM     23  H   UNL     1      -5.158   0.291  26.237  0.00  0.00    +0.150 HD
BRANCH   7  17
ATOM     17  C   UNL     1      -5.470   1.867  24.843  0.00  0.00    +0.068 C 
ATOM     18  C   UNL     1      -6.248   2.557  25.956  0.00  0.00    +0.027 C 
ATOM     19  C   UNL     1      -4.389   2.780  24.278  0.00  0.00    +0.027 C 
ENDBRANCH   7  17
ENDBRANCH  15   6
ENDBRANCH  10  15
TORSDOF 6
ENDMDL
MODEL 5
REMARK VINA RESULT:      -4.5      3.414      6.139
REMARK  Name = 75536834
REMARK  8 active torsions:
REMARK  status: ('A' for Active; 'I' for Inactive)
REMARK    1  A    between atoms: O_3  and  C_9
REMARK    2  A    between atoms: N_5  and  C_8
REMARK    3  A    between atoms: N_5  and  C_11
REMARK    4  A    between atoms: N_6  and  C_15
REMARK    5  A    between atoms: N_7  and  C_17
REMARK    6  A    between atoms: C_10  and  C_15
REMARK    7  A    between atoms: C_17  and  C_18
REMARK    8  A    between atoms: C_17  and  C_19
REMARK                            x       y       z     vdW  Elec       q    Type
REMARK                         _______ _______ _______ _____ _____    ______ ____
ROOT
ATOM      1  O   UNL     1      -1.807   2.579  24.498  0.00  0.00    -0.371 OA
ATOM      8  C   UNL     1      -2.356   0.536  25.579  0.00  0.00    +0.111 C 
ATOM      9  C   UNL     1      -1.078   0.347  24.782  0.00  0.00    +0.164 C 
ATOM     10  C   UNL     1      -0.614   1.789  24.626  0.00  0.00    +0.165 C 
ATOM     12  C   UNL     1      -2.928   1.790  24.938  0.00  0.00    +0.181 C 
ENDROOT
BRANCH   9   3
ATOM      3  O   UNL     1      -0.123  -0.444  25.462  0.00  0.00    -0.388 OA
ATOM     21  H   UNL     1       0.569  -0.700  24.830  0.00  0.00    +0.210 HD
ENDBRANCH   9   3
BRANCH   8   5
ATOM      5  N   UNL     1      -3.262  -0.599  25.508  0.00  0.00    -0.302 NA
ATOM     20  H   UNL     1      -3.148  -1.188  26.332  0.00  0.00    +0.123 HD
BRANCH   5  11
ATOM      2  O   UNL     1      -3.944  -3.246  24.345  0.00  0.00    -0.377 OA
ATOM     11  C   UNL     1      -3.069  -1.303  24.234  0.00  0.00    +0.106 C 
ATOM     13  C   UNL     1      -2.599  -2.729  24.519  0.00  0.00    +0.180 C 
ATOM     14  C   UNL     1      -4.383  -1.966  23.823  0.00  0.00    +0.180 C 
ENDBRANCH   5  11
ENDBRANCH   8   5
BRANCH  10  15
ATOM     15  C   UNL     1       0.277   2.004  23.415  0.00  0.00    +0.140 C 
BRANCH  15   6
ATOM      4  O   UNL     1       1.987  -0.040  22.309  0.00  0.00    -0.253 OA
ATOM      6  N   UNL     1       1.655   1.765  23.733  0.00  0.00    -0.297 N 
ATOM      7  N   UNL     1       3.721   0.740  23.638  0.00  0.00    -0.297 N 
ATOM     16  C   UNL     1       2.417   0.749  23.150  0.00  0.00    +0.300 C 
ATOM     22  H   UNL     1       2.096   2.358  24.431  0.00  0.00    +0.150 HD
ATOM     23  H   UNL     1       4.002   1.481  24.275  0.00  0.00    +0.150 HD
BRANCH   7  17
ATOM     17  C   UNL     1       4.716  -0.210  23.200  0.00  0.00    +0.068 C 
ATOM     18  C   UNL     1       6.114   0.276  23.557  0.00  0.00    +0.027 C 
ATOM     19  C   UNL     1       4.438  -1.582  23.800  0.00  0.00    +0.027 C 
ENDBRANCH   7  17
ENDBRANCH  15   6
ENDBRANCH  10  15
TORSDOF 6
ENDMDL
MODEL 6
REMARK VINA RESULT:      -4.2      1.989      4.245
REMARK  Name = 75536834
REMARK  8 active torsions:
REMARK  status: ('A' for Active; 'I' for Inactive)
REMARK    1  A    between atoms: O_3  and  C_9
REMARK    2  A    between atoms: N_5  and  C_8
REMARK    3  A    between atoms: N_5  and  C_11
REMARK    4  A    between atoms: N_6  and  C_15
REMARK    5  A    between atoms: N_7  and  C_17
REMARK    6  A    between atoms: C_10  and  C_15
REMARK    7  A    between atoms: C_17  and  C_18
REMARK    8  A    between atoms: C_17  and  C_19
REMARK                            x       y       z     vdW  Elec       q    Type
REMARK                         _______ _______ _______ _____ _____    ______ ____
ROOT
ATOM      1  O   UNL     1      -0.467   3.304  26.541  0.00  0.00    -0.371 OA
ATOM      8  C   UNL     1       0.276   1.784  24.874  0.00  0.00    +0.111 C 
ATOM      9  C   UNL     1      -0.573   2.860  24.220  0.00  0.00    +0.164 C 
ATOM     10  C   UNL     1      -0.500   3.966  25.266  0.00  0.00    +0.165 C 
ATOM     12  C   UNL     1      -0.136   1.920  26.330  0.00  0.00    +0.181 C 
ENDROOT
BRANCH   9   3
ATOM      3  O   UNL     1      -0.056   3.280  22.973  0.00  0.00    -0.388 OA
ATOM     21  H   UNL     1      -0.399   4.169  22.782  0.00  0.00    +0.210 HD
ENDBRANCH   9   3
BRANCH   8   5
ATOM      5  N   UNL     1       0.040   0.452  24.340  0.00  0.00    -0.302 NA
ATOM     20  H   UNL     1      -0.285   0.516  23.376  0.00  0.00    +0.123 HD
BRANCH   5  11
ATOM      2  O   UNL     1      -1.499  -2.088  24.289  0.00  0.00    -0.377 OA
ATOM     11  C   UNL     1      -0.864  -0.282  25.233  0.00  0.00    +0.106 C 
ATOM     13  C   UNL     1      -2.073  -0.763  24.431  0.00  0.00    +0.180 C 
ATOM     14  C   UNL     1      -0.465  -1.757  25.251  0.00  0.00    +0.180 C 
ENDBRANCH   5  11
ENDBRANCH   8   5
BRANCH  10  15
ATOM     15  C   UNL     1      -1.680   4.920  25.212  0.00  0.00    +0.140 C 
BRANCH  15   6
ATOM      4  O   UNL     1      -3.618   3.201  23.942  0.00  0.00    -0.253 OA
ATOM      6  N   UNL     1      -2.846   4.341  25.813  0.00  0.00    -0.297 N 
ATOM      7  N   UNL     1      -4.783   3.091  25.945  0.00  0.00    -0.297 N 
ATOM     16  C   UNL     1      -3.740   3.515  25.125  0.00  0.00    +0.300 C 
ATOM     22  H   UNL     1      -3.041   4.555  26.787  0.00  0.00    +0.150 HD
ATOM     23  H   UNL     1      -4.755   3.343  26.930  0.00  0.00    +0.150 HD
BRANCH   7  17
ATOM     17  C   UNL     1      -5.843   2.228  25.481  0.00  0.00    +0.068 C 
ATOM     18  C   UNL     1      -5.268   1.014  24.763  0.00  0.00    +0.027 C 
ATOM     19  C   UNL     1      -6.733   1.811  26.644  0.00  0.00    +0.027 C 
ENDBRANCH   7  17
ENDBRANCH  15   6
ENDBRANCH  10  15
TORSDOF 6
ENDMDL
MODEL 7
REMARK VINA RESULT:      -4.2      3.211      5.655
REMARK  Name = 75536834
REMARK  8 active torsions:
REMARK  status: ('A' for Active; 'I' for Inactive)
REMARK    1  A    between atoms: O_3  and  C_9
REMARK    2  A    between atoms: N_5  and  C_8
REMARK    3  A    between atoms: N_5  and  C_11
REMARK    4  A    between atoms: N_6  and  C_15
REMARK    5  A    between atoms: N_7  and  C_17
REMARK    6  A    between atoms: C_10  and  C_15
REMARK    7  A    between atoms: C_17  and  C_18
REMARK    8  A    between atoms: C_17  and  C_19
REMARK                            x       y       z     vdW  Elec       q    Type
REMARK                         _______ _______ _______ _____ _____    ______ ____
ROOT
ATOM      1  O   UNL     1      -0.819   0.802  25.347  0.00  0.00    -0.371 OA
ATOM      8  C   UNL     1      -2.948   1.740  24.871  0.00  0.00    +0.111 C 
ATOM      9  C   UNL     1      -2.634   0.675  23.836  0.00  0.00    +0.164 C 
ATOM     10  C   UNL     1      -1.574  -0.139  24.566  0.00  0.00    +0.165 C 
ATOM     12  C   UNL     1      -1.568   2.028  25.436  0.00  0.00    +0.181 C 
ENDROOT
BRANCH   9   3
ATOM      3  O   UNL     1      -3.761  -0.109  23.499  0.00  0.00    -0.388 OA
ATOM     21  H   UNL     1      -3.509  -0.720  22.787  0.00  0.00    +0.210 HD
ENDBRANCH   9   3
BRANCH   8   5
ATOM      5  N   UNL     1      -3.590   2.921  24.316  0.00  0.00    -0.302 NA
ATOM     20  H   UNL     1      -3.187   3.762  24.727  0.00  0.00    +0.123 HD
BRANCH   5  11
ATOM      2  O   UNL     1      -5.552   2.915  26.546  0.00  0.00    -0.377 OA
ATOM     11  C   UNL     1      -5.045   2.810  24.476  0.00  0.00    +0.106 C 
ATOM     13  C   UNL     1      -5.348   1.828  25.607  0.00  0.00    +0.180 C 
ATOM     14  C   UNL     1      -5.525   3.877  25.461  0.00  0.00    +0.180 C 
ENDBRANCH   5  11
ENDBRANCH   8   5
BRANCH  10  15
ATOM     15  C   UNL     1      -0.645  -0.891  23.630  0.00  0.00    +0.140 C 
BRANCH  15   6
ATOM      4  O   UNL     1       1.464  -0.286  21.755  0.00  0.00    -0.253 OA
ATOM      6  N   UNL     1       0.731  -0.623  23.934  0.00  0.00    -0.297 N 
ATOM      7  N   UNL     1       2.947  -0.117  23.532  0.00  0.00    -0.297 N 
ATOM     16  C   UNL     1       1.695  -0.337  22.963  0.00  0.00    +0.300 C 
ATOM     22  H   UNL     1       1.023  -0.657  24.906  0.00  0.00    +0.150 HD
ATOM     23  H   UNL     1       3.021  -0.107  24.545  0.00  0.00    +0.150 HD
BRANCH   7  17
ATOM     17  C   UNL     1       4.119   0.197  22.749  0.00  0.00    +0.068 C 
ATOM     18  C   UNL     1       4.110   1.665  22.341  0.00  0.00    +0.027 C 
ATOM     19  C   UNL     1       5.383  -0.153  23.522  0.00  0.00    +0.027 C 
ENDBRANCH   7  17
ENDBRANCH  15   6
ENDBRANCH  10  15
TORSDOF 6
ENDMDL
MODEL 8
REMARK VINA RESULT:      -4.1      1.764      5.515
REMARK  Name = 75536834
REMARK  8 active torsions:
REMARK  status: ('A' for Active; 'I' for Inactive)
REMARK    1  A    between atoms: O_3  and  C_9
REMARK    2  A    between atoms: N_5  and  C_8
REMARK    3  A    between atoms: N_5  and  C_11
REMARK    4  A    between atoms: N_6  and  C_15
REMARK    5  A    between atoms: N_7  and  C_17
REMARK    6  A    between atoms: C_10  and  C_15
REMARK    7  A    between atoms: C_17  and  C_18
REMARK    8  A    between atoms: C_17  and  C_19
REMARK                            x       y       z     vdW  Elec       q    Type
REMARK                         _______ _______ _______ _____ _____    ______ ____
ROOT
ATOM      1  O   UNL     1      -1.904  -1.481  25.656  0.00  0.00    -0.371 OA
ATOM      8  C   UNL     1      -3.991  -0.745  24.792  0.00  0.00    +0.111 C 
ATOM      9  C   UNL     1      -2.871  -0.111  23.988  0.00  0.00    +0.164 C 
ATOM     10  C   UNL     1      -1.718  -1.057  24.296  0.00  0.00    +0.165 C 
ATOM     12  C   UNL     1      -3.254  -1.172  26.050  0.00  0.00    +0.181 C 
ENDROOT
BRANCH   9   3
ATOM      3  O   UNL     1      -3.155  -0.059  22.604  0.00  0.00    -0.388 OA
ATOM     21  H   UNL     1      -3.806  -0.750  22.398  0.00  0.00    +0.210 HD
ENDBRANCH   9   3
BRANCH   8   5
ATOM      5  N   UNL     1      -5.097   0.159  25.064  0.00  0.00    -0.302 NA
ATOM     20  H   UNL     1      -5.741   0.170  24.274  0.00  0.00    +0.123 HD
BRANCH   5  11
ATOM      2  O   UNL     1      -6.048   2.974  25.042  0.00  0.00    -0.377 OA
ATOM     11  C   UNL     1      -4.573   1.481  25.431  0.00  0.00    +0.106 C 
ATOM     13  C   UNL     1      -4.897   2.472  24.314  0.00  0.00    +0.180 C 
ATOM     14  C   UNL     1      -5.637   2.240  26.224  0.00  0.00    +0.180 C 
ENDBRANCH   5  11
ENDBRANCH   8   5
BRANCH  10  15
ATOM     15  C   UNL     1      -0.353  -0.409  24.143  0.00  0.00    +0.140 C 
BRANCH  15   6
ATOM      4  O   UNL     1      -0.757   1.644  26.130  0.00  0.00    -0.253 OA
ATOM      6  N   UNL     1      -0.468   1.003  23.916  0.00  0.00    -0.297 N 
ATOM      7  N   UNL     1      -0.742   3.234  24.441  0.00  0.00    -0.297 N 
ATOM     16  C   UNL     1      -0.664   1.935  24.938  0.00  0.00    +0.300 C 
ATOM     22  H   UNL     1      -0.420   1.341  22.959  0.00  0.00    +0.150 HD
ATOM     23  H   UNL     1      -0.577   3.381  23.449  0.00  0.00    +0.150 HD
BRANCH   7  17
ATOM     17  C   UNL     1      -0.941   4.387  25.287  0.00  0.00    +0.068 C 
ATOM     18  C   UNL     1      -0.618   5.668  24.530  0.00  0.00    +0.027 C 
ATOM     19  C   UNL     1      -2.365   4.408  25.826  0.00  0.00    +0.027 C 
ENDBRANCH   7  17
ENDBRANCH  15   6
ENDBRANCH  10  15
TORSDOF 6
ENDMDL
MODEL 9
REMARK VINA RESULT:      -4.1     15.004     17.251
REMARK  Name = 75536834
REMARK  8 active torsions:
REMARK  status: ('A' for Active; 'I' for Inactive)
REMARK    1  A    between atoms: O_3  and  C_9
REMARK    2  A    between atoms: N_5  and  C_8
REMARK    3  A    between atoms: N_5  and  C_11
REMARK    4  A    between atoms: N_6  and  C_15
REMARK    5  A    between atoms: N_7  and  C_17
REMARK    6  A    between atoms: C_10  and  C_15
REMARK    7  A    between atoms: C_17  and  C_18
REMARK    8  A    between atoms: C_17  and  C_19
REMARK                            x       y       z     vdW  Elec       q    Type
REMARK                         _______ _______ _______ _____ _____    ______ ____
ROOT
ATOM      1  O   UNL     1      -7.189  -9.555   9.870  0.00  0.00    -0.371 OA
ATOM      8  C   UNL     1      -4.960  -9.783  10.658  0.00  0.00    +0.111 C 
ATOM      9  C   UNL     1      -5.911  -9.824  11.842  0.00  0.00    +0.164 C 
ATOM     10  C   UNL     1      -7.218 -10.198  11.154  0.00  0.00    +0.165 C 
ATOM     12  C   UNL     1      -5.837  -9.151   9.590  0.00  0.00    +0.181 C 
ENDROOT
BRANCH   9   3
ATOM      3  O   UNL     1      -5.533 -10.780  12.812  0.00  0.00    -0.388 OA
ATOM     21  H   UNL     1      -6.322 -11.024  13.325  0.00  0.00    +0.210 HD
ENDBRANCH   9   3
BRANCH   8   5
ATOM      5  N   UNL     1      -3.744  -9.028  10.913  0.00  0.00    -0.302 NA
ATOM     20  H   UNL     1      -3.745  -8.170  10.363  0.00  0.00    +0.123 HD
BRANCH   5  11
ATOM      2  O   UNL     1      -1.225  -9.712  12.331  0.00  0.00    -0.377 OA
ATOM     11  C   UNL     1      -2.576  -9.887  10.688  0.00  0.00    +0.106 C 
ATOM     13  C   UNL     1      -1.308  -9.099  11.018  0.00  0.00    +0.180 C 
ATOM     14  C   UNL     1      -2.264 -10.658  11.970  0.00  0.00    +0.180 C 
ENDBRANCH   5  11
ENDBRANCH   8   5
BRANCH  10  15
ATOM     15  C   UNL     1      -8.449  -9.753  11.924  0.00  0.00    +0.140 C 
BRANCH  15   6
ATOM      4  O   UNL     1      -9.788 -10.442  14.385  0.00  0.00    -0.253 OA
ATOM      6  N   UNL     1      -8.107  -9.314  13.246  0.00  0.00    -0.297 N 
ATOM      7  N   UNL     1      -8.266  -9.126  15.541  0.00  0.00    -0.297 N 
ATOM     16  C   UNL     1      -8.810  -9.695  14.392  0.00  0.00    +0.300 C 
ATOM     22  H   UNL     1      -7.320  -8.681  13.352  0.00  0.00    +0.150 HD
ATOM     23  H   UNL     1      -7.411  -8.583  15.452  0.00  0.00    +0.150 HD
BRANCH   7  17
ATOM     17  C   UNL     1      -8.804  -9.358  16.860  0.00  0.00    +0.068 C 
ATOM     18  C   UNL     1      -7.682  -9.610  17.858  0.00  0.00    +0.027 C 
ATOM     19  C   UNL     1      -9.673  -8.184  17.292  0.00  0.00    +0.027 C 
ENDBRANCH   7  17
ENDBRANCH  15   6
ENDBRANCH  10  15
TORSDOF 6
ENDMDL
MODEL 10
REMARK VINA RESULT:      -4.0      3.298      5.953
REMARK  Name = 75536834
REMARK  8 active torsions:
REMARK  status: ('A' for Active; 'I' for Inactive)
REMARK    1  A    between atoms: O_3  and  C_9
REMARK    2  A    between atoms: N_5  and  C_8
REMARK    3  A    between atoms: N_5  and  C_11
REMARK    4  A    between atoms: N_6  and  C_15
REMARK    5  A    between atoms: N_7  and  C_17
REMARK    6  A    between atoms: C_10  and  C_15
REMARK    7  A    between atoms: C_17  and  C_18
REMARK    8  A    between atoms: C_17  and  C_19
REMARK                            x       y       z     vdW  Elec       q    Type
REMARK                         _______ _______ _______ _____ _____    ______ ____
ROOT
ATOM      1  O   UNL     1      -0.487   0.206  25.012  0.00  0.00    -0.371 OA
ATOM      8  C   UNL     1      -2.839   0.170  24.678  0.00  0.00    +0.111 C 
ATOM      9  C   UNL     1      -2.234   1.268  23.822  0.00  0.00    +0.164 C 
ATOM     10  C   UNL     1      -0.783   0.811  23.743  0.00  0.00    +0.165 C 
ATOM     12  C   UNL     1      -1.728  -0.072  25.686  0.00  0.00    +0.181 C 
ENDROOT
BRANCH   9   3
ATOM      3  O   UNL     1      -2.830   1.353  22.542  0.00  0.00    -0.388 OA
ATOM     21  H   UNL     1      -2.126   1.322  21.873  0.00  0.00    +0.210 HD
ENDBRANCH   9   3
BRANCH   8   5
ATOM      5  N   UNL     1      -4.098   0.544  25.302  0.00  0.00    -0.302 NA
ATOM     20  H   UNL     1      -4.770  -0.217  25.214  0.00  0.00    +0.123 HD
BRANCH   5  11
ATOM      2  O   UNL     1      -5.780   2.830  26.180  0.00  0.00    -0.377 OA
ATOM     11  C   UNL     1      -4.560   1.823  24.748  0.00  0.00    +0.106 C 
ATOM     13  C   UNL     1      -6.053   1.980  25.036  0.00  0.00    +0.180 C 
ATOM     14  C   UNL     1      -4.384   2.919  25.799  0.00  0.00    +0.180 C 
ENDBRANCH   5  11
ENDBRANCH   8   5
BRANCH  10  15
ATOM     15  C   UNL     1       0.189   1.947  23.476  0.00  0.00    +0.140 C 
BRANCH  15   6
ATOM      4  O   UNL     1       1.979   0.131  22.126  0.00  0.00    -0.253 OA
ATOM      6  N   UNL     1       1.522   1.595  23.871  0.00  0.00    -0.297 N 
ATOM      7  N   UNL     1       3.573   0.541  23.761  0.00  0.00    -0.297 N 
ATOM     16  C   UNL     1       2.328   0.703  23.158  0.00  0.00    +0.300 C 
ATOM     22  H   UNL     1       1.896   2.006  24.722  0.00  0.00    +0.150 HD
ATOM     23  H   UNL     1       3.796   1.115  24.569  0.00  0.00    +0.150 HD
BRANCH   7  17
ATOM     17  C   UNL     1       4.595  -0.327  23.226  0.00  0.00    +0.068 C 
ATOM     18  C   UNL     1       5.979   0.253  23.487  0.00  0.00    +0.027 C 
ATOM     19  C   UNL     1       4.464  -1.725  23.816  0.00  0.00    +0.027 C 
ENDBRANCH   7  17
ENDBRANCH  15   6
ENDBRANCH  10  15
TORSDOF 6
ENDMDL
