MODEL 1
REMARK VINA RESULT:      -4.8      0.000      0.000
REMARK  Name = 86769015
REMARK  3 active torsions:
REMARK  status: ('A' for Active; 'I' for Inactive)
REMARK    1  A    between atoms: N_2  and  C_8
REMARK    2  A    between atoms: N_4  and  C_15
REMARK    3  A    between atoms: C_5  and  C_8
REMARK                            x       y       z     vdW  Elec       q    Type
REMARK                         _______ _______ _______ _____ _____    ______ ____
ROOT
ATOM      1  O   UNL     1      -3.081 -10.583  14.257  0.00  0.00    -0.252 OA
ATOM      2  N   UNL     1      -5.545  -9.565   9.958  0.00  0.00    -0.299 NA
ATOM      3  N   UNL     1      -4.557 -10.373  12.465  0.00  0.00    -0.278 N 
ATOM      4  N   UNL     1      -5.443 -10.319  14.548  0.00  0.00    -0.254 N 
ATOM      9  C   UNL     1      -5.982 -10.353  12.246  0.00  0.00    +0.109 C 
ATOM     10  C   UNL     1      -6.348  -9.327  11.175  0.00  0.00    +0.108 C 
ATOM     11  C   UNL     1      -4.102  -9.450  10.250  0.00  0.00    +0.103 C 
ATOM     12  C   UNL     1      -3.669 -10.451  11.323  0.00  0.00    +0.125 C 
ATOM     13  C   UNL     1      -6.549 -10.065  13.632  0.00  0.00    +0.139 C 
ATOM     14  C   UNL     1      -4.219 -10.449  13.826  0.00  0.00    +0.309 C 
ENDROOT
BRANCH   4  15
ATOM     15  C   UNL     1      -5.611 -10.339  15.963  0.00  0.00    +0.038 A 
ATOM     16  C   UNL     1      -4.565 -10.762  16.784  0.00  0.00    +0.023 A 
ATOM     17  C   UNL     1      -6.821  -9.934  16.527  0.00  0.00    +0.023 A 
ATOM     18  C   UNL     1      -4.731 -10.781  18.168  0.00  0.00    +0.002 A 
ATOM     19  C   UNL     1      -6.986  -9.954  17.911  0.00  0.00    +0.002 A 
ATOM     20  C   UNL     1      -5.940 -10.377  18.733  0.00  0.00    +0.000 A 
ENDBRANCH   4  15
BRANCH   2   8
ATOM      8  C   UNL     1      -5.929  -8.627   8.903  0.00  0.00    +0.088 C 
BRANCH   8   5
ATOM      5  C   UNL     1      -7.252  -7.995   9.192  0.00  0.00    +0.003 C 
ATOM      6  C   UNL     1      -8.497  -8.504   8.523  0.00  0.00    +0.005 C 
ATOM      7  C   UNL     1      -7.938  -7.162   8.145  0.00  0.00    +0.005 C 
ENDBRANCH   8   5
ENDBRANCH   2   8
TORSDOF 3
ENDMDL
MODEL 2
REMARK VINA RESULT:      -3.5     15.588     17.103
REMARK  Name = 86769015
REMARK  3 active torsions:
REMARK  status: ('A' for Active; 'I' for Inactive)
REMARK    1  A    between atoms: N_2  and  C_8
REMARK    2  A    between atoms: N_4  and  C_15
REMARK    3  A    between atoms: C_5  and  C_8
REMARK                            x       y       z     vdW  Elec       q    Type
REMARK                         _______ _______ _______ _____ _____    ______ ____
ROOT
ATOM      1  O   UNL     1      -2.306  -0.832  25.310  0.00  0.00    -0.252 OA
ATOM      2  N   UNL     1       1.971   0.473  22.944  0.00  0.00    -0.299 NA
ATOM      3  N   UNL     1      -0.621  -0.001  23.929  0.00  0.00    -0.278 N 
ATOM      4  N   UNL     1      -2.361   1.375  24.384  0.00  0.00    -0.254 N 
ATOM      9  C   UNL     1      -0.387   1.155  23.101  0.00  0.00    +0.109 C 
ATOM     10  C   UNL     1       1.067   1.610  23.211  0.00  0.00    +0.108 C 
ATOM     11  C   UNL     1       1.742  -0.618  23.911  0.00  0.00    +0.103 C 
ATOM     12  C   UNL     1       0.297  -1.120  23.856  0.00  0.00    +0.125 C 
ATOM     13  C   UNL     1      -1.416   2.163  23.602  0.00  0.00    +0.139 C 
ATOM     14  C   UNL     1      -1.838   0.070  24.627  0.00  0.00    +0.309 C 
ENDROOT
BRANCH   4  15
ATOM     15  C   UNL     1      -3.582   1.917  24.880  0.00  0.00    +0.038 A 
ATOM     16  C   UNL     1      -4.739   1.137  24.887  0.00  0.00    +0.023 A 
ATOM     17  C   UNL     1      -3.620   3.226  25.359  0.00  0.00    +0.023 A 
ATOM     18  C   UNL     1      -5.934   1.668  25.371  0.00  0.00    +0.002 A 
ATOM     19  C   UNL     1      -4.815   3.757  25.843  0.00  0.00    +0.002 A 
ATOM     20  C   UNL     1      -5.972   2.978  25.850  0.00  0.00    +0.000 A 
ENDBRANCH   4  15
BRANCH   2   8
ATOM      8  C   UNL     1       3.366   0.910  22.987  0.00  0.00    +0.088 C 
BRANCH   8   5
ATOM      5  C   UNL     1       4.271  -0.201  23.409  0.00  0.00    +0.003 C 
ATOM      6  C   UNL     1       5.324   0.034  24.455  0.00  0.00    +0.005 C 
ATOM      7  C   UNL     1       5.724  -0.183  23.022  0.00  0.00    +0.005 C 
ENDBRANCH   8   5
ENDBRANCH   2   8
TORSDOF 3
ENDMDL
MODEL 3
REMARK VINA RESULT:      -3.2      2.292      3.729
REMARK  Name = 86769015
REMARK  3 active torsions:
REMARK  status: ('A' for Active; 'I' for Inactive)
REMARK    1  A    between atoms: N_2  and  C_8
REMARK    2  A    between atoms: N_4  and  C_15
REMARK    3  A    between atoms: C_5  and  C_8
REMARK                            x       y       z     vdW  Elec       q    Type
REMARK                         _______ _______ _______ _____ _____    ______ ____
ROOT
ATOM      1  O   UNL     1      -6.610 -10.139  15.640  0.00  0.00    -0.252 OA
ATOM      2  N   UNL     1      -9.046  -9.739  11.224  0.00  0.00    -0.299 NA
ATOM      3  N   UNL     1      -7.370  -9.685  13.483  0.00  0.00    -0.278 N 
ATOM      4  N   UNL     1      -5.147 -10.025  13.748  0.00  0.00    -0.254 N 
ATOM      9  C   UNL     1      -6.809  -9.397  12.187  0.00  0.00    +0.109 C 
ATOM     10  C   UNL     1      -7.616 -10.083  11.086  0.00  0.00    +0.108 C 
ATOM     11  C   UNL     1      -9.567 -10.175  12.535  0.00  0.00    +0.103 C 
ATOM     12  C   UNL     1      -8.796  -9.526  13.686  0.00  0.00    +0.125 C 
ATOM     13  C   UNL     1      -5.365  -9.869  12.314  0.00  0.00    +0.139 C 
ATOM     14  C   UNL     1      -6.389  -9.967  14.448  0.00  0.00    +0.309 C 
ENDROOT
BRANCH   4  15
ATOM     15  C   UNL     1      -3.860 -10.281  14.303  0.00  0.00    +0.038 A 
ATOM     16  C   UNL     1      -3.705 -10.389  15.685  0.00  0.00    +0.023 A 
ATOM     17  C   UNL     1      -2.755 -10.423  13.464  0.00  0.00    +0.023 A 
ATOM     18  C   UNL     1      -2.445 -10.639  16.228  0.00  0.00    +0.002 A 
ATOM     19  C   UNL     1      -1.495 -10.673  14.006  0.00  0.00    +0.002 A 
ATOM     20  C   UNL     1      -1.340 -10.781  15.389  0.00  0.00    +0.000 A 
ENDBRANCH   4  15
BRANCH   2   8
ATOM      8  C   UNL     1      -9.821 -10.341  10.140  0.00  0.00    +0.088 C 
BRANCH   8   5
ATOM      5  C   UNL     1      -9.690  -9.556   8.876  0.00  0.00    +0.003 C 
ATOM      6  C   UNL     1      -9.105  -8.172   8.901  0.00  0.00    +0.005 C 
ATOM      7  C   UNL     1     -10.571  -8.363   8.631  0.00  0.00    +0.005 C 
ENDBRANCH   8   5
ENDBRANCH   2   8
TORSDOF 3
ENDMDL
MODEL 4
REMARK VINA RESULT:      -2.1      3.385      5.558
REMARK  Name = 86769015
REMARK  3 active torsions:
REMARK  status: ('A' for Active; 'I' for Inactive)
REMARK    1  A    between atoms: N_2  and  C_8
REMARK    2  A    between atoms: N_4  and  C_15
REMARK    3  A    between atoms: C_5  and  C_8
REMARK                            x       y       z     vdW  Elec       q    Type
REMARK                         _______ _______ _______ _____ _____    ______ ____
ROOT
ATOM      1  O   UNL     1      -5.193  -7.878   9.476  0.00  0.00    -0.252 OA
ATOM      2  N   UNL     1      -9.505 -10.174  10.790  0.00  0.00    -0.299 NA
ATOM      3  N   UNL     1      -6.926  -9.328  10.050  0.00  0.00    -0.278 N 
ATOM      4  N   UNL     1      -4.867  -9.798  10.869  0.00  0.00    -0.254 N 
ATOM      9  C   UNL     1      -7.084 -10.602  10.703  0.00  0.00    +0.109 C 
ATOM     10  C   UNL     1      -8.335 -10.606  11.581  0.00  0.00    +0.108 C 
ATOM     11  C   UNL     1      -9.304  -8.812  10.257  0.00  0.00    +0.103 C 
ATOM     12  C   UNL     1      -8.060  -8.737   9.369  0.00  0.00    +0.125 C 
ATOM     13  C   UNL     1      -5.770 -10.781  11.456  0.00  0.00    +0.139 C 
ATOM     14  C   UNL     1      -5.595  -8.878  10.056  0.00  0.00    +0.309 C 
ENDROOT
BRANCH   4  15
ATOM     15  C   UNL     1      -3.476  -9.761  11.172  0.00  0.00    +0.038 A 
ATOM     16  C   UNL     1      -2.992 -10.405  12.311  0.00  0.00    +0.023 A 
ATOM     17  C   UNL     1      -2.597  -9.080  10.329  0.00  0.00    +0.023 A 
ATOM     18  C   UNL     1      -1.630 -10.368  12.607  0.00  0.00    +0.002 A 
ATOM     19  C   UNL     1      -1.235  -9.043  10.626  0.00  0.00    +0.002 A 
ATOM     20  C   UNL     1      -0.751  -9.687  11.765  0.00  0.00    +0.000 A 
ENDBRANCH   4  15
BRANCH   2   8
ATOM      8  C   UNL     1     -10.719 -10.231  11.603  0.00  0.00    +0.088 C 
BRANCH   8   5
ATOM      5  C   UNL     1     -10.555  -9.471  12.879  0.00  0.00    +0.003 C 
ATOM      6  C   UNL     1      -9.314  -9.642  13.709  0.00  0.00    +0.005 C 
ATOM      7  C   UNL     1     -10.626 -10.185  14.200  0.00  0.00    +0.005 C 
ENDBRANCH   8   5
ENDBRANCH   2   8
TORSDOF 3
ENDMDL
MODEL 5
REMARK VINA RESULT:      -1.9     15.280     16.887
REMARK  Name = 86769015
REMARK  3 active torsions:
REMARK  status: ('A' for Active; 'I' for Inactive)
REMARK    1  A    between atoms: N_2  and  C_8
REMARK    2  A    between atoms: N_4  and  C_15
REMARK    3  A    between atoms: C_5  and  C_8
REMARK                            x       y       z     vdW  Elec       q    Type
REMARK                         _______ _______ _______ _____ _____    ______ ____
ROOT
ATOM      1  O   UNL     1      -0.487  -1.888  24.132  0.00  0.00    -0.252 OA
ATOM      2  N   UNL     1      -4.319   1.169  25.382  0.00  0.00    -0.299 NA
ATOM      3  N   UNL     1      -1.914  -0.191  24.854  0.00  0.00    -0.278 N 
ATOM      4  N   UNL     1       0.005   0.435  23.828  0.00  0.00    -0.254 N 
ATOM      9  C   UNL     1      -1.893   1.244  24.982  0.00  0.00    +0.109 C 
ATOM     10  C   UNL     1      -3.252   1.837  24.610  0.00  0.00    +0.108 C 
ATOM     11  C   UNL     1      -4.342  -0.280  25.100  0.00  0.00    +0.103 C 
ATOM     12  C   UNL     1      -3.005  -0.938  25.447  0.00  0.00    +0.125 C 
ATOM     13  C   UNL     1      -0.740   1.664  24.077  0.00  0.00    +0.139 C 
ATOM     14  C   UNL     1      -0.749  -0.699  24.255  0.00  0.00    +0.309 C 
ENDROOT
BRANCH   4  15
ATOM     15  C   UNL     1       1.268   0.427  23.167  0.00  0.00    +0.038 A 
ATOM     16  C   UNL     1       1.448  -0.339  22.015  0.00  0.00    +0.023 A 
ATOM     17  C   UNL     1       2.323   1.186  23.673  0.00  0.00    +0.023 A 
ATOM     18  C   UNL     1       2.684  -0.347  21.370  0.00  0.00    +0.002 A 
ATOM     19  C   UNL     1       3.560   1.178  23.027  0.00  0.00    +0.002 A 
ATOM     20  C   UNL     1       3.740   0.412  21.875  0.00  0.00    +0.000 A 
ENDBRANCH   4  15
BRANCH   2   8
ATOM      8  C   UNL     1      -5.618   1.769  25.080  0.00  0.00    +0.088 C 
BRANCH   8   5
ATOM      5  C   UNL     1      -5.490   3.231  24.802  0.00  0.00    +0.003 C 
ATOM      6  C   UNL     1      -4.639   4.099  25.686  0.00  0.00    +0.005 C 
ATOM      7  C   UNL     1      -6.135   4.235  25.717  0.00  0.00    +0.005 C 
ENDBRANCH   8   5
ENDBRANCH   2   8
TORSDOF 3
ENDMDL
MODEL 6
REMARK VINA RESULT:      -1.5     16.010     17.826
REMARK  Name = 86769015
REMARK  3 active torsions:
REMARK  status: ('A' for Active; 'I' for Inactive)
REMARK    1  A    between atoms: N_2  and  C_8
REMARK    2  A    between atoms: N_4  and  C_15
REMARK    3  A    between atoms: C_5  and  C_8
REMARK                            x       y       z     vdW  Elec       q    Type
REMARK                         _______ _______ _______ _____ _____    ______ ____
ROOT
ATOM      1  O   UNL     1       0.664   2.564  26.209  0.00  0.00    -0.252 OA
ATOM      2  N   UNL     1      -4.104   3.937  25.221  0.00  0.00    -0.299 NA
ATOM      3  N   UNL     1      -1.371   3.279  25.322  0.00  0.00    -0.278 N 
ATOM      4  N   UNL     1      -0.054   2.002  23.995  0.00  0.00    -0.254 N 
ATOM      9  C   UNL     1      -2.045   3.275  24.049  0.00  0.00    +0.109 C 
ATOM     10  C   UNL     1      -3.537   2.999  24.231  0.00  0.00    +0.108 C 
ATOM     11  C   UNL     1      -3.432   3.790  26.528  0.00  0.00    +0.103 C 
ATOM     12  C   UNL     1      -1.928   4.050  26.415  0.00  0.00    +0.125 C 
ATOM     13  C   UNL     1      -1.289   2.218  23.251  0.00  0.00    +0.139 C 
ATOM     14  C   UNL     1      -0.138   2.607  25.285  0.00  0.00    +0.309 C 
ENDROOT
BRANCH   4  15
ATOM     15  C   UNL     1       1.018   1.214  23.484  0.00  0.00    +0.038 A 
ATOM     16  C   UNL     1       2.302   1.754  23.398  0.00  0.00    +0.023 A 
ATOM     17  C   UNL     1       0.784  -0.097  23.071  0.00  0.00    +0.023 A 
ATOM     18  C   UNL     1       3.350   0.983  22.898  0.00  0.00    +0.002 A 
ATOM     19  C   UNL     1       1.833  -0.869  22.570  0.00  0.00    +0.002 A 
ATOM     20  C   UNL     1       3.116  -0.329  22.484  0.00  0.00    +0.000 A 
ENDBRANCH   4  15
BRANCH   2   8
ATOM      8  C   UNL     1      -5.544   3.723  25.360  0.00  0.00    +0.088 C 
BRANCH   8   5
ATOM      5  C   UNL     1      -5.844   2.339  25.837  0.00  0.00    +0.003 C 
ATOM      6  C   UNL     1      -5.169   1.155  25.203  0.00  0.00    +0.005 C 
ATOM      7  C   UNL     1      -6.635   1.396  24.974  0.00  0.00    +0.005 C 
ENDBRANCH   8   5
ENDBRANCH   2   8
TORSDOF 3
ENDMDL
MODEL 7
REMARK VINA RESULT:      -1.5     16.066     17.279
REMARK  Name = 86769015
REMARK  3 active torsions:
REMARK  status: ('A' for Active; 'I' for Inactive)
REMARK    1  A    between atoms: N_2  and  C_8
REMARK    2  A    between atoms: N_4  and  C_15
REMARK    3  A    between atoms: C_5  and  C_8
REMARK                            x       y       z     vdW  Elec       q    Type
REMARK                         _______ _______ _______ _____ _____    ______ ____
ROOT
ATOM      1  O   UNL     1      -1.633   3.850  24.645  0.00  0.00    -0.252 OA
ATOM      2  N   UNL     1       1.844   0.348  23.531  0.00  0.00    -0.299 NA
ATOM      3  N   UNL     1      -0.252   1.981  24.456  0.00  0.00    -0.278 N 
ATOM      4  N   UNL     1      -2.466   1.608  24.753  0.00  0.00    -0.254 N 
ATOM      9  C   UNL     1      -0.354   0.553  24.615  0.00  0.00    +0.109 C 
ATOM     10  C   UNL     1       0.461  -0.168  23.543  0.00  0.00    +0.108 C 
ATOM     11  C   UNL     1       1.861   1.797  23.245  0.00  0.00    +0.103 C 
ATOM     12  C   UNL     1       1.056   2.581  24.283  0.00  0.00    +0.125 C 
ATOM     13  C   UNL     1      -1.856   0.297  24.561  0.00  0.00    +0.139 C 
ATOM     14  C   UNL     1      -1.483   2.635  24.628  0.00  0.00    +0.309 C 
ENDROOT
BRANCH   4  15
ATOM     15  C   UNL     1      -3.867   1.779  24.948  0.00  0.00    +0.038 A 
ATOM     16  C   UNL     1      -4.364   3.000  25.404  0.00  0.00    +0.023 A 
ATOM     17  C   UNL     1      -4.741   0.726  24.682  0.00  0.00    +0.023 A 
ATOM     18  C   UNL     1      -5.735   3.167  25.595  0.00  0.00    +0.002 A 
ATOM     19  C   UNL     1      -6.113   0.892  24.874  0.00  0.00    +0.002 A 
ATOM     20  C   UNL     1      -6.610   2.113  25.330  0.00  0.00    +0.000 A 
ENDBRANCH   4  15
BRANCH   2   8
ATOM      8  C   UNL     1       2.651  -0.376  22.550  0.00  0.00    +0.088 C 
BRANCH   8   5
ATOM      5  C   UNL     1       3.991  -0.733  23.105  0.00  0.00    +0.003 C 
ATOM      6  C   UNL     1       4.689   0.196  24.058  0.00  0.00    +0.005 C 
ATOM      7  C   UNL     1       5.218   0.016  22.663  0.00  0.00    +0.005 C 
ENDBRANCH   8   5
ENDBRANCH   2   8
TORSDOF 3
ENDMDL
MODEL 8
REMARK VINA RESULT:      -1.3     15.713     17.070
REMARK  Name = 86769015
REMARK  3 active torsions:
REMARK  status: ('A' for Active; 'I' for Inactive)
REMARK    1  A    between atoms: N_2  and  C_8
REMARK    2  A    between atoms: N_4  and  C_15
REMARK    3  A    between atoms: C_5  and  C_8
REMARK                            x       y       z     vdW  Elec       q    Type
REMARK                         _______ _______ _______ _____ _____    ______ ____
ROOT
ATOM      1  O   UNL     1       1.211   2.877  24.112  0.00  0.00    -0.252 OA
ATOM      2  N   UNL     1      -3.423   0.870  24.397  0.00  0.00    -0.299 NA
ATOM      3  N   UNL     1      -0.784   1.694  23.879  0.00  0.00    -0.278 N 
ATOM      4  N   UNL     1       1.143   0.548  23.564  0.00  0.00    -0.254 N 
ATOM      9  C   UNL     1      -1.212   0.393  23.431  0.00  0.00    +0.109 C 
ATOM     10  C   UNL     1      -2.344  -0.134  24.312  0.00  0.00    +0.108 C 
ATOM     11  C   UNL     1      -2.922   2.132  24.976  0.00  0.00    +0.103 C 
ATOM     12  C   UNL     1      -1.779   2.714  24.141  0.00  0.00    +0.125 C 
ATOM     13  C   UNL     1       0.069  -0.433  23.467  0.00  0.00    +0.139 C 
ATOM     14  C   UNL     1       0.614   1.836  23.874  0.00  0.00    +0.309 C 
ENDROOT
BRANCH   4  15
ATOM     15  C   UNL     1       2.517   0.191  23.442  0.00  0.00    +0.038 A 
ATOM     16  C   UNL     1       2.944  -1.082  23.820  0.00  0.00    +0.023 A 
ATOM     17  C   UNL     1       3.436   1.115  22.943  0.00  0.00    +0.023 A 
ATOM     18  C   UNL     1       4.289  -1.430  23.701  0.00  0.00    +0.002 A 
ATOM     19  C   UNL     1       4.781   0.767  22.824  0.00  0.00    +0.002 A 
ATOM     20  C   UNL     1       5.208  -0.506  23.203  0.00  0.00    +0.000 A 
ENDBRANCH   4  15
BRANCH   2   8
ATOM      8  C   UNL     1      -4.539   0.353  25.189  0.00  0.00    +0.088 C 
BRANCH   8   5
ATOM      5  C   UNL     1      -5.740   1.234  25.077  0.00  0.00    +0.003 C 
ATOM      6  C   UNL     1      -5.631   2.705  25.369  0.00  0.00    +0.005 C 
ATOM      7  C   UNL     1      -6.377   1.806  26.313  0.00  0.00    +0.005 C 
ENDBRANCH   8   5
ENDBRANCH   2   8
TORSDOF 3
ENDMDL
MODEL 9
REMARK VINA RESULT:      -1.0      2.983      6.527
REMARK  Name = 86769015
REMARK  3 active torsions:
REMARK  status: ('A' for Active; 'I' for Inactive)
REMARK    1  A    between atoms: N_2  and  C_8
REMARK    2  A    between atoms: N_4  and  C_15
REMARK    3  A    between atoms: C_5  and  C_8
REMARK                            x       y       z     vdW  Elec       q    Type
REMARK                         _______ _______ _______ _____ _____    ______ ____
ROOT
ATOM      1  O   UNL     1      -3.539  -8.323  10.301  0.00  0.00    -0.252 OA
ATOM      2  N   UNL     1      -6.341 -10.780  13.723  0.00  0.00    -0.299 NA
ATOM      3  N   UNL     1      -4.469  -9.752  11.892  0.00  0.00    -0.278 N 
ATOM      4  N   UNL     1      -2.249  -9.333  12.047  0.00  0.00    -0.254 N 
ATOM      9  C   UNL     1      -4.014 -10.625  12.944  0.00  0.00    +0.109 C 
ATOM     10  C   UNL     1      -4.947 -10.547  14.151  0.00  0.00    +0.108 C 
ATOM     11  C   UNL     1      -6.762  -9.769  12.732  0.00  0.00    +0.103 C 
ATOM     12  C   UNL     1      -5.862  -9.790  11.495  0.00  0.00    +0.125 C 
ATOM     13  C   UNL     1      -2.587 -10.154  13.204  0.00  0.00    +0.139 C 
ATOM     14  C   UNL     1      -3.419  -9.045  11.283  0.00  0.00    +0.309 C 
ENDROOT
BRANCH   4  15
ATOM     15  C   UNL     1      -0.930  -8.846  11.814  0.00  0.00    +0.038 A 
ATOM     16  C   UNL     1      -0.147  -9.408  10.806  0.00  0.00    +0.023 A 
ATOM     17  C   UNL     1      -0.422  -7.807  12.594  0.00  0.00    +0.023 A 
ATOM     18  C   UNL     1       1.144  -8.932  10.579  0.00  0.00    +0.002 A 
ATOM     19  C   UNL     1       0.868  -7.331  12.367  0.00  0.00    +0.002 A 
ATOM     20  C   UNL     1       1.652  -7.893  11.358  0.00  0.00    +0.000 A 
ENDBRANCH   4  15
BRANCH   2   8
ATOM      8  C   UNL     1      -7.238 -10.767  14.878  0.00  0.00    +0.088 C 
BRANCH   8   5
ATOM      5  C   UNL     1      -6.638 -10.020  16.024  0.00  0.00    +0.003 C 
ATOM      6  C   UNL     1      -6.725 -10.574  17.418  0.00  0.00    +0.005 C 
ATOM      7  C   UNL     1      -7.524  -9.358  17.043  0.00  0.00    +0.005 C 
ENDBRANCH   8   5
ENDBRANCH   2   8
TORSDOF 3
ENDMDL
MODEL 10
REMARK VINA RESULT:      -0.9     15.185     17.220
REMARK  Name = 86769015
REMARK  3 active torsions:
REMARK  status: ('A' for Active; 'I' for Inactive)
REMARK    1  A    between atoms: N_2  and  C_8
REMARK    2  A    between atoms: N_4  and  C_15
REMARK    3  A    between atoms: C_5  and  C_8
REMARK                            x       y       z     vdW  Elec       q    Type
REMARK                         _______ _______ _______ _____ _____    ______ ____
ROOT
ATOM      1  O   UNL     1       0.282  -0.607  21.860  0.00  0.00    -0.252 OA
ATOM      2  N   UNL     1      -2.812   2.513  24.367  0.00  0.00    -0.299 NA
ATOM      3  N   UNL     1      -0.885   0.712  23.387  0.00  0.00    -0.278 N 
ATOM      4  N   UNL     1       1.364   0.602  23.620  0.00  0.00    -0.254 N 
ATOM      9  C   UNL     1      -0.618   1.427  24.609  0.00  0.00    +0.109 C 
ATOM     10  C   UNL     1      -1.379   2.752  24.635  0.00  0.00    +0.108 C 
ATOM     11  C   UNL     1      -3.000   1.884  23.044  0.00  0.00    +0.103 C 
ATOM     12  C   UNL     1      -2.257   0.550  22.949  0.00  0.00    +0.125 C 
ATOM     13  C   UNL     1       0.901   1.559  24.617  0.00  0.00    +0.139 C 
ATOM     14  C   UNL     1       0.269   0.133  22.834  0.00  0.00    +0.309 C 
ENDROOT
BRANCH   4  15
ATOM     15  C   UNL     1       2.743   0.284  23.447  0.00  0.00    +0.038 A 
ATOM     16  C   UNL     1       3.615   1.233  22.912  0.00  0.00    +0.023 A 
ATOM     17  C   UNL     1       3.220  -0.974  23.813  0.00  0.00    +0.023 A 
ATOM     18  C   UNL     1       4.964   0.921  22.742  0.00  0.00    +0.002 A 
ATOM     19  C   UNL     1       4.568  -1.286  23.643  0.00  0.00    +0.002 A 
ATOM     20  C   UNL     1       5.441  -0.338  23.108  0.00  0.00    +0.000 A 
ENDBRANCH   4  15
BRANCH   2   8
ATOM      8  C   UNL     1      -3.562   3.765  24.449  0.00  0.00    +0.088 C 
BRANCH   8   5
ATOM      5  C   UNL     1      -4.455   3.788  25.646  0.00  0.00    +0.003 C 
ATOM      6  C   UNL     1      -5.477   2.705  25.849  0.00  0.00    +0.005 C 
ATOM      7  C   UNL     1      -5.919   4.096  25.494  0.00  0.00    +0.005 C 
ENDBRANCH   8   5
ENDBRANCH   2   8
TORSDOF 3
ENDMDL
