MODEL 1
REMARK VINA RESULT:       1.4      0.000      0.000
REMARK  Name = 11865859
REMARK  13 active torsions:
REMARK  status: ('A' for Active; 'I' for Inactive)
REMARK    1  A    between atoms: N_6  and  C_12
REMARK    2  A    between atoms: N_7  and  C_19
REMARK    3  A    between atoms: N_8  and  C_29
REMARK    4  A    between atoms: C_11  and  C_16
REMARK    5  A    between atoms: C_15  and  C_17
REMARK    6  A    between atoms: C_17  and  C_18
REMARK    7  A    between atoms: C_18  and  C_20
REMARK    8  A    between atoms: C_18  and  C_21
REMARK    9  A    between atoms: C_18  and  C_22
REMARK   10  A    between atoms: C_19  and  C_24
REMARK   11  A    between atoms: C_19  and  C_26
REMARK   12  A    between atoms: C_24  and  C_25
REMARK   13  A    between atoms: C_29  and  C_33
REMARK                            x       y       z     vdW  Elec       q    Type
REMARK                         _______ _______ _______ _____ _____    ______ ____
ROOT
ATOM      1  O   UNL     1      -1.918  -0.386  26.752  0.00  0.00    -0.276 OA
ATOM      5  N   UNL     1      -1.382   0.620  24.737  0.00  0.00    -0.288 N 
ATOM     11  C   UNL     1      -0.128   1.221  25.180  0.00  0.00    +0.182 C 
ATOM     12  C   UNL     1       0.585   1.644  23.896  0.00  0.00    +0.105 C 
ATOM     13  C   UNL     1      -0.565   1.894  22.917  0.00  0.00    +0.043 C 
ATOM     14  C   UNL     1      -1.614   0.864  23.316  0.00  0.00    +0.110 C 
ATOM     15  C   UNL     1      -2.141  -0.203  25.553  0.00  0.00    +0.217 C 
ENDROOT
BRANCH  12   6
ATOM      3  O   UNL     1       3.337   1.924  23.074  0.00  0.00    -0.253 OA
ATOM      6  N   UNL     1       1.460   0.600  23.421  0.00  0.00    -0.294 N 
ATOM      8  N   UNL     1       3.397  -0.352  22.628  0.00  0.00    -0.296 N 
ATOM     23  C   UNL     1       2.783   0.825  23.043  0.00  0.00    +0.300 C 
ATOM     37  H   UNL     1       1.078  -0.332  23.291  0.00  0.00    +0.151 HD
ATOM     39  H   UNL     1       2.866  -1.217  22.657  0.00  0.00    +0.151 HD
BRANCH   8  29
ATOM     29  C   UNL     1       4.770  -0.404  22.181  0.00  0.00    +0.132 C 
BRANCH  29  33
ATOM     33  C   UNL     1       5.668  -0.088  23.330  0.00  0.00    -0.016 C 
ATOM     36  C   UNL     1       5.584  -0.678  24.527  0.00  0.00    +0.005 C 
ENDBRANCH  29  33
ENDBRANCH   8  29
ENDBRANCH  12   6
BRANCH  11  16
ATOM      2  O   UNL     1      -0.349   2.408  27.240  0.00  0.00    -0.274 OA
ATOM      7  N   UNL     1      -1.018   3.443  25.265  0.00  0.00    -0.302 N 
ATOM     16  C   UNL     1      -0.495   2.407  26.020  0.00  0.00    +0.236 C 
ATOM     38  H   UNL     1      -1.034   3.355  24.252  0.00  0.00    +0.150 HD
BRANCH   7  19
ATOM     19  C   UNL     1      -1.471   4.690  25.838  0.00  0.00    +0.163 C 
BRANCH  19  26
ATOM      4  O   UNL     1      -1.674   6.892  24.832  0.00  0.00    -0.274 OA
ATOM     10  N   UNL     1      -0.117   5.434  23.979  0.00  0.00    -0.328 N 
ATOM     26  C   UNL     1      -1.133   5.789  24.841  0.00  0.00    +0.231 C 
ATOM     41  H   UNL     1       0.215   6.081  23.272  0.00  0.00    +0.145 HD
ATOM     42  H   UNL     1       0.337   4.527  24.013  0.00  0.00    +0.145 HD
ENDBRANCH  19  26
BRANCH  19  24
ATOM     24  C   UNL     1      -2.975   4.680  26.137  0.00  0.00    +0.069 C 
BRANCH  24  25
ATOM      9  N   UNL     1      -4.478   2.818  23.348  0.00  0.00    -0.360 N 
ATOM     25  C   UNL     1      -3.757   3.805  25.200  0.00  0.00    -0.020 A 
ATOM     27  C   UNL     1      -4.814   2.919  25.551  0.00  0.00    +0.003 A 
ATOM     28  C   UNL     1      -3.574   3.720  23.840  0.00  0.00    +0.087 A 
ATOM     30  C   UNL     1      -5.248   2.311  24.371  0.00  0.00    +0.047 A 
ATOM     31  C   UNL     1      -5.444   2.574  26.763  0.00  0.00    +0.010 A 
ATOM     32  C   UNL     1      -6.287   1.374  24.342  0.00  0.00    +0.026 A 
ATOM     34  C   UNL     1      -6.484   1.637  26.750  0.00  0.00    +0.001 A 
ATOM     35  C   UNL     1      -6.897   1.047  25.557  0.00  0.00    +0.002 A 
ATOM     40  H   UNL     1      -4.569   2.559  22.375  0.00  0.00    +0.165 HD
ENDBRANCH  24  25
ENDBRANCH  19  24
ENDBRANCH   7  19
ENDBRANCH  11  16
BRANCH  15  17
ATOM     17  C   UNL     1      -3.309  -0.883  24.884  0.00  0.00    +0.102 C 
BRANCH  17  18
ATOM     18  C   UNL     1      -3.061  -2.380  24.624  0.00  0.00    -0.029 C 
ATOM     20  C   UNL     1      -4.092  -2.855  23.583  0.00  0.00    +0.011 C 
ATOM     21  C   UNL     1      -1.650  -2.619  24.059  0.00  0.00    +0.011 C 
ATOM     22  C   UNL     1      -3.245  -3.206  25.908  0.00  0.00    +0.011 C 
ENDBRANCH  17  18
ENDBRANCH  15  17
TORSDOF 10
ENDMDL
MODEL 2
REMARK VINA RESULT:       2.9      2.061      3.857
REMARK  Name = 11865859
REMARK  13 active torsions:
REMARK  status: ('A' for Active; 'I' for Inactive)
REMARK    1  A    between atoms: N_6  and  C_12
REMARK    2  A    between atoms: N_7  and  C_19
REMARK    3  A    between atoms: N_8  and  C_29
REMARK    4  A    between atoms: C_11  and  C_16
REMARK    5  A    between atoms: C_15  and  C_17
REMARK    6  A    between atoms: C_17  and  C_18
REMARK    7  A    between atoms: C_18  and  C_20
REMARK    8  A    between atoms: C_18  and  C_21
REMARK    9  A    between atoms: C_18  and  C_22
REMARK   10  A    between atoms: C_19  and  C_24
REMARK   11  A    between atoms: C_19  and  C_26
REMARK   12  A    between atoms: C_24  and  C_25
REMARK   13  A    between atoms: C_29  and  C_33
REMARK                            x       y       z     vdW  Elec       q    Type
REMARK                         _______ _______ _______ _____ _____    ______ ____
ROOT
ATOM      1  O   UNL     1       1.000   3.471  26.768  0.00  0.00    -0.276 OA
ATOM      5  N   UNL     1       0.055   1.526  25.942  0.00  0.00    -0.288 N 
ATOM     11  C   UNL     1       0.166   1.874  24.529  0.00  0.00    +0.182 C 
ATOM     12  C   UNL     1      -0.075   0.565  23.778  0.00  0.00    +0.105 C 
ATOM     13  C   UNL     1      -0.967  -0.234  24.732  0.00  0.00    +0.043 C 
ATOM     14  C   UNL     1      -0.480   0.178  26.116  0.00  0.00    +0.110 C 
ATOM     15  C   UNL     1       0.555   2.336  26.949  0.00  0.00    +0.217 C 
ENDROOT
BRANCH  12   6
ATOM      3  O   UNL     1       2.442   1.752  23.014  0.00  0.00    -0.253 OA
ATOM      6  N   UNL     1       1.168  -0.122  23.522  0.00  0.00    -0.294 N 
ATOM      8  N   UNL     1       3.387  -0.367  22.972  0.00  0.00    -0.296 N 
ATOM     23  C   UNL     1       2.342   0.533  23.156  0.00  0.00    +0.300 C 
ATOM     37  H   UNL     1       1.173  -1.138  23.542  0.00  0.00    +0.151 HD
ATOM     39  H   UNL     1       3.215  -1.354  23.134  0.00  0.00    +0.151 HD
BRANCH   8  29
ATOM     29  C   UNL     1       4.717   0.045  22.589  0.00  0.00    +0.132 C 
BRANCH  29  33
ATOM     33  C   UNL     1       5.572   0.128  23.808  0.00  0.00    -0.016 C 
ATOM     36  C   UNL     1       5.787  -0.897  24.640  0.00  0.00    +0.005 C 
ENDBRANCH  29  33
ENDBRANCH   8  29
ENDBRANCH  12   6
BRANCH  11  16
ATOM      2  O   UNL     1      -1.265   3.147  23.103  0.00  0.00    -0.274 OA
ATOM      7  N   UNL     1      -1.421   3.438  25.408  0.00  0.00    -0.302 N 
ATOM     16  C   UNL     1      -0.914   2.875  24.249  0.00  0.00    +0.236 C 
ATOM     38  H   UNL     1      -1.098   3.090  26.307  0.00  0.00    +0.150 HD
BRANCH   7  19
ATOM     19  C   UNL     1      -2.456   4.446  25.411  0.00  0.00    +0.163 C 
BRANCH  19  26
ATOM      4  O   UNL     1      -2.381   6.845  25.029  0.00  0.00    -0.274 OA
ATOM     10  N   UNL     1      -0.459   5.625  24.729  0.00  0.00    -0.328 N 
ATOM     26  C   UNL     1      -1.797   5.764  25.028  0.00  0.00    +0.231 C 
ATOM     41  H   UNL     1       0.103   6.429  24.470  0.00  0.00    +0.145 HD
ATOM     42  H   UNL     1       0.016   4.728  24.754  0.00  0.00    +0.145 HD
ENDBRANCH  19  26
BRANCH  19  24
ATOM     24  C   UNL     1      -3.595   4.113  24.439  0.00  0.00    +0.069 C 
BRANCH  24  25
ATOM      9  N   UNL     1      -5.938   1.702  25.922  0.00  0.00    -0.360 N 
ATOM     25  C   UNL     1      -4.419   2.937  24.878  0.00  0.00    -0.020 A 
ATOM     27  C   UNL     1      -4.288   1.594  24.426  0.00  0.00    +0.003 A 
ATOM     28  C   UNL     1      -5.442   2.971  25.797  0.00  0.00    +0.087 A 
ATOM     30  C   UNL     1      -5.253   0.840  25.096  0.00  0.00    +0.047 A 
ATOM     31  C   UNL     1      -3.437   0.946  23.507  0.00  0.00    +0.010 A 
ATOM     32  C   UNL     1      -5.411  -0.536  24.894  0.00  0.00    +0.026 A 
ATOM     34  C   UNL     1      -3.585  -0.430  23.294  0.00  0.00    +0.001 A 
ATOM     35  C   UNL     1      -4.557  -1.158  23.978  0.00  0.00    +0.002 A 
ATOM     40  H   UNL     1      -6.698   1.434  26.533  0.00  0.00    +0.165 HD
ENDBRANCH  24  25
ENDBRANCH  19  24
ENDBRANCH   7  19
ENDBRANCH  11  16
BRANCH  15  17
ATOM     17  C   UNL     1       0.518   1.746  28.337  0.00  0.00    +0.102 C 
BRANCH  17  18
ATOM     18  C   UNL     1       1.487   2.443  29.309  0.00  0.00    -0.029 C 
ATOM     20  C   UNL     1       0.659   3.378  30.211  0.00  0.00    +0.011 C 
ATOM     21  C   UNL     1       2.212   1.420  30.200  0.00  0.00    +0.011 C 
ATOM     22  C   UNL     1       2.525   3.287  28.551  0.00  0.00    +0.011 C 
ENDBRANCH  17  18
ENDBRANCH  15  17
TORSDOF 10
ENDMDL
MODEL 3
REMARK VINA RESULT:       3.1      2.258      4.508
REMARK  Name = 11865859
REMARK  13 active torsions:
REMARK  status: ('A' for Active; 'I' for Inactive)
REMARK    1  A    between atoms: N_6  and  C_12
REMARK    2  A    between atoms: N_7  and  C_19
REMARK    3  A    between atoms: N_8  and  C_29
REMARK    4  A    between atoms: C_11  and  C_16
REMARK    5  A    between atoms: C_15  and  C_17
REMARK    6  A    between atoms: C_17  and  C_18
REMARK    7  A    between atoms: C_18  and  C_20
REMARK    8  A    between atoms: C_18  and  C_21
REMARK    9  A    between atoms: C_18  and  C_22
REMARK   10  A    between atoms: C_19  and  C_24
REMARK   11  A    between atoms: C_19  and  C_26
REMARK   12  A    between atoms: C_24  and  C_25
REMARK   13  A    between atoms: C_29  and  C_33
REMARK                            x       y       z     vdW  Elec       q    Type
REMARK                         _______ _______ _______ _____ _____    ______ ____
ROOT
ATOM      1  O   UNL     1       0.778   3.499  26.738  0.00  0.00    -0.276 OA
ATOM      5  N   UNL     1      -0.026   1.492  25.910  0.00  0.00    -0.288 N 
ATOM     11  C   UNL     1       0.008   1.869  24.500  0.00  0.00    +0.182 C 
ATOM     12  C   UNL     1      -0.148   0.555  23.735  0.00  0.00    +0.105 C 
ATOM     13  C   UNL     1      -0.937  -0.330  24.704  0.00  0.00    +0.043 C 
ATOM     14  C   UNL     1      -0.440   0.102  26.078  0.00  0.00    +0.110 C 
ATOM     15  C   UNL     1       0.437   2.327  26.915  0.00  0.00    +0.217 C 
ENDROOT
BRANCH  12   6
ATOM      3  O   UNL     1       2.311   1.973  23.215  0.00  0.00    -0.253 OA
ATOM      6  N   UNL     1       1.139  -0.021  23.428  0.00  0.00    -0.294 N 
ATOM      8  N   UNL     1       3.381  -0.064  22.918  0.00  0.00    -0.296 N 
ATOM     23  C   UNL     1       2.280   0.743  23.189  0.00  0.00    +0.300 C 
ATOM     37  H   UNL     1       1.205  -1.028  23.312  0.00  0.00    +0.151 HD
ATOM     39  H   UNL     1       3.265  -1.072  22.941  0.00  0.00    +0.151 HD
BRANCH   8  29
ATOM     29  C   UNL     1       4.693   0.470  22.634  0.00  0.00    +0.132 C 
BRANCH  29  33
ATOM     33  C   UNL     1       5.631   0.058  23.718  0.00  0.00    -0.016 C 
ATOM     36  C   UNL     1       5.510  -1.075  24.420  0.00  0.00    +0.005 C 
ENDBRANCH  29  33
ENDBRANCH   8  29
ENDBRANCH  12   6
BRANCH  11  16
ATOM      2  O   UNL     1      -1.144   3.957  24.620  0.00  0.00    -0.274 OA
ATOM      7  N   UNL     1      -2.222   2.128  23.665  0.00  0.00    -0.302 N 
ATOM     16  C   UNL     1      -1.162   2.779  24.273  0.00  0.00    +0.236 C 
ATOM     38  H   UNL     1      -2.101   1.164  23.364  0.00  0.00    +0.150 HD
BRANCH   7  19
ATOM     19  C   UNL     1      -3.476   2.776  23.356  0.00  0.00    +0.163 C 
BRANCH  19  26
ATOM      4  O   UNL     1      -4.263   3.785  21.291  0.00  0.00    -0.274 OA
ATOM     10  N   UNL     1      -2.563   2.244  21.182  0.00  0.00    -0.328 N 
ATOM     26  C   UNL     1      -3.509   2.993  21.850  0.00  0.00    +0.231 C 
ATOM     41  H   UNL     1      -2.469   2.304  20.174  0.00  0.00    +0.145 HD
ATOM     42  H   UNL     1      -1.931   1.610  21.661  0.00  0.00    +0.145 HD
ENDBRANCH  19  26
BRANCH  19  24
ATOM     24  C   UNL     1      -4.685   1.946  23.805  0.00  0.00    +0.069 C 
BRANCH  24  25
ATOM      9  N   UNL     1      -3.804  -0.282  26.592  0.00  0.00    -0.360 N 
ATOM     25  C   UNL     1      -4.320   0.831  24.743  0.00  0.00    -0.020 A 
ATOM     27  C   UNL     1      -4.117  -0.535  24.398  0.00  0.00    +0.003 A 
ATOM     28  C   UNL     1      -4.121   0.954  26.098  0.00  0.00    +0.087 A 
ATOM     30  C   UNL     1      -3.795  -1.212  25.576  0.00  0.00    +0.047 A 
ATOM     31  C   UNL     1      -4.176  -1.262  23.192  0.00  0.00    +0.010 A 
ATOM     32  C   UNL     1      -3.527  -2.585  25.609  0.00  0.00    +0.026 A 
ATOM     34  C   UNL     1      -3.912  -2.636  23.210  0.00  0.00    +0.001 A 
ATOM     35  C   UNL     1      -3.593  -3.286  24.402  0.00  0.00    +0.002 A 
ATOM     40  H   UNL     1      -3.605  -0.486  27.562  0.00  0.00    +0.165 HD
ENDBRANCH  24  25
ENDBRANCH  19  24
ENDBRANCH   7  19
ENDBRANCH  11  16
BRANCH  15  17
ATOM     17  C   UNL     1       0.497   1.716  28.292  0.00  0.00    +0.102 C 
BRANCH  17  18
ATOM     18  C   UNL     1       1.424   2.487  29.248  0.00  0.00    -0.029 C 
ATOM     20  C   UNL     1       2.122   1.459  30.159  0.00  0.00    +0.011 C 
ATOM     21  C   UNL     1       2.501   3.264  28.473  0.00  0.00    +0.011 C 
ATOM     22  C   UNL     1       0.627   3.462  30.132  0.00  0.00    +0.011 C 
ENDBRANCH  17  18
ENDBRANCH  15  17
TORSDOF 10
ENDMDL
MODEL 4
REMARK VINA RESULT:       3.4      2.302      5.470
REMARK  Name = 11865859
REMARK  13 active torsions:
REMARK  status: ('A' for Active; 'I' for Inactive)
REMARK    1  A    between atoms: N_6  and  C_12
REMARK    2  A    between atoms: N_7  and  C_19
REMARK    3  A    between atoms: N_8  and  C_29
REMARK    4  A    between atoms: C_11  and  C_16
REMARK    5  A    between atoms: C_15  and  C_17
REMARK    6  A    between atoms: C_17  and  C_18
REMARK    7  A    between atoms: C_18  and  C_20
REMARK    8  A    between atoms: C_18  and  C_21
REMARK    9  A    between atoms: C_18  and  C_22
REMARK   10  A    between atoms: C_19  and  C_24
REMARK   11  A    between atoms: C_19  and  C_26
REMARK   12  A    between atoms: C_24  and  C_25
REMARK   13  A    between atoms: C_29  and  C_33
REMARK                            x       y       z     vdW  Elec       q    Type
REMARK                         _______ _______ _______ _____ _____    ______ ____
ROOT
ATOM      1  O   UNL     1       1.065  -1.403  24.184  0.00  0.00    -0.276 OA
ATOM      5  N   UNL     1       0.265   0.768  24.129  0.00  0.00    -0.288 N 
ATOM     11  C   UNL     1      -0.341   0.756  25.456  0.00  0.00    +0.182 C 
ATOM     12  C   UNL     1      -0.623   2.223  25.776  0.00  0.00    +0.105 C 
ATOM     13  C   UNL     1      -0.812   2.859  24.397  0.00  0.00    +0.043 C 
ATOM     14  C   UNL     1       0.149   2.084  23.504  0.00  0.00    +0.110 C 
ATOM     15  C   UNL     1       0.988  -0.305  23.631  0.00  0.00    +0.217 C 
ENDROOT
BRANCH  12   6
ATOM      3  O   UNL     1       0.402   1.461  28.364  0.00  0.00    -0.253 OA
ATOM      6  N   UNL     1       0.484   2.822  26.483  0.00  0.00    -0.294 N 
ATOM      8  N   UNL     1       1.997   3.137  28.186  0.00  0.00    -0.296 N 
ATOM     23  C   UNL     1       0.913   2.388  27.736  0.00  0.00    +0.300 C 
ATOM     37  H   UNL     1       0.929   3.642  26.082  0.00  0.00    +0.151 HD
ATOM     39  H   UNL     1       2.366   3.870  27.588  0.00  0.00    +0.151 HD
BRANCH   8  29
ATOM     29  C   UNL     1       2.640   2.899  29.457  0.00  0.00    +0.132 C 
BRANCH  29  33
ATOM     33  C   UNL     1       1.756   2.039  30.296  0.00  0.00    -0.016 C 
ATOM     36  C   UNL     1       0.863   2.515  31.171  0.00  0.00    +0.005 C 
ENDBRANCH  29  33
ENDBRANCH   8  29
ENDBRANCH  12   6
BRANCH  11  16
ATOM      2  O   UNL     1      -2.389  -0.152  26.282  0.00  0.00    -0.274 OA
ATOM      7  N   UNL     1      -1.760  -0.603  24.087  0.00  0.00    -0.302 N 
ATOM     16  C   UNL     1      -1.610  -0.035  25.340  0.00  0.00    +0.236 C 
ATOM     38  H   UNL     1      -1.081  -0.386  23.362  0.00  0.00    +0.150 HD
BRANCH   7  19
ATOM     19  C   UNL     1      -2.887  -1.432  23.724  0.00  0.00    +0.163 C 
BRANCH  19  26
ATOM      4  O   UNL     1      -3.853  -3.286  24.961  0.00  0.00    -0.274 OA
ATOM     10  N   UNL     1      -1.573  -3.013  24.995  0.00  0.00    -0.328 N 
ATOM     26  C   UNL     1      -2.853  -2.655  24.629  0.00  0.00    +0.231 C 
ATOM     41  H   UNL     1      -1.407  -3.819  25.587  0.00  0.00    +0.145 HD
ATOM     42  H   UNL     1      -0.753  -2.495  24.694  0.00  0.00    +0.145 HD
ENDBRANCH  19  26
BRANCH  19  24
ATOM     24  C   UNL     1      -4.223  -0.692  23.871  0.00  0.00    +0.069 C 
BRANCH  24  25
ATOM      9  N   UNL     1      -3.490   2.796  22.977  0.00  0.00    -0.360 N 
ATOM     25  C   UNL     1      -4.091   0.797  23.729  0.00  0.00    -0.020 A 
ATOM     27  C   UNL     1      -4.697   1.784  24.556  0.00  0.00    +0.003 A 
ATOM     28  C   UNL     1      -3.356   1.450  22.767  0.00  0.00    +0.087 A 
ATOM     30  C   UNL     1      -4.304   3.030  24.062  0.00  0.00    +0.047 A 
ATOM     31  C   UNL     1      -5.544   1.737  25.681  0.00  0.00    +0.010 A 
ATOM     32  C   UNL     1      -4.717   4.235  24.640  0.00  0.00    +0.026 A 
ATOM     34  C   UNL     1      -5.966   2.935  26.269  0.00  0.00    +0.001 A 
ATOM     35  C   UNL     1      -5.557   4.164  25.755  0.00  0.00    +0.002 A 
ATOM     40  H   UNL     1      -3.055   3.516  22.416  0.00  0.00    +0.165 HD
ENDBRANCH  24  25
ENDBRANCH  19  24
ENDBRANCH   7  19
ENDBRANCH  11  16
BRANCH  15  17
ATOM     17  C   UNL     1       1.696  -0.060  22.322  0.00  0.00    +0.102 C 
BRANCH  17  18
ATOM     18  C   UNL     1       3.195   0.244  22.501  0.00  0.00    -0.029 C 
ATOM     20  C   UNL     1       3.850   0.224  21.107  0.00  0.00    +0.011 C 
ATOM     21  C   UNL     1       3.409   1.635  23.122  0.00  0.00    +0.011 C 
ATOM     22  C   UNL     1       3.878  -0.818  23.378  0.00  0.00    +0.011 C 
ENDBRANCH  17  18
ENDBRANCH  15  17
TORSDOF 10
ENDMDL
MODEL 5
REMARK VINA RESULT:       3.7      1.655      2.166
REMARK  Name = 11865859
REMARK  13 active torsions:
REMARK  status: ('A' for Active; 'I' for Inactive)
REMARK    1  A    between atoms: N_6  and  C_12
REMARK    2  A    between atoms: N_7  and  C_19
REMARK    3  A    between atoms: N_8  and  C_29
REMARK    4  A    between atoms: C_11  and  C_16
REMARK    5  A    between atoms: C_15  and  C_17
REMARK    6  A    between atoms: C_17  and  C_18
REMARK    7  A    between atoms: C_18  and  C_20
REMARK    8  A    between atoms: C_18  and  C_21
REMARK    9  A    between atoms: C_18  and  C_22
REMARK   10  A    between atoms: C_19  and  C_24
REMARK   11  A    between atoms: C_19  and  C_26
REMARK   12  A    between atoms: C_24  and  C_25
REMARK   13  A    between atoms: C_29  and  C_33
REMARK                            x       y       z     vdW  Elec       q    Type
REMARK                         _______ _______ _______ _____ _____    ______ ____
ROOT
ATOM      1  O   UNL     1      -1.044  -0.249  26.140  0.00  0.00    -0.276 OA
ATOM      5  N   UNL     1      -0.264  -0.549  23.981  0.00  0.00    -0.288 N 
ATOM     11  C   UNL     1       0.606   0.623  23.954  0.00  0.00    +0.182 C 
ATOM     12  C   UNL     1       1.504   0.422  22.734  0.00  0.00    +0.105 C 
ATOM     13  C   UNL     1       0.648  -0.437  21.799  0.00  0.00    +0.043 C 
ATOM     14  C   UNL     1      -0.150  -1.323  22.747  0.00  0.00    +0.110 C 
ATOM     15  C   UNL     1      -0.968  -0.928  25.114  0.00  0.00    +0.217 C 
ENDROOT
BRANCH  12   6
ATOM      3  O   UNL     1       4.084   1.626  23.202  0.00  0.00    -0.253 OA
ATOM      6  N   UNL     1       2.726  -0.255  23.096  0.00  0.00    -0.294 N 
ATOM      8  N   UNL     1       4.948  -0.482  23.642  0.00  0.00    -0.296 N 
ATOM     23  C   UNL     1       3.934   0.409  23.303  0.00  0.00    +0.300 C 
ATOM     37  H   UNL     1       2.725  -1.270  23.135  0.00  0.00    +0.151 HD
ATOM     39  H   UNL     1       4.724  -1.469  23.724  0.00  0.00    +0.151 HD
BRANCH   8  29
ATOM     29  C   UNL     1       6.303  -0.060  23.911  0.00  0.00    +0.132 C 
BRANCH  29  33
ATOM     33  C   UNL     1       7.197  -0.579  22.836  0.00  0.00    -0.016 C 
ATOM     36  C   UNL     1       8.530  -0.469  22.856  0.00  0.00    +0.005 C 
ENDBRANCH  29  33
ENDBRANCH   8  29
ENDBRANCH  12   6
BRANCH  11  16
ATOM      2  O   UNL     1      -1.031   1.937  22.817  0.00  0.00    -0.274 OA
ATOM      7  N   UNL     1      -0.149   2.724  24.822  0.00  0.00    -0.302 N 
ATOM     16  C   UNL     1      -0.288   1.815  23.788  0.00  0.00    +0.236 C 
ATOM     38  H   UNL     1       0.451   2.488  25.608  0.00  0.00    +0.150 HD
BRANCH   7  19
ATOM     19  C   UNL     1      -0.882   3.967  24.887  0.00  0.00    +0.163 C 
BRANCH  19  26
ATOM      4  O   UNL     1       0.208   6.129  24.683  0.00  0.00    -0.274 OA
ATOM     10  N   UNL     1       0.492   4.594  22.999  0.00  0.00    -0.328 N 
ATOM     26  C   UNL     1      -0.030   5.025  24.200  0.00  0.00    +0.231 C 
ATOM     41  H   UNL     1       1.089   5.197  22.444  0.00  0.00    +0.145 HD
ATOM     42  H   UNL     1       0.305   3.670  22.623  0.00  0.00    +0.145 HD
ENDBRANCH  19  26
BRANCH  19  24
ATOM     24  C   UNL     1      -2.257   3.867  24.215  0.00  0.00    +0.069 C 
BRANCH  24  25
ATOM      9  N   UNL     1      -4.684   3.944  26.974  0.00  0.00    -0.360 N 
ATOM     25  C   UNL     1      -3.380   3.690  25.196  0.00  0.00    -0.020 A 
ATOM     27  C   UNL     1      -4.460   2.768  25.092  0.00  0.00    +0.003 A 
ATOM     28  C   UNL     1      -3.546   4.399  26.363  0.00  0.00    +0.087 A 
ATOM     30  C   UNL     1      -5.263   2.949  26.220  0.00  0.00    +0.047 A 
ATOM     31  C   UNL     1      -4.831   1.795  24.143  0.00  0.00    +0.010 A 
ATOM     32  C   UNL     1      -6.423   2.200  26.448  0.00  0.00    +0.026 A 
ATOM     34  C   UNL     1      -5.990   1.040  24.358  0.00  0.00    +0.001 A 
ATOM     35  C   UNL     1      -6.773   1.241  25.494  0.00  0.00    +0.002 A 
ATOM     40  H   UNL     1      -5.047   4.289  27.853  0.00  0.00    +0.165 HD
ENDBRANCH  24  25
ENDBRANCH  19  24
ENDBRANCH   7  19
ENDBRANCH  11  16
BRANCH  15  17
ATOM     17  C   UNL     1      -1.674  -2.258  25.026  0.00  0.00    +0.102 C 
BRANCH  17  18
ATOM     18  C   UNL     1      -3.199  -2.116  24.878  0.00  0.00    -0.029 C 
ATOM     20  C   UNL     1      -3.798  -3.532  24.784  0.00  0.00    +0.011 C 
ATOM     21  C   UNL     1      -3.813  -1.405  26.096  0.00  0.00    +0.011 C 
ATOM     22  C   UNL     1      -3.565  -1.344  23.598  0.00  0.00    +0.011 C 
ENDBRANCH  17  18
ENDBRANCH  15  17
TORSDOF 10
ENDMDL
MODEL 6
REMARK VINA RESULT:       3.8      2.389      5.702
REMARK  Name = 11865859
REMARK  13 active torsions:
REMARK  status: ('A' for Active; 'I' for Inactive)
REMARK    1  A    between atoms: N_6  and  C_12
REMARK    2  A    between atoms: N_7  and  C_19
REMARK    3  A    between atoms: N_8  and  C_29
REMARK    4  A    between atoms: C_11  and  C_16
REMARK    5  A    between atoms: C_15  and  C_17
REMARK    6  A    between atoms: C_17  and  C_18
REMARK    7  A    between atoms: C_18  and  C_20
REMARK    8  A    between atoms: C_18  and  C_21
REMARK    9  A    between atoms: C_18  and  C_22
REMARK   10  A    between atoms: C_19  and  C_24
REMARK   11  A    between atoms: C_19  and  C_26
REMARK   12  A    between atoms: C_24  and  C_25
REMARK   13  A    between atoms: C_29  and  C_33
REMARK                            x       y       z     vdW  Elec       q    Type
REMARK                         _______ _______ _______ _____ _____    ______ ____
ROOT
ATOM      1  O   UNL     1       1.059  -1.117  23.614  0.00  0.00    -0.276 OA
ATOM      5  N   UNL     1       0.886   1.191  23.680  0.00  0.00    -0.288 N 
ATOM     11  C   UNL     1      -0.075   1.254  24.777  0.00  0.00    +0.182 C 
ATOM     12  C   UNL     1      -0.062   2.714  25.231  0.00  0.00    +0.105 C 
ATOM     13  C   UNL     1       0.340   3.477  23.966  0.00  0.00    +0.043 C 
ATOM     14  C   UNL     1       1.297   2.527  23.257  0.00  0.00    +0.110 C 
ATOM     15  C   UNL     1       1.431  -0.004  23.237  0.00  0.00    +0.217 C 
ENDROOT
BRANCH  12   6
ATOM      3  O   UNL     1      -0.163   1.610  27.895  0.00  0.00    -0.253 OA
ATOM      6  N   UNL     1       0.894   2.917  26.293  0.00  0.00    -0.294 N 
ATOM      8  N   UNL     1       1.825   2.703  28.385  0.00  0.00    -0.296 N 
ATOM     23  C   UNL     1       0.766   2.343  27.556  0.00  0.00    +0.300 C 
ATOM     37  H   UNL     1       1.661   3.565  26.137  0.00  0.00    +0.151 HD
ATOM     39  H   UNL     1       2.558   3.296  28.010  0.00  0.00    +0.151 HD
BRANCH   8  29
ATOM     29  C   UNL     1       1.941   2.246  29.750  0.00  0.00    +0.132 C 
BRANCH  29  33
ATOM     33  C   UNL     1       0.774   2.748  30.532  0.00  0.00    -0.016 C 
ATOM     36  C   UNL     1       0.522   2.403  31.800  0.00  0.00    +0.005 C 
ENDBRANCH  29  33
ENDBRANCH   8  29
ENDBRANCH  12   6
BRANCH  11  16
ATOM      2  O   UNL     1      -1.927   1.509  23.293  0.00  0.00    -0.274 OA
ATOM      7  N   UNL     1      -1.945  -0.241  24.829  0.00  0.00    -0.302 N 
ATOM     16  C   UNL     1      -1.405   0.870  24.203  0.00  0.00    +0.236 C 
ATOM     38  H   UNL     1      -1.393  -0.728  25.529  0.00  0.00    +0.150 HD
BRANCH   7  19
ATOM     19  C   UNL     1      -3.230  -0.800  24.477  0.00  0.00    +0.163 C 
BRANCH  19  26
ATOM      4  O   UNL     1      -3.957  -3.098  24.166  0.00  0.00    -0.274 OA
ATOM     10  N   UNL     1      -1.705  -2.665  24.280  0.00  0.00    -0.328 N 
ATOM     26  C   UNL     1      -3.034  -2.300  24.309  0.00  0.00    +0.231 C 
ATOM     41  H   UNL     1      -1.433  -3.635  24.160  0.00  0.00    +0.145 HD
ATOM     42  H   UNL     1      -0.951  -1.991  24.376  0.00  0.00    +0.145 HD
ENDBRANCH  19  26
BRANCH  19  24
ATOM     24  C   UNL     1      -4.299  -0.514  25.539  0.00  0.00    +0.069 C 
BRANCH  24  25
ATOM      9  N   UNL     1      -6.613   2.231  24.756  0.00  0.00    -0.360 N 
ATOM     25  C   UNL     1      -5.030   0.776  25.307  0.00  0.00    -0.020 A 
ATOM     27  C   UNL     1      -4.530   2.088  25.541  0.00  0.00    +0.003 A 
ATOM     28  C   UNL     1      -6.313   0.898  24.825  0.00  0.00    +0.087 A 
ATOM     30  C   UNL     1      -5.543   2.982  25.188  0.00  0.00    +0.047 A 
ATOM     31  C   UNL     1      -3.309   2.602  26.021  0.00  0.00    +0.010 A 
ATOM     32  C   UNL     1      -5.395   4.370  25.291  0.00  0.00    +0.026 A 
ATOM     34  C   UNL     1      -3.147   3.988  26.131  0.00  0.00    +0.001 A 
ATOM     35  C   UNL     1      -4.176   4.857  25.770  0.00  0.00    +0.002 A 
ATOM     40  H   UNL     1      -7.493   2.611  24.435  0.00  0.00    +0.165 HD
ENDBRANCH  24  25
ENDBRANCH  19  24
ENDBRANCH   7  19
ENDBRANCH  11  16
BRANCH  15  17
ATOM     17  C   UNL     1       2.538   0.124  22.220  0.00  0.00    +0.102 C 
BRANCH  17  18
ATOM     18  C   UNL     1       3.938  -0.043  22.837  0.00  0.00    -0.029 C 
ATOM     20  C   UNL     1       4.953  -0.150  21.683  0.00  0.00    +0.011 C 
ATOM     21  C   UNL     1       4.311   1.170  23.706  0.00  0.00    +0.011 C 
ATOM     22  C   UNL     1       4.024  -1.324  23.685  0.00  0.00    +0.011 C 
ENDBRANCH  17  18
ENDBRANCH  15  17
TORSDOF 10
ENDMDL
MODEL 7
REMARK VINA RESULT:       3.9      2.221      5.809
REMARK  Name = 11865859
REMARK  13 active torsions:
REMARK  status: ('A' for Active; 'I' for Inactive)
REMARK    1  A    between atoms: N_6  and  C_12
REMARK    2  A    between atoms: N_7  and  C_19
REMARK    3  A    between atoms: N_8  and  C_29
REMARK    4  A    between atoms: C_11  and  C_16
REMARK    5  A    between atoms: C_15  and  C_17
REMARK    6  A    between atoms: C_17  and  C_18
REMARK    7  A    between atoms: C_18  and  C_20
REMARK    8  A    between atoms: C_18  and  C_21
REMARK    9  A    between atoms: C_18  and  C_22
REMARK   10  A    between atoms: C_19  and  C_24
REMARK   11  A    between atoms: C_19  and  C_26
REMARK   12  A    between atoms: C_24  and  C_25
REMARK   13  A    between atoms: C_29  and  C_33
REMARK                            x       y       z     vdW  Elec       q    Type
REMARK                         _______ _______ _______ _____ _____    ______ ____
ROOT
ATOM      1  O   UNL     1       2.653  -1.462  23.921  0.00  0.00    -0.276 OA
ATOM      5  N   UNL     1       1.726   0.630  23.568  0.00  0.00    -0.288 N 
ATOM     11  C   UNL     1       0.564   0.444  24.431  0.00  0.00    +0.182 C 
ATOM     12  C   UNL     1      -0.010   1.847  24.630  0.00  0.00    +0.105 C 
ATOM     13  C   UNL     1       0.413   2.588  23.360  0.00  0.00    +0.043 C 
ATOM     14  C   UNL     1       1.768   1.982  23.018  0.00  0.00    +0.110 C 
ATOM     15  C   UNL     1       2.721  -0.328  23.444  0.00  0.00    +0.217 C 
ENDROOT
BRANCH  12   6
ATOM      3  O   UNL     1      -0.501   1.110  27.377  0.00  0.00    -0.253 OA
ATOM      6  N   UNL     1       0.543   2.469  25.809  0.00  0.00    -0.294 N 
ATOM      8  N   UNL     1       0.916   2.819  28.051  0.00  0.00    -0.296 N 
ATOM     23  C   UNL     1       0.249   2.047  27.105  0.00  0.00    +0.300 C 
ATOM     37  H   UNL     1       1.118   3.298  25.695  0.00  0.00    +0.151 HD
ATOM     39  H   UNL     1       1.533   3.559  27.731  0.00  0.00    +0.151 HD
BRANCH   8  29
ATOM     29  C   UNL     1       0.789   2.597  29.473  0.00  0.00    +0.132 C 
BRANCH  29  33
ATOM     33  C   UNL     1       2.125   2.234  30.029  0.00  0.00    -0.016 C 
ATOM     36  C   UNL     1       3.280   2.419  29.379  0.00  0.00    +0.005 C 
ENDBRANCH  29  33
ENDBRANCH   8  29
ENDBRANCH  12   6
BRANCH  11  16
ATOM      2  O   UNL     1      -0.139  -0.848  22.551  0.00  0.00    -0.274 OA
ATOM      7  N   UNL     1      -1.545  -0.691  24.399  0.00  0.00    -0.302 N 
ATOM     16  C   UNL     1      -0.389  -0.437  23.681  0.00  0.00    +0.236 C 
ATOM     38  H   UNL     1      -1.617  -0.350  25.354  0.00  0.00    +0.150 HD
BRANCH   7  19
ATOM     19  C   UNL     1      -2.632  -1.496  23.890  0.00  0.00    +0.163 C 
BRANCH  19  26
ATOM      4  O   UNL     1      -3.740  -3.311  25.065  0.00  0.00    -0.274 OA
ATOM     10  N   UNL     1      -3.276  -1.379  26.217  0.00  0.00    -0.328 N 
ATOM     26  C   UNL     1      -3.288  -2.169  25.087  0.00  0.00    +0.231 C 
ATOM     41  H   UNL     1      -3.670  -1.713  27.090  0.00  0.00    +0.145 HD
ATOM     42  H   UNL     1      -2.878  -0.446  26.227  0.00  0.00    +0.145 HD
ENDBRANCH  19  26
BRANCH  19  24
ATOM     24  C   UNL     1      -3.658  -0.661  23.113  0.00  0.00    +0.069 C 
BRANCH  24  25
ATOM      9  N   UNL     1      -2.989   2.941  23.394  0.00  0.00    -0.360 N 
ATOM     25  C   UNL     1      -3.588   0.805  23.430  0.00  0.00    -0.020 A 
ATOM     27  C   UNL     1      -4.364   1.501  24.399  0.00  0.00    +0.003 A 
ATOM     28  C   UNL     1      -2.752   1.717  22.829  0.00  0.00    +0.087 A 
ATOM     30  C   UNL     1      -3.969   2.840  24.355  0.00  0.00    +0.047 A 
ATOM     31  C   UNL     1      -5.368   1.120  25.310  0.00  0.00    +0.010 A 
ATOM     32  C   UNL     1      -4.530   3.820  25.182  0.00  0.00    +0.026 A 
ATOM     34  C   UNL     1      -5.939   2.090  26.143  0.00  0.00    +0.001 A 
ATOM     35  C   UNL     1      -5.524   3.419  26.078  0.00  0.00    +0.002 A 
ATOM     40  H   UNL     1      -2.513   3.797  23.142  0.00  0.00    +0.165 HD
ENDBRANCH  24  25
ENDBRANCH  19  24
ENDBRANCH   7  19
ENDBRANCH  11  16
BRANCH  15  17
ATOM     17  C   UNL     1       3.935   0.095  22.656  0.00  0.00    +0.102 C 
BRANCH  17  18
ATOM     18  C   UNL     1       5.257  -0.218  23.380  0.00  0.00    -0.029 C 
ATOM     20  C   UNL     1       5.528   0.921  24.380  0.00  0.00    +0.011 C 
ATOM     21  C   UNL     1       5.164  -1.541  24.158  0.00  0.00    +0.011 C 
ATOM     22  C   UNL     1       6.431  -0.290  22.389  0.00  0.00    +0.011 C 
ENDBRANCH  17  18
ENDBRANCH  15  17
TORSDOF 10
ENDMDL
MODEL 8
REMARK VINA RESULT:       4.7      2.025      3.212
REMARK  Name = 11865859
REMARK  13 active torsions:
REMARK  status: ('A' for Active; 'I' for Inactive)
REMARK    1  A    between atoms: N_6  and  C_12
REMARK    2  A    between atoms: N_7  and  C_19
REMARK    3  A    between atoms: N_8  and  C_29
REMARK    4  A    between atoms: C_11  and  C_16
REMARK    5  A    between atoms: C_15  and  C_17
REMARK    6  A    between atoms: C_17  and  C_18
REMARK    7  A    between atoms: C_18  and  C_20
REMARK    8  A    between atoms: C_18  and  C_21
REMARK    9  A    between atoms: C_18  and  C_22
REMARK   10  A    between atoms: C_19  and  C_24
REMARK   11  A    between atoms: C_19  and  C_26
REMARK   12  A    between atoms: C_24  and  C_25
REMARK   13  A    between atoms: C_29  and  C_33
REMARK                            x       y       z     vdW  Elec       q    Type
REMARK                         _______ _______ _______ _____ _____    ______ ____
ROOT
ATOM      1  O   UNL     1      -1.055  -0.224  26.019  0.00  0.00    -0.276 OA
ATOM      5  N   UNL     1      -0.207  -0.688  23.915  0.00  0.00    -0.288 N 
ATOM     11  C   UNL     1       0.598   0.523  23.790  0.00  0.00    +0.182 C 
ATOM     12  C   UNL     1       1.535   0.255  22.613  0.00  0.00    +0.105 C 
ATOM     13  C   UNL     1       0.751  -0.737  21.751  0.00  0.00    +0.043 C 
ATOM     14  C   UNL     1      -0.021  -1.570  22.766  0.00  0.00    +0.110 C 
ATOM     15  C   UNL     1      -0.917  -0.994  25.066  0.00  0.00    +0.217 C 
ENDROOT
BRANCH  12   6
ATOM      3  O   UNL     1       4.047   1.633  22.963  0.00  0.00    -0.253 OA
ATOM      6  N   UNL     1       2.783  -0.313  23.063  0.00  0.00    -0.294 N 
ATOM      8  N   UNL     1       5.005  -0.364  23.653  0.00  0.00    -0.296 N 
ATOM     23  C   UNL     1       3.954   0.430  23.203  0.00  0.00    +0.300 C 
ATOM     37  H   UNL     1       2.831  -1.316  23.220  0.00  0.00    +0.151 HD
ATOM     39  H   UNL     1       4.828  -1.345  23.847  0.00  0.00    +0.151 HD
BRANCH   8  29
ATOM     29  C   UNL     1       6.333   0.153  23.885  0.00  0.00    +0.132 C 
BRANCH  29  33
ATOM     33  C   UNL     1       7.296  -0.565  23.000  0.00  0.00    -0.016 C 
ATOM     36  C   UNL     1       8.607  -0.298  22.951  0.00  0.00    +0.005 C 
ENDBRANCH  29  33
ENDBRANCH   8  29
ENDBRANCH  12   6
BRANCH  11  16
ATOM      2  O   UNL     1      -0.031   2.819  23.615  0.00  0.00    -0.274 OA
ATOM      7  N   UNL     1      -1.597   1.178  23.092  0.00  0.00    -0.302 N 
ATOM     16  C   UNL     1      -0.355   1.641  23.490  0.00  0.00    +0.236 C 
ATOM     38  H   UNL     1      -1.733   0.179  22.963  0.00  0.00    +0.150 HD
BRANCH   7  19
ATOM     19  C   UNL     1      -2.700   2.053  22.767  0.00  0.00    +0.163 C 
BRANCH  19  26
ATOM      4  O   UNL     1      -3.196   3.187  20.676  0.00  0.00    -0.274 OA
ATOM     10  N   UNL     1      -2.061   1.191  20.601  0.00  0.00    -0.328 N 
ATOM     26  C   UNL     1      -2.708   2.219  21.254  0.00  0.00    +0.231 C 
ATOM     41  H   UNL     1      -1.983   1.185  19.590  0.00  0.00    +0.145 HD
ATOM     42  H   UNL     1      -1.642   0.409  21.094  0.00  0.00    +0.145 HD
ENDBRANCH  19  26
BRANCH  19  24
ATOM     24  C   UNL     1      -4.045   1.499  23.253  0.00  0.00    +0.069 C 
BRANCH  24  25
ATOM      9  N   UNL     1      -5.823   2.729  26.225  0.00  0.00    -0.360 N 
ATOM     25  C   UNL     1      -4.542   2.170  24.501  0.00  0.00    -0.020 A 
ATOM     27  C   UNL     1      -3.869   3.177  25.248  0.00  0.00    +0.003 A 
ATOM     28  C   UNL     1      -5.740   1.916  25.127  0.00  0.00    +0.087 A 
ATOM     30  C   UNL     1      -4.693   3.509  26.325  0.00  0.00    +0.047 A 
ATOM     31  C   UNL     1      -2.632   3.839  25.111  0.00  0.00    +0.010 A 
ATOM     32  C   UNL     1      -4.343   4.475  27.275  0.00  0.00    +0.026 A 
ATOM     34  C   UNL     1      -2.268   4.807  26.055  0.00  0.00    +0.001 A 
ATOM     35  C   UNL     1      -3.112   5.119  27.119  0.00  0.00    +0.002 A 
ATOM     40  H   UNL     1      -6.601   2.753  26.871  0.00  0.00    +0.165 HD
ENDBRANCH  24  25
ENDBRANCH  19  24
ENDBRANCH   7  19
ENDBRANCH  11  16
BRANCH  15  17
ATOM     17  C   UNL     1      -1.547  -2.364  25.096  0.00  0.00    +0.102 C 
BRANCH  17  18
ATOM     18  C   UNL     1      -3.083  -2.317  24.996  0.00  0.00    -0.029 C 
ATOM     20  C   UNL     1      -3.607  -1.474  26.174  0.00  0.00    +0.011 C 
ATOM     21  C   UNL     1      -3.535  -1.657  23.683  0.00  0.00    +0.011 C 
ATOM     22  C   UNL     1      -3.690  -3.727  25.095  0.00  0.00    +0.011 C 
ENDBRANCH  17  18
ENDBRANCH  15  17
TORSDOF 10
ENDMDL
MODEL 9
REMARK VINA RESULT:       5.2      1.771      2.621
REMARK  Name = 11865859
REMARK  13 active torsions:
REMARK  status: ('A' for Active; 'I' for Inactive)
REMARK    1  A    between atoms: N_6  and  C_12
REMARK    2  A    between atoms: N_7  and  C_19
REMARK    3  A    between atoms: N_8  and  C_29
REMARK    4  A    between atoms: C_11  and  C_16
REMARK    5  A    between atoms: C_15  and  C_17
REMARK    6  A    between atoms: C_17  and  C_18
REMARK    7  A    between atoms: C_18  and  C_20
REMARK    8  A    between atoms: C_18  and  C_21
REMARK    9  A    between atoms: C_18  and  C_22
REMARK   10  A    between atoms: C_19  and  C_24
REMARK   11  A    between atoms: C_19  and  C_26
REMARK   12  A    between atoms: C_24  and  C_25
REMARK   13  A    between atoms: C_29  and  C_33
REMARK                            x       y       z     vdW  Elec       q    Type
REMARK                         _______ _______ _______ _____ _____    ______ ____
ROOT
ATOM      1  O   UNL     1      -0.808  -2.511  25.624  0.00  0.00    -0.276 OA
ATOM      5  N   UNL     1      -1.014  -0.820  24.057  0.00  0.00    -0.288 N 
ATOM     11  C   UNL     1      -0.005   0.064  24.634  0.00  0.00    +0.182 C 
ATOM     12  C   UNL     1       0.283   1.099  23.547  0.00  0.00    +0.105 C 
ATOM     13  C   UNL     1      -1.026   1.157  22.754  0.00  0.00    +0.043 C 
ATOM     14  C   UNL     1      -1.551  -0.272  22.814  0.00  0.00    +0.110 C 
ATOM     15  C   UNL     1      -1.279  -2.080  24.570  0.00  0.00    +0.217 C 
ENDROOT
BRANCH  12   6
ATOM      3  O   UNL     1       3.098   1.391  24.110  0.00  0.00    -0.253 OA
ATOM      6  N   UNL     1       1.384   0.682  22.712  0.00  0.00    -0.294 N 
ATOM      8  N   UNL     1       3.573   0.369  22.082  0.00  0.00    -0.296 N 
ATOM     23  C   UNL     1       2.720   0.863  23.064  0.00  0.00    +0.300 C 
ATOM     37  H   UNL     1       1.178   0.299  21.794  0.00  0.00    +0.151 HD
ATOM     39  H   UNL     1       3.169  -0.071  21.261  0.00  0.00    +0.151 HD
BRANCH   8  29
ATOM     29  C   UNL     1       5.012   0.428  22.191  0.00  0.00    +0.132 C 
BRANCH  29  33
ATOM     33  C   UNL     1       5.423  -0.129  23.512  0.00  0.00    -0.016 C 
ATOM     36  C   UNL     1       5.068  -1.342  23.954  0.00  0.00    +0.005 C 
ENDBRANCH  29  33
ENDBRANCH   8  29
ENDBRANCH  12   6
BRANCH  11  16
ATOM      2  O   UNL     1      -1.744   0.366  26.242  0.00  0.00    -0.274 OA
ATOM      7  N   UNL     1       0.177   1.671  26.400  0.00  0.00    -0.302 N 
ATOM     16  C   UNL     1      -0.630   0.696  25.841  0.00  0.00    +0.236 C 
ATOM     38  H   UNL     1       1.109   1.817  26.021  0.00  0.00    +0.150 HD
BRANCH   7  19
ATOM     19  C   UNL     1      -0.205   2.446  27.559  0.00  0.00    +0.163 C 
BRANCH  19  26
ATOM      4  O   UNL     1       0.987   2.511  29.675  0.00  0.00    -0.274 OA
ATOM     10  N   UNL     1       2.197   2.657  27.729  0.00  0.00    -0.328 N 
ATOM     26  C   UNL     1       1.025   2.555  28.448  0.00  0.00    +0.231 C 
ATOM     41  H   UNL     1       3.093   2.723  28.200  0.00  0.00    +0.145 HD
ATOM     42  H   UNL     1       2.216   2.669  26.714  0.00  0.00    +0.145 HD
ENDBRANCH  19  26
BRANCH  19  24
ATOM     24  C   UNL     1      -0.721   3.840  27.182  0.00  0.00    +0.069 C 
BRANCH  24  25
ATOM      9  N   UNL     1      -1.825   4.147  23.690  0.00  0.00    -0.360 N 
ATOM     25  C   UNL     1      -1.423   3.870  25.856  0.00  0.00    -0.020 A 
ATOM     27  C   UNL     1      -2.776   3.506  25.604  0.00  0.00    +0.003 A 
ATOM     28  C   UNL     1      -0.865   4.259  24.660  0.00  0.00    +0.087 A 
ATOM     30  C   UNL     1      -3.002   3.688  24.238  0.00  0.00    +0.047 A 
ATOM     31  C   UNL     1      -3.832   3.037  26.410  0.00  0.00    +0.010 A 
ATOM     32  C   UNL     1      -4.237   3.424  23.635  0.00  0.00    +0.026 A 
ATOM     34  C   UNL     1      -5.073   2.768  25.821  0.00  0.00    +0.001 A 
ATOM     35  C   UNL     1      -5.270   2.959  24.454  0.00  0.00    +0.002 A 
ATOM     40  H   UNL     1      -1.690   4.368  22.713  0.00  0.00    +0.165 HD
ENDBRANCH  24  25
ENDBRANCH  19  24
ENDBRANCH   7  19
ENDBRANCH  11  16
BRANCH  15  17
ATOM     17  C   UNL     1      -2.217  -2.930  23.751  0.00  0.00    +0.102 C 
BRANCH  17  18
ATOM     18  C   UNL     1      -3.692  -2.748  24.151  0.00  0.00    -0.029 C 
ATOM     20  C   UNL     1      -3.767  -2.752  25.690  0.00  0.00    +0.011 C 
ATOM     21  C   UNL     1      -4.247  -1.409  23.638  0.00  0.00    +0.011 C 
ATOM     22  C   UNL     1      -4.561  -3.900  23.616  0.00  0.00    +0.011 C 
ENDBRANCH  17  18
ENDBRANCH  15  17
TORSDOF 10
ENDMDL
