MODEL 1
REMARK VINA RESULT:      -2.3      0.000      0.000
REMARK  Name = 51137598
REMARK  6 active torsions:
REMARK  status: ('A' for Active; 'I' for Inactive)
REMARK    1  A    between atoms: O_3  and  C_20
REMARK    2  A    between atoms: O_3  and  C_21
REMARK    3  A    between atoms: N_4  and  C_8
REMARK    4  A    between atoms: N_5  and  C_18
REMARK    5  A    between atoms: C_10  and  C_17
REMARK    6  A    between atoms: C_19  and  C_20
REMARK                            x       y       z     vdW  Elec       q    Type
REMARK                         _______ _______ _______ _____ _____    ______ ____
ROOT
ATOM      2  O   UNL     1      -4.158   2.241  24.889  0.00  0.00    -0.421 OA
ATOM      6  N   UNL     1      -4.796   4.335  25.351  0.00  0.00    -0.112 NA
ATOM      7  N   UNL     1      -5.844   3.491  25.663  0.00  0.00    -0.109 NA
ATOM     17  C   UNL     1      -3.833   3.563  24.903  0.00  0.00    +0.222 A 
ATOM     19  C   UNL     1      -5.428   2.279  25.377  0.00  0.00    +0.254 A 
ENDROOT
BRANCH  17  10
ATOM      4  N   UNL     1      -0.259   3.117  24.229  0.00  0.00    -0.299 NA
ATOM      9  C   UNL     1      -1.640   2.716  23.946  0.00  0.00    +0.097 C 
ATOM     10  C   UNL     1      -2.451   3.930  24.417  0.00  0.00    +0.092 C 
ATOM     11  C   UNL     1      -0.311   3.739  25.551  0.00  0.00    +0.085 C 
ATOM     12  C   UNL     1      -1.556   4.613  25.466  0.00  0.00    +0.029 C 
BRANCH   4   8
ATOM      5  N   UNL     1       2.097  -0.035  22.624  0.00  0.00    -0.305 NA
ATOM      8  C   UNL     1       0.669   1.989  24.181  0.00  0.00    +0.059 C 
ATOM     13  C   UNL     1       1.876   2.333  23.304  0.00  0.00    +0.034 C 
ATOM     14  C   UNL     1      -0.023   0.732  23.647  0.00  0.00    +0.034 C 
ATOM     15  C   UNL     1       2.812   1.130  23.162  0.00  0.00    +0.085 C 
ATOM     16  C   UNL     1       0.975  -0.419  23.493  0.00  0.00    +0.085 C 
ATOM     18  C   UNL     1       3.014  -1.161  22.446  0.00  0.00    +0.104 C 
ENDBRANCH   4   8
ENDBRANCH  17  10
BRANCH  19  20
ATOM     20  C   UNL     1      -6.126   0.993  25.510  0.00  0.00    +0.326 C 
BRANCH  20   3
ATOM      3  O   UNL     1      -5.767   0.120  24.437  0.00  0.00    -0.483 OA
BRANCH   3  21
ATOM      1  F   UNL     1      -1.237  -2.908  25.155  0.00  0.00    -0.205 F 
ATOM     21  C   UNL     1      -4.641  -0.633  24.615  0.00  0.00    +0.121 A 
ATOM     22  C   UNL     1      -3.700  -0.264  25.577  0.00  0.00    +0.048 A 
ATOM     23  C   UNL     1      -4.431  -1.771  23.836  0.00  0.00    +0.048 A 
ATOM     24  C   UNL     1      -2.550  -1.032  25.759  0.00  0.00    +0.042 A 
ATOM     25  C   UNL     1      -3.281  -2.539  24.018  0.00  0.00    +0.042 A 
ATOM     26  C   UNL     1      -2.340  -2.170  24.980  0.00  0.00    +0.124 A 
ENDBRANCH   3  21
ENDBRANCH  20   3
ENDBRANCH  19  20
TORSDOF 5
ENDMDL
MODEL 2
REMARK VINA RESULT:      -2.0      2.653      6.928
REMARK  Name = 51137598
REMARK  6 active torsions:
REMARK  status: ('A' for Active; 'I' for Inactive)
REMARK    1  A    between atoms: O_3  and  C_20
REMARK    2  A    between atoms: O_3  and  C_21
REMARK    3  A    between atoms: N_4  and  C_8
REMARK    4  A    between atoms: N_5  and  C_18
REMARK    5  A    between atoms: C_10  and  C_17
REMARK    6  A    between atoms: C_19  and  C_20
REMARK                            x       y       z     vdW  Elec       q    Type
REMARK                         _______ _______ _______ _____ _____    ______ ____
ROOT
ATOM      2  O   UNL     1      -0.798  -0.197  23.600  0.00  0.00    -0.421 OA
ATOM      6  N   UNL     1      -0.363  -2.107  24.680  0.00  0.00    -0.112 NA
ATOM      7  N   UNL     1       0.841  -1.556  24.284  0.00  0.00    -0.109 NA
ATOM     17  C   UNL     1      -1.292  -1.280  24.260  0.00  0.00    +0.222 A 
ATOM     19  C   UNL     1       0.539  -0.443  23.657  0.00  0.00    +0.254 A 
ENDROOT
BRANCH  17  10
ATOM      4  N   UNL     1      -4.711  -0.059  24.754  0.00  0.00    -0.299 NA
ATOM      9  C   UNL     1      -3.514  -0.103  23.911  0.00  0.00    +0.097 C 
ATOM     10  C   UNL     1      -2.793  -1.363  24.406  0.00  0.00    +0.092 C 
ATOM     11  C   UNL     1      -4.238  -0.387  26.098  0.00  0.00    +0.085 C 
ATOM     12  C   UNL     1      -3.293  -1.555  25.849  0.00  0.00    +0.029 C 
BRANCH   4   8
ATOM      5  N   UNL     1      -5.582   4.011  25.614  0.00  0.00    -0.305 NA
ATOM      8  C   UNL     1      -5.383   1.238  24.702  0.00  0.00    +0.059 C 
ATOM     13  C   UNL     1      -4.405   2.322  24.241  0.00  0.00    +0.034 C 
ATOM     14  C   UNL     1      -5.967   1.608  26.068  0.00  0.00    +0.034 C 
ATOM     15  C   UNL     1      -5.063   3.705  24.274  0.00  0.00    +0.085 C 
ATOM     16  C   UNL     1      -6.572   3.013  26.042  0.00  0.00    +0.085 C 
ATOM     18  C   UNL     1      -6.161   5.354  25.644  0.00  0.00    +0.104 C 
ENDBRANCH   4   8
ENDBRANCH  17  10
BRANCH  19  20
ATOM     20  C   UNL     1       1.423   0.547  23.029  0.00  0.00    +0.326 C 
BRANCH  20   3
ATOM      3  O   UNL     1       1.750   1.582  23.960  0.00  0.00    -0.483 OA
BRANCH   3  21
ATOM      1  F   UNL     1      -2.472   4.376  26.099  0.00  0.00    -0.205 F 
ATOM     21  C   UNL     1       0.700   2.276  24.492  0.00  0.00    +0.121 A 
ATOM     22  C   UNL     1       0.038   3.235  23.725  0.00  0.00    +0.048 A 
ATOM     23  C   UNL     1       0.290   2.026  25.802  0.00  0.00    +0.048 A 
ATOM     24  C   UNL     1      -1.033   3.945  24.267  0.00  0.00    +0.042 A 
ATOM     25  C   UNL     1      -0.781   2.736  26.344  0.00  0.00    +0.042 A 
ATOM     26  C   UNL     1      -1.443   3.695  25.577  0.00  0.00    +0.124 A 
ENDBRANCH   3  21
ENDBRANCH  20   3
ENDBRANCH  19  20
TORSDOF 5
ENDMDL
MODEL 3
REMARK VINA RESULT:      -1.8      2.045      4.289
REMARK  Name = 51137598
REMARK  6 active torsions:
REMARK  status: ('A' for Active; 'I' for Inactive)
REMARK    1  A    between atoms: O_3  and  C_20
REMARK    2  A    between atoms: O_3  and  C_21
REMARK    3  A    between atoms: N_4  and  C_8
REMARK    4  A    between atoms: N_5  and  C_18
REMARK    5  A    between atoms: C_10  and  C_17
REMARK    6  A    between atoms: C_19  and  C_20
REMARK                            x       y       z     vdW  Elec       q    Type
REMARK                         _______ _______ _______ _____ _____    ______ ____
ROOT
ATOM      2  O   UNL     1      -4.166   1.407  25.805  0.00  0.00    -0.421 OA
ATOM      6  N   UNL     1      -5.436  -0.000  24.617  0.00  0.00    -0.112 NA
ATOM      7  N   UNL     1      -6.087   1.218  24.675  0.00  0.00    -0.109 NA
ATOM     17  C   UNL     1      -4.319   0.157  25.290  0.00  0.00    +0.222 A 
ATOM     19  C   UNL     1      -5.310   2.009  25.378  0.00  0.00    +0.254 A 
ENDROOT
BRANCH  17  10
ATOM      4  N   UNL     1      -1.190  -1.656  24.701  0.00  0.00    -0.299 NA
ATOM      9  C   UNL     1      -1.857  -0.386  24.996  0.00  0.00    +0.097 C 
ATOM     10  C   UNL     1      -3.212  -0.833  25.561  0.00  0.00    +0.092 C 
ATOM     11  C   UNL     1      -2.222  -2.488  24.083  0.00  0.00    +0.085 C 
ATOM     12  C   UNL     1      -3.437  -2.235  24.966  0.00  0.00    +0.029 C 
BRANCH   4   8
ATOM      5  N   UNL     1       2.325   0.075  23.055  0.00  0.00    -0.305 NA
ATOM      8  C   UNL     1      -0.022  -1.486  23.840  0.00  0.00    +0.059 C 
ATOM     13  C   UNL     1       1.257  -1.454  24.681  0.00  0.00    +0.034 C 
ATOM     14  C   UNL     1      -0.135  -0.203  23.011  0.00  0.00    +0.034 C 
ATOM     15  C   UNL     1       2.482  -1.177  23.806  0.00  0.00    +0.085 C 
ATOM     16  C   UNL     1       1.136   0.033  22.192  0.00  0.00    +0.085 C 
ATOM     18  C   UNL     1       3.523   0.352  22.264  0.00  0.00    +0.104 C 
ENDBRANCH   4   8
ENDBRANCH  17  10
BRANCH  19  20
ATOM     20  C   UNL     1      -5.500   3.416  25.754  0.00  0.00    +0.326 C 
BRANCH  20   3
ATOM      3  O   UNL     1      -4.718   4.264  24.909  0.00  0.00    -0.483 OA
BRANCH   3  21
ATOM      1  F   UNL     1       0.518   2.788  24.128  0.00  0.00    -0.205 F 
ATOM     21  C   UNL     1      -3.416   3.898  24.715  0.00  0.00    +0.121 A 
ATOM     22  C   UNL     1      -3.057   3.175  23.576  0.00  0.00    +0.048 A 
ATOM     23  C   UNL     1      -2.445   4.245  25.655  0.00  0.00    +0.048 A 
ATOM     24  C   UNL     1      -1.729   2.800  23.378  0.00  0.00    +0.042 A 
ATOM     25  C   UNL     1      -1.117   3.869  25.457  0.00  0.00    +0.042 A 
ATOM     26  C   UNL     1      -0.758   3.147  24.318  0.00  0.00    +0.124 A 
ENDBRANCH   3  21
ENDBRANCH  20   3
ENDBRANCH  19  20
TORSDOF 5
ENDMDL
MODEL 4
REMARK VINA RESULT:      -1.6      2.790      5.575
REMARK  Name = 51137598
REMARK  6 active torsions:
REMARK  status: ('A' for Active; 'I' for Inactive)
REMARK    1  A    between atoms: O_3  and  C_20
REMARK    2  A    between atoms: O_3  and  C_21
REMARK    3  A    between atoms: N_4  and  C_8
REMARK    4  A    between atoms: N_5  and  C_18
REMARK    5  A    between atoms: C_10  and  C_17
REMARK    6  A    between atoms: C_19  and  C_20
REMARK                            x       y       z     vdW  Elec       q    Type
REMARK                         _______ _______ _______ _____ _____    ______ ____
ROOT
ATOM      2  O   UNL     1      -3.097  -1.100  24.566  0.00  0.00    -0.421 OA
ATOM      6  N   UNL     1      -4.781  -2.393  23.863  0.00  0.00    -0.112 NA
ATOM      7  N   UNL     1      -3.662  -3.191  24.008  0.00  0.00    -0.109 NA
ATOM     17  C   UNL     1      -4.405  -1.181  24.200  0.00  0.00    +0.222 A 
ATOM     19  C   UNL     1      -2.703  -2.394  24.419  0.00  0.00    +0.254 A 
ENDROOT
BRANCH  17  10
ATOM      4  N   UNL     1      -5.019   2.407  24.618  0.00  0.00    -0.299 NA
ATOM      9  C   UNL     1      -4.376   1.334  23.856  0.00  0.00    +0.097 C 
ATOM     10  C   UNL     1      -5.205   0.100  24.237  0.00  0.00    +0.092 C 
ATOM     11  C   UNL     1      -5.271   1.832  25.939  0.00  0.00    +0.085 C 
ATOM     12  C   UNL     1      -5.809   0.446  25.609  0.00  0.00    +0.029 C 
BRANCH   4   8
ATOM      5  N   UNL     1      -1.564   4.857  24.962  0.00  0.00    -0.305 NA
ATOM      8  C   UNL     1      -4.198   3.614  24.684  0.00  0.00    +0.059 C 
ATOM     13  C   UNL     1      -3.173   3.620  23.547  0.00  0.00    +0.034 C 
ATOM     14  C   UNL     1      -3.482   3.716  26.034  0.00  0.00    +0.034 C 
ATOM     15  C   UNL     1      -2.238   4.827  23.657  0.00  0.00    +0.085 C 
ATOM     16  C   UNL     1      -2.536   4.919  26.062  0.00  0.00    +0.085 C 
ATOM     18  C   UNL     1      -0.637   5.987  25.033  0.00  0.00    +0.104 C 
ENDBRANCH   4   8
ENDBRANCH  17  10
BRANCH  19  20
ATOM     20  C   UNL     1      -1.302  -2.701  24.736  0.00  0.00    +0.326 C 
BRANCH  20   3
ATOM      3  O   UNL     1      -0.788  -1.755  25.677  0.00  0.00    -0.483 OA
BRANCH   3  21
ATOM      1  F   UNL     1       0.621   3.167  23.679  0.00  0.00    -0.205 F 
ATOM     21  C   UNL     1      -0.438  -0.531  25.180  0.00  0.00    +0.121 A 
ATOM     22  C   UNL     1       0.207  -0.438  23.947  0.00  0.00    +0.048 A 
ATOM     23  C   UNL     1      -0.725   0.625  25.906  0.00  0.00    +0.048 A 
ATOM     24  C   UNL     1       0.565   0.811  23.440  0.00  0.00    +0.042 A 
ATOM     25  C   UNL     1      -0.367   1.874  25.399  0.00  0.00    +0.042 A 
ATOM     26  C   UNL     1       0.278   1.968  24.166  0.00  0.00    +0.124 A 
ENDBRANCH   3  21
ENDBRANCH  20   3
ENDBRANCH  19  20
TORSDOF 5
ENDMDL
MODEL 5
REMARK VINA RESULT:      -0.4      2.236      5.545
REMARK  Name = 51137598
REMARK  6 active torsions:
REMARK  status: ('A' for Active; 'I' for Inactive)
REMARK    1  A    between atoms: O_3  and  C_20
REMARK    2  A    between atoms: O_3  and  C_21
REMARK    3  A    between atoms: N_4  and  C_8
REMARK    4  A    between atoms: N_5  and  C_18
REMARK    5  A    between atoms: C_10  and  C_17
REMARK    6  A    between atoms: C_19  and  C_20
REMARK                            x       y       z     vdW  Elec       q    Type
REMARK                         _______ _______ _______ _____ _____    ______ ____
ROOT
ATOM      2  O   UNL     1      -0.389  -0.421  24.965  0.00  0.00    -0.421 OA
ATOM      6  N   UNL     1       0.964  -0.009  23.232  0.00  0.00    -0.112 NA
ATOM      7  N   UNL     1       0.598  -1.341  23.181  0.00  0.00    -0.109 NA
ATOM     17  C   UNL     1       0.365   0.488  24.289  0.00  0.00    +0.222 A 
ATOM     19  C   UNL     1      -0.192  -1.537  24.211  0.00  0.00    +0.254 A 
ENDROOT
BRANCH  17  10
ATOM      4  N   UNL     1      -0.936   3.791  25.195  0.00  0.00    -0.299 NA
ATOM      9  C   UNL     1      -0.956   2.343  25.412  0.00  0.00    +0.097 C 
ATOM     10  C   UNL     1       0.396   1.893  24.842  0.00  0.00    +0.092 C 
ATOM     11  C   UNL     1      -0.397   3.963  23.847  0.00  0.00    +0.085 C 
ATOM     12  C   UNL     1       0.768   2.982  23.819  0.00  0.00    +0.029 C 
BRANCH   4   8
ATOM      5  N   UNL     1      -5.165   4.093  25.502  0.00  0.00    -0.305 NA
ATOM      8  C   UNL     1      -2.259   4.396  25.347  0.00  0.00    +0.059 C 
ATOM     13  C   UNL     1      -2.957   3.837  26.589  0.00  0.00    +0.034 C 
ATOM     14  C   UNL     1      -3.121   4.145  24.106  0.00  0.00    +0.034 C 
ATOM     15  C   UNL     1      -4.382   4.384  26.710  0.00  0.00    +0.085 C 
ATOM     16  C   UNL     1      -4.540   4.681  24.308  0.00  0.00    +0.085 C 
ATOM     18  C   UNL     1      -6.537   4.576  25.653  0.00  0.00    +0.104 C 
ENDBRANCH   4   8
ENDBRANCH  17  10
BRANCH  19  20
ATOM     20  C   UNL     1      -0.874  -2.762  24.648  0.00  0.00    +0.326 C 
BRANCH  20   3
ATOM      3  O   UNL     1      -2.213  -2.789  24.146  0.00  0.00    -0.483 OA
BRANCH   3  21
ATOM      1  F   UNL     1      -5.458   1.404  25.594  0.00  0.00    -0.205 F 
ATOM     21  C   UNL     1      -3.019  -1.747  24.506  0.00  0.00    +0.121 A 
ATOM     22  C   UNL     1      -3.313  -1.524  25.852  0.00  0.00    +0.048 A 
ATOM     23  C   UNL     1      -3.550  -0.905  23.528  0.00  0.00    +0.048 A 
ATOM     24  C   UNL     1      -4.136  -0.460  26.219  0.00  0.00    +0.042 A 
ATOM     25  C   UNL     1      -4.374   0.159  23.896  0.00  0.00    +0.042 A 
ATOM     26  C   UNL     1      -4.667   0.382  25.241  0.00  0.00    +0.124 A 
ENDBRANCH   3  21
ENDBRANCH  20   3
ENDBRANCH  19  20
TORSDOF 5
ENDMDL
MODEL 6
REMARK VINA RESULT:      -0.2      2.820      4.741
REMARK  Name = 51137598
REMARK  6 active torsions:
REMARK  status: ('A' for Active; 'I' for Inactive)
REMARK    1  A    between atoms: O_3  and  C_20
REMARK    2  A    between atoms: O_3  and  C_21
REMARK    3  A    between atoms: N_4  and  C_8
REMARK    4  A    between atoms: N_5  and  C_18
REMARK    5  A    between atoms: C_10  and  C_17
REMARK    6  A    between atoms: C_19  and  C_20
REMARK                            x       y       z     vdW  Elec       q    Type
REMARK                         _______ _______ _______ _____ _____    ______ ____
ROOT
ATOM      2  O   UNL     1      -1.956   3.668  24.547  0.00  0.00    -0.421 OA
ATOM      6  N   UNL     1      -0.254   5.019  25.081  0.00  0.00    -0.112 NA
ATOM      7  N   UNL     1      -1.309   5.806  24.658  0.00  0.00    -0.109 NA
ATOM     17  C   UNL     1      -0.677   3.779  25.001  0.00  0.00    +0.222 A 
ATOM     19  C   UNL     1      -2.280   4.976  24.356  0.00  0.00    +0.254 A 
ENDROOT
BRANCH  17  10
ATOM      4  N   UNL     1      -0.302   0.203  25.708  0.00  0.00    -0.299 NA
ATOM      9  C   UNL     1      -0.644   1.253  24.746  0.00  0.00    +0.097 C 
ATOM     10  C   UNL     1       0.042   2.493  25.334  0.00  0.00    +0.092 C 
ATOM     11  C   UNL     1      -0.479   0.824  27.021  0.00  0.00    +0.085 C 
ATOM     12  C   UNL     1       0.165   2.192  26.838  0.00  0.00    +0.029 C 
BRANCH   4   8
ATOM      5  N   UNL     1      -3.316  -2.378  24.185  0.00  0.00    -0.305 NA
ATOM      8  C   UNL     1      -1.125  -0.993  25.544  0.00  0.00    +0.059 C 
ATOM     13  C   UNL     1      -0.989  -1.538  24.119  0.00  0.00    +0.034 C 
ATOM     14  C   UNL     1      -2.595  -0.693  25.850  0.00  0.00    +0.034 C 
ATOM     15  C   UNL     1      -1.920  -2.733  23.898  0.00  0.00    +0.085 C 
ATOM     16  C   UNL     1      -3.473  -1.916  25.572  0.00  0.00    +0.085 C 
ATOM     18  C   UNL     1      -4.198  -3.514  23.921  0.00  0.00    +0.104 C 
ENDBRANCH   4   8
ENDBRANCH  17  10
BRANCH  19  20
ATOM     20  C   UNL     1      -3.632   5.258  23.856  0.00  0.00    +0.326 C 
BRANCH  20   3
ATOM      3  O   UNL     1      -4.250   4.055  23.393  0.00  0.00    -0.483 OA
BRANCH   3  21
ATOM      1  F   UNL     1      -6.712   0.943  27.195  0.00  0.00    -0.205 F 
ATOM     21  C   UNL     1      -4.862   3.282  24.338  0.00  0.00    +0.121 A 
ATOM     22  C   UNL     1      -4.857   1.892  24.213  0.00  0.00    +0.048 A 
ATOM     23  C   UNL     1      -5.492   3.881  25.429  0.00  0.00    +0.048 A 
ATOM     24  C   UNL     1      -5.482   1.102  25.177  0.00  0.00    +0.042 A 
ATOM     25  C   UNL     1      -6.117   3.091  26.394  0.00  0.00    +0.042 A 
ATOM     26  C   UNL     1      -6.113   1.701  26.268  0.00  0.00    +0.124 A 
ENDBRANCH   3  21
ENDBRANCH  20   3
ENDBRANCH  19  20
TORSDOF 5
ENDMDL
MODEL 7
REMARK VINA RESULT:       0.3      2.282      5.796
REMARK  Name = 51137598
REMARK  6 active torsions:
REMARK  status: ('A' for Active; 'I' for Inactive)
REMARK    1  A    between atoms: O_3  and  C_20
REMARK    2  A    between atoms: O_3  and  C_21
REMARK    3  A    between atoms: N_4  and  C_8
REMARK    4  A    between atoms: N_5  and  C_18
REMARK    5  A    between atoms: C_10  and  C_17
REMARK    6  A    between atoms: C_19  and  C_20
REMARK                            x       y       z     vdW  Elec       q    Type
REMARK                         _______ _______ _______ _____ _____    ______ ____
ROOT
ATOM      2  O   UNL     1      -0.435   0.146  24.264  0.00  0.00    -0.421 OA
ATOM      6  N   UNL     1       1.156   0.742  22.808  0.00  0.00    -0.112 NA
ATOM      7  N   UNL     1       1.536  -0.452  23.391  0.00  0.00    -0.109 NA
ATOM     17  C   UNL     1      -0.000   1.054  23.347  0.00  0.00    +0.222 A 
ATOM     19  C   UNL     1       0.578  -0.762  24.234  0.00  0.00    +0.254 A 
ENDROOT
BRANCH  17  10
ATOM      4  N   UNL     1      -3.033   3.103  23.516  0.00  0.00    -0.299 NA
ATOM      9  C   UNL     1      -1.906   2.486  24.220  0.00  0.00    +0.097 C 
ATOM     10  C   UNL     1      -0.889   2.248  23.095  0.00  0.00    +0.092 C 
ATOM     11  C   UNL     1      -3.178   2.327  22.284  0.00  0.00    +0.085 C 
ATOM     12  C   UNL     1      -1.738   2.164  21.815  0.00  0.00    +0.029 C 
BRANCH   4   8
ATOM      5  N   UNL     1      -5.917   1.878  26.387  0.00  0.00    -0.305 NA
ATOM      8  C   UNL     1      -4.255   3.109  24.317  0.00  0.00    +0.059 C 
ATOM     13  C   UNL     1      -3.912   3.207  25.806  0.00  0.00    +0.034 C 
ATOM     14  C   UNL     1      -5.088   1.851  24.055  0.00  0.00    +0.034 C 
ATOM     15  C   UNL     1      -5.174   3.114  26.667  0.00  0.00    +0.085 C 
ATOM     16  C   UNL     1      -6.311   1.803  24.973  0.00  0.00    +0.085 C 
ATOM     18  C   UNL     1      -7.092   1.780  27.253  0.00  0.00    +0.104 C 
ENDBRANCH   4   8
ENDBRANCH  17  10
BRANCH  19  20
ATOM     20  C   UNL     1       0.453  -1.925  25.122  0.00  0.00    +0.326 C 
BRANCH  20   3
ATOM      3  O   UNL     1      -0.690  -1.781  25.969  0.00  0.00    -0.483 OA
BRANCH   3  21
ATOM      1  F   UNL     1      -5.603  -2.176  23.536  0.00  0.00    -0.205 F 
ATOM     21  C   UNL     1      -1.912  -1.879  25.365  0.00  0.00    +0.121 A 
ATOM     22  C   UNL     1      -2.166  -2.919  24.469  0.00  0.00    +0.048 A 
ATOM     23  C   UNL     1      -2.906  -0.940  25.642  0.00  0.00    +0.048 A 
ATOM     24  C   UNL     1      -3.412  -3.019  23.851  0.00  0.00    +0.042 A 
ATOM     25  C   UNL     1      -4.152  -1.040  25.024  0.00  0.00    +0.042 A 
ATOM     26  C   UNL     1      -4.406  -2.079  24.128  0.00  0.00    +0.124 A 
ENDBRANCH   3  21
ENDBRANCH  20   3
ENDBRANCH  19  20
TORSDOF 5
ENDMDL
MODEL 8
REMARK VINA RESULT:       0.3      2.259      4.928
REMARK  Name = 51137598
REMARK  6 active torsions:
REMARK  status: ('A' for Active; 'I' for Inactive)
REMARK    1  A    between atoms: O_3  and  C_20
REMARK    2  A    between atoms: O_3  and  C_21
REMARK    3  A    between atoms: N_4  and  C_8
REMARK    4  A    between atoms: N_5  and  C_18
REMARK    5  A    between atoms: C_10  and  C_17
REMARK    6  A    between atoms: C_19  and  C_20
REMARK                            x       y       z     vdW  Elec       q    Type
REMARK                         _______ _______ _______ _____ _____    ______ ____
ROOT
ATOM      2  O   UNL     1      -1.974   3.524  25.224  0.00  0.00    -0.421 OA
ATOM      6  N   UNL     1      -3.063   5.417  25.707  0.00  0.00    -0.112 NA
ATOM      7  N   UNL     1      -1.787   5.752  25.297  0.00  0.00    -0.109 NA
ATOM     17  C   UNL     1      -3.128   4.107  25.649  0.00  0.00    +0.222 A 
ATOM     19  C   UNL     1      -1.186   4.616  25.025  0.00  0.00    +0.254 A 
ENDROOT
BRANCH  17  10
ATOM      4  N   UNL     1      -5.098   1.018  25.610  0.00  0.00    -0.299 NA
ATOM      9  C   UNL     1      -3.868   1.706  26.008  0.00  0.00    +0.097 C 
ATOM     10  C   UNL     1      -4.277   3.184  25.979  0.00  0.00    +0.092 C 
ATOM     11  C   UNL     1      -5.629   1.810  24.500  0.00  0.00    +0.085 C 
ATOM     12  C   UNL     1      -5.457   3.241  24.992  0.00  0.00    +0.029 C 
BRANCH   4   8
ATOM      5  N   UNL     1      -3.058  -2.439  24.215  0.00  0.00    -0.305 NA
ATOM      8  C   UNL     1      -4.863  -0.375  25.236  0.00  0.00    +0.059 C 
ATOM     13  C   UNL     1      -3.736  -0.968  26.085  0.00  0.00    +0.034 C 
ATOM     14  C   UNL     1      -4.514  -0.492  23.749  0.00  0.00    +0.034 C 
ATOM     15  C   UNL     1      -3.407  -2.396  25.641  0.00  0.00    +0.085 C 
ATOM     16  C   UNL     1      -4.159  -1.934  23.382  0.00  0.00    +0.085 C 
ATOM     18  C   UNL     1      -2.697  -3.800  23.817  0.00  0.00    +0.104 C 
ENDBRANCH   4   8
ENDBRANCH  17  10
BRANCH  19  20
ATOM     20  C   UNL     1       0.180   4.371  24.546  0.00  0.00    +0.326 C 
BRANCH  20   3
ATOM      3  O   UNL     1       0.183   3.326  23.570  0.00  0.00    -0.483 OA
BRANCH   3  21
ATOM      1  F   UNL     1      -0.384  -1.800  25.472  0.00  0.00    -0.205 F 
ATOM     21  C   UNL     1       0.042   2.051  24.043  0.00  0.00    +0.121 A 
ATOM     22  C   UNL     1      -0.256   1.835  25.389  0.00  0.00    +0.048 A 
ATOM     23  C   UNL     1       0.196   0.965  23.180  0.00  0.00    +0.048 A 
ATOM     24  C   UNL     1      -0.399   0.535  25.872  0.00  0.00    +0.042 A 
ATOM     25  C   UNL     1       0.052  -0.335  23.663  0.00  0.00    +0.042 A 
ATOM     26  C   UNL     1      -0.245  -0.551  25.009  0.00  0.00    +0.124 A 
ENDBRANCH   3  21
ENDBRANCH  20   3
ENDBRANCH  19  20
TORSDOF 5
ENDMDL
MODEL 9
REMARK VINA RESULT:       0.4      2.338      3.949
REMARK  Name = 51137598
REMARK  6 active torsions:
REMARK  status: ('A' for Active; 'I' for Inactive)
REMARK    1  A    between atoms: O_3  and  C_20
REMARK    2  A    between atoms: O_3  and  C_21
REMARK    3  A    between atoms: N_4  and  C_8
REMARK    4  A    between atoms: N_5  and  C_18
REMARK    5  A    between atoms: C_10  and  C_17
REMARK    6  A    between atoms: C_19  and  C_20
REMARK                            x       y       z     vdW  Elec       q    Type
REMARK                         _______ _______ _______ _____ _____    ______ ____
ROOT
ATOM      2  O   UNL     1      -2.006   2.711  25.400  0.00  0.00    -0.421 OA
ATOM      6  N   UNL     1      -0.224   3.627  24.404  0.00  0.00    -0.112 NA
ATOM      7  N   UNL     1      -1.035   4.651  24.856  0.00  0.00    -0.109 NA
ATOM     17  C   UNL     1      -0.830   2.513  24.743  0.00  0.00    +0.222 A 
ATOM     19  C   UNL     1      -2.063   4.070  25.430  0.00  0.00    +0.254 A 
ENDROOT
BRANCH  17  10
ATOM      4  N   UNL     1       1.263  -0.241  23.535  0.00  0.00    -0.299 NA
ATOM      9  C   UNL     1       1.112   0.908  24.430  0.00  0.00    +0.097 C 
ATOM     10  C   UNL     1      -0.410   1.080  24.512  0.00  0.00    +0.092 C 
ATOM     11  C   UNL     1       0.298  -0.011  22.460  0.00  0.00    +0.085 C 
ATOM     12  C   UNL     1      -0.943   0.452  23.212  0.00  0.00    +0.029 C 
BRANCH   4   8
ATOM      5  N   UNL     1       5.511  -0.120  23.468  0.00  0.00    -0.305 NA
ATOM      8  C   UNL     1       2.629  -0.383  23.035  0.00  0.00    +0.059 C 
ATOM     13  C   UNL     1       3.416  -1.359  23.914  0.00  0.00    +0.034 C 
ATOM     14  C   UNL     1       3.341   0.972  22.994  0.00  0.00    +0.034 C 
ATOM     15  C   UNL     1       4.877  -1.445  23.465  0.00  0.00    +0.085 C 
ATOM     16  C   UNL     1       4.804   0.810  22.576  0.00  0.00    +0.085 C 
ATOM     18  C   UNL     1       6.919  -0.225  23.087  0.00  0.00    +0.104 C 
ENDBRANCH   4   8
ENDBRANCH  17  10
BRANCH  19  20
ATOM     20  C   UNL     1      -3.232   4.671  26.085  0.00  0.00    +0.326 C 
BRANCH  20   3
ATOM      3  O   UNL     1      -4.430   4.305  25.394  0.00  0.00    -0.483 OA
BRANCH   3  21
ATOM      1  F   UNL     1      -4.917  -0.980  23.966  0.00  0.00    -0.205 F 
ATOM     21  C   UNL     1      -4.551   2.991  25.040  0.00  0.00    +0.121 A 
ATOM     22  C   UNL     1      -4.044   2.549  23.817  0.00  0.00    +0.048 A 
ATOM     23  C   UNL     1      -5.181   2.091  25.899  0.00  0.00    +0.048 A 
ATOM     24  C   UNL     1      -4.168   1.208  23.454  0.00  0.00    +0.042 A 
ATOM     25  C   UNL     1      -5.306   0.750  25.536  0.00  0.00    +0.042 A 
ATOM     26  C   UNL     1      -4.799   0.308  24.314  0.00  0.00    +0.124 A 
ENDBRANCH   3  21
ENDBRANCH  20   3
ENDBRANCH  19  20
TORSDOF 5
ENDMDL
MODEL 10
REMARK VINA RESULT:       0.6      2.241      4.660
REMARK  Name = 51137598
REMARK  6 active torsions:
REMARK  status: ('A' for Active; 'I' for Inactive)
REMARK    1  A    between atoms: O_3  and  C_20
REMARK    2  A    between atoms: O_3  and  C_21
REMARK    3  A    between atoms: N_4  and  C_8
REMARK    4  A    between atoms: N_5  and  C_18
REMARK    5  A    between atoms: C_10  and  C_17
REMARK    6  A    between atoms: C_19  and  C_20
REMARK                            x       y       z     vdW  Elec       q    Type
REMARK                         _______ _______ _______ _____ _____    ______ ____
ROOT
ATOM      2  O   UNL     1      -3.942   3.212  25.723  0.00  0.00    -0.421 OA
ATOM      6  N   UNL     1      -6.087   3.846  25.666  0.00  0.00    -0.112 NA
ATOM      7  N   UNL     1      -5.311   4.976  25.849  0.00  0.00    -0.109 NA
ATOM     17  C   UNL     1      -5.245   2.840  25.598  0.00  0.00    +0.222 A 
ATOM     19  C   UNL     1      -4.067   4.559  25.876  0.00  0.00    +0.254 A 
ENDROOT
BRANCH  17  10
ATOM      4  N   UNL     1      -4.468  -0.723  25.251  0.00  0.00    -0.299 NA
ATOM      9  C   UNL     1      -4.487   0.470  26.100  0.00  0.00    +0.097 C 
ATOM     10  C   UNL     1      -5.519   1.368  25.405  0.00  0.00    +0.092 C 
ATOM     11  C   UNL     1      -4.475  -0.211  23.881  0.00  0.00    +0.085 C 
ATOM     12  C   UNL     1      -5.519   0.897  23.939  0.00  0.00    +0.029 C 
BRANCH   4   8
ATOM      5  N   UNL     1      -0.476  -2.178  25.127  0.00  0.00    -0.305 NA
ATOM      8  C   UNL     1      -3.313  -1.579  25.519  0.00  0.00    +0.059 C 
ATOM     13  C   UNL     1      -2.206  -0.774  26.204  0.00  0.00    +0.034 C 
ATOM     14  C   UNL     1      -2.782  -2.202  24.225  0.00  0.00    +0.034 C 
ATOM     15  C   UNL     1      -0.950  -1.628  26.403  0.00  0.00    +0.085 C 
ATOM     16  C   UNL     1      -1.508  -3.008  24.489  0.00  0.00    +0.085 C 
ATOM     18  C   UNL     1       0.751  -2.949  25.325  0.00  0.00    +0.104 C 
ENDBRANCH   4   8
ENDBRANCH  17  10
BRANCH  19  20
ATOM     20  C   UNL     1      -2.826   5.326  26.042  0.00  0.00    +0.326 C 
BRANCH  20   3
ATOM      3  O   UNL     1      -2.000   5.189  24.883  0.00  0.00    -0.483 OA
BRANCH   3  21
ATOM      1  F   UNL     1       0.269   0.250  24.063  0.00  0.00    -0.205 F 
ATOM     21  C   UNL     1      -1.436   3.961  24.679  0.00  0.00    +0.121 A 
ATOM     22  C   UNL     1      -1.839   3.179  23.597  0.00  0.00    +0.048 A 
ATOM     23  C   UNL     1      -0.456   3.489  25.553  0.00  0.00    +0.048 A 
ATOM     24  C   UNL     1      -1.264   1.925  23.389  0.00  0.00    +0.042 A 
ATOM     25  C   UNL     1       0.119   2.236  25.346  0.00  0.00    +0.042 A 
ATOM     26  C   UNL     1      -0.284   1.453  24.263  0.00  0.00    +0.124 A 
ENDBRANCH   3  21
ENDBRANCH  20   3
ENDBRANCH  19  20
TORSDOF 5
ENDMDL
