MODEL 1
REMARK VINA RESULT:      -4.7      0.000      0.000
REMARK  Name = 75536894
REMARK  3 active torsions:
REMARK  status: ('A' for Active; 'I' for Inactive)
REMARK    1  A    between atoms: O_3  and  C_13
REMARK    2  A    between atoms: O_3  and  C_16
REMARK    3  A    between atoms: C_6  and  C_10
REMARK                            x       y       z     vdW  Elec       q    Type
REMARK                         _______ _______ _______ _____ _____    ______ ____
ROOT
ATOM      1  O   UNL     1      -2.000   3.986  24.416  0.00  0.00    -0.375 OA
ATOM      2  O   UNL     1       0.059  -0.740  23.812  0.00  0.00    -0.275 OA
ATOM      4  N   UNL     1      -0.269   1.474  24.452  0.00  0.00    -0.295 N 
ATOM     10  C   UNL     1       0.396   0.451  23.744  0.00  0.00    +0.219 C 
ATOM     11  C   UNL     1      -1.420   1.132  25.291  0.00  0.00    +0.154 C 
ATOM     12  C   UNL     1       0.154   2.876  24.351  0.00  0.00    +0.136 C 
ATOM     13  C   UNL     1      -2.734   1.652  24.709  0.00  0.00    +0.216 C 
ATOM     14  C   UNL     1      -0.725   3.906  25.046  0.00  0.00    +0.179 C 
ATOM     15  C   UNL     1      -2.976   3.132  24.998  0.00  0.00    +0.206 C 
ENDROOT
BRANCH  10   6
ATOM      6  C   UNL     1       1.579   0.876  22.871  0.00  0.00    +0.075 C 
ATOM      7  C   UNL     1       2.998   0.836  23.499  0.00  0.00    +0.013 C 
ATOM      8  C   UNL     1       2.110  -0.147  21.834  0.00  0.00    +0.013 C 
ATOM      9  C   UNL     1       3.525   0.388  22.123  0.00  0.00    +0.001 C 
ENDBRANCH  10   6
BRANCH  13   3
ATOM      3  O   UNL     1      -3.798   0.897  25.287  0.00  0.00    -0.483 OA
BRANCH   3  16
ATOM      5  N   UNL     1      -3.305  -2.692  25.777  0.00  0.00    -0.260 NA
ATOM     16  C   UNL     1      -3.802  -0.446  25.032  0.00  0.00    +0.139 A 
ATOM     17  C   UNL     1      -4.281  -0.945  23.825  0.00  0.00    +0.049 A 
ATOM     18  C   UNL     1      -3.330  -1.353  25.966  0.00  0.00    +0.156 A 
ATOM     19  C   UNL     1      -4.271  -2.316  23.593  0.00  0.00    +0.023 A 
ATOM     20  C   UNL     1      -3.777  -3.138  24.592  0.00  0.00    +0.111 A 
ENDBRANCH   3  16
ENDBRANCH  13   3
TORSDOF 3
ENDMDL
MODEL 2
REMARK VINA RESULT:      -4.0     17.444     19.090
REMARK  Name = 75536894
REMARK  3 active torsions:
REMARK  status: ('A' for Active; 'I' for Inactive)
REMARK    1  A    between atoms: O_3  and  C_13
REMARK    2  A    between atoms: O_3  and  C_16
REMARK    3  A    between atoms: C_6  and  C_10
REMARK                            x       y       z     vdW  Elec       q    Type
REMARK                         _______ _______ _______ _____ _____    ______ ____
ROOT
ATOM      1  O   UNL     1      12.175  -5.826  31.009  0.00  0.00    -0.375 OA
ATOM      2  O   UNL     1      17.209  -4.567  30.910  0.00  0.00    -0.275 OA
ATOM      4  N   UNL     1      15.035  -4.971  31.638  0.00  0.00    -0.295 N 
ATOM     10  C   UNL     1      16.138  -4.135  31.361  0.00  0.00    +0.219 C 
ATOM     11  C   UNL     1      15.138  -6.406  31.367  0.00  0.00    +0.154 C 
ATOM     12  C   UNL     1      13.780  -4.430  32.172  0.00  0.00    +0.136 C 
ATOM     13  C   UNL     1      14.267  -6.835  30.187  0.00  0.00    +0.216 C 
ATOM     14  C   UNL     1      12.615  -5.402  32.295  0.00  0.00    +0.179 C 
ATOM     15  C   UNL     1      12.798  -7.022  30.560  0.00  0.00    +0.206 C 
ENDROOT
BRANCH  10   6
ATOM      6  C   UNL     1      15.960  -2.643  31.649  0.00  0.00    +0.075 C 
ATOM      7  C   UNL     1      16.859  -2.001  32.740  0.00  0.00    +0.013 C 
ATOM      8  C   UNL     1      16.604  -1.639  30.658  0.00  0.00    +0.013 C 
ATOM      9  C   UNL     1      16.901  -0.732  31.867  0.00  0.00    +0.001 C 
ENDBRANCH  10   6
BRANCH  13   3
ATOM      3  O   UNL     1      14.772  -8.077  29.698  0.00  0.00    -0.483 OA
BRANCH   3  16
ATOM      5  N   UNL     1      16.095  -9.331  26.530  0.00  0.00    -0.260 NA
ATOM     16  C   UNL     1      15.262  -8.077  28.422  0.00  0.00    +0.139 A 
ATOM     17  C   UNL     1      15.433  -6.889  27.719  0.00  0.00    +0.049 A 
ATOM     18  C   UNL     1      15.605  -9.261  27.788  0.00  0.00    +0.156 A 
ATOM     19  C   UNL     1      15.936  -6.921  26.423  0.00  0.00    +0.023 A 
ATOM     20  C   UNL     1      16.248  -8.156  25.879  0.00  0.00    +0.111 A 
ENDBRANCH   3  16
ENDBRANCH  13   3
TORSDOF 3
ENDMDL
MODEL 3
REMARK VINA RESULT:      -3.9      2.469      6.425
REMARK  Name = 75536894
REMARK  3 active torsions:
REMARK  status: ('A' for Active; 'I' for Inactive)
REMARK    1  A    between atoms: O_3  and  C_13
REMARK    2  A    between atoms: O_3  and  C_16
REMARK    3  A    between atoms: C_6  and  C_10
REMARK                            x       y       z     vdW  Elec       q    Type
REMARK                         _______ _______ _______ _____ _____    ______ ____
ROOT
ATOM      1  O   UNL     1      -0.742  -1.570  24.289  0.00  0.00    -0.375 OA
ATOM      2  O   UNL     1      -0.540   3.611  24.046  0.00  0.00    -0.275 OA
ATOM      4  N   UNL     1      -0.567   1.425  24.845  0.00  0.00    -0.295 N 
ATOM     10  C   UNL     1      -1.108   2.719  24.693  0.00  0.00    +0.219 C 
ATOM     11  C   UNL     1       0.708   1.102  24.202  0.00  0.00    +0.154 C 
ATOM     12  C   UNL     1      -1.263   0.390  25.618  0.00  0.00    +0.136 C 
ATOM     13  C   UNL     1       0.537   0.125  23.038  0.00  0.00    +0.216 C 
ATOM     14  C   UNL     1      -0.655  -1.006  25.594  0.00  0.00    +0.179 C 
ATOM     15  C   UNL     1       0.407  -1.328  23.488  0.00  0.00    +0.206 C 
ENDROOT
BRANCH  10   6
ATOM      6  C   UNL     1      -2.452   2.988  25.374  0.00  0.00    +0.075 C 
ATOM      7  C   UNL     1      -2.786   4.450  25.771  0.00  0.00    +0.013 C 
ATOM      8  C   UNL     1      -3.714   3.041  24.475  0.00  0.00    +0.013 C 
ATOM      9  C   UNL     1      -4.250   4.149  25.402  0.00  0.00    +0.001 C 
ENDBRANCH  10   6
BRANCH  13   3
ATOM      3  O   UNL     1       1.685   0.239  22.198  0.00  0.00    -0.483 OA
BRANCH   3  16
ATOM      5  N   UNL     1       4.369  -1.528  23.940  0.00  0.00    -0.260 NA
ATOM     16  C   UNL     1       2.896   0.003  22.785  0.00  0.00    +0.139 A 
ATOM     17  C   UNL     1       3.871   0.994  22.841  0.00  0.00    +0.049 A 
ATOM     18  C   UNL     1       3.193  -1.230  23.344  0.00  0.00    +0.156 A 
ATOM     19  C   UNL     1       5.094   0.725  23.446  0.00  0.00    +0.023 A 
ATOM     20  C   UNL     1       5.291  -0.540  23.975  0.00  0.00    +0.111 A 
ENDBRANCH   3  16
ENDBRANCH  13   3
TORSDOF 3
ENDMDL
MODEL 4
REMARK VINA RESULT:      -3.2      1.758      5.451
REMARK  Name = 75536894
REMARK  3 active torsions:
REMARK  status: ('A' for Active; 'I' for Inactive)
REMARK    1  A    between atoms: O_3  and  C_13
REMARK    2  A    between atoms: O_3  and  C_16
REMARK    3  A    between atoms: C_6  and  C_10
REMARK                            x       y       z     vdW  Elec       q    Type
REMARK                         _______ _______ _______ _____ _____    ______ ____
ROOT
ATOM      1  O   UNL     1       1.013   0.661  23.109  0.00  0.00    -0.375 OA
ATOM      2  O   UNL     1      -3.659  -0.093  25.240  0.00  0.00    -0.275 OA
ATOM      4  N   UNL     1      -1.394  -0.274  24.734  0.00  0.00    -0.295 N 
ATOM     10  C   UNL     1      -2.721  -0.752  24.767  0.00  0.00    +0.219 C 
ATOM     11  C   UNL     1      -1.101   1.061  25.258  0.00  0.00    +0.154 C 
ATOM     12  C   UNL     1      -0.305  -1.078  24.166  0.00  0.00    +0.136 C 
ATOM     13  C   UNL     1      -0.736   2.049  24.150  0.00  0.00    +0.216 C 
ATOM     14  C   UNL     1       1.055  -0.403  24.055  0.00  0.00    +0.179 C 
ATOM     15  C   UNL     1       0.714   1.924  23.687  0.00  0.00    +0.206 C 
ENDROOT
BRANCH  10   6
ATOM      6  C   UNL     1      -2.965  -2.147  24.187  0.00  0.00    +0.075 C 
ATOM      7  C   UNL     1      -3.336  -3.288  25.171  0.00  0.00    +0.013 C 
ATOM      8  C   UNL     1      -4.334  -2.412  23.508  0.00  0.00    +0.013 C 
ATOM      9  C   UNL     1      -4.267  -3.843  24.077  0.00  0.00    +0.001 C 
ENDBRANCH  10   6
BRANCH  13   3
ATOM      3  O   UNL     1      -0.937   3.368  24.656  0.00  0.00    -0.483 OA
BRANCH   3  16
ATOM      5  N   UNL     1      -4.568   3.771  24.511  0.00  0.00    -0.260 NA
ATOM     16  C   UNL     1      -2.210   3.686  25.041  0.00  0.00    +0.139 A 
ATOM     17  C   UNL     1      -2.465   4.232  26.295  0.00  0.00    +0.049 A 
ATOM     18  C   UNL     1      -3.287   3.477  24.194  0.00  0.00    +0.156 A 
ATOM     19  C   UNL     1      -3.769   4.547  26.658  0.00  0.00    +0.023 A 
ATOM     20  C   UNL     1      -4.775   4.299  25.739  0.00  0.00    +0.111 A 
ENDBRANCH   3  16
ENDBRANCH  13   3
TORSDOF 3
ENDMDL
MODEL 5
REMARK VINA RESULT:      -3.0      2.241      4.299
REMARK  Name = 75536894
REMARK  3 active torsions:
REMARK  status: ('A' for Active; 'I' for Inactive)
REMARK    1  A    between atoms: O_3  and  C_13
REMARK    2  A    between atoms: O_3  and  C_16
REMARK    3  A    between atoms: C_6  and  C_10
REMARK                            x       y       z     vdW  Elec       q    Type
REMARK                         _______ _______ _______ _____ _____    ______ ____
ROOT
ATOM      1  O   UNL     1      -2.650  -2.465  25.739  0.00  0.00    -0.375 OA
ATOM      2  O   UNL     1      -0.935   1.717  23.188  0.00  0.00    -0.275 OA
ATOM      4  N   UNL     1      -1.467  -0.478  23.748  0.00  0.00    -0.295 N 
ATOM     10  C   UNL     1      -0.563   0.570  23.474  0.00  0.00    +0.219 C 
ATOM     11  C   UNL     1      -2.906  -0.210  23.715  0.00  0.00    +0.154 C 
ATOM     12  C   UNL     1      -0.996  -1.827  24.084  0.00  0.00    +0.136 C 
ATOM     13  C   UNL     1      -3.534  -0.253  25.107  0.00  0.00    +0.216 C 
ATOM     14  C   UNL     1      -2.058  -2.837  24.498  0.00  0.00    +0.179 C 
ATOM     15  C   UNL     1      -3.820  -1.672  25.594  0.00  0.00    +0.206 C 
ENDROOT
BRANCH  10   6
ATOM      6  C   UNL     1       0.927   0.229  23.543  0.00  0.00    +0.075 C 
ATOM      7  C   UNL     1       1.627  -0.237  22.238  0.00  0.00    +0.013 C 
ATOM      8  C   UNL     1       1.933   1.409  23.552  0.00  0.00    +0.013 C 
ATOM      9  C   UNL     1       2.877   0.528  22.711  0.00  0.00    +0.001 C 
ENDBRANCH  10   6
BRANCH  13   3
ATOM      3  O   UNL     1      -4.765   0.466  25.055  0.00  0.00    -0.483 OA
BRANCH   3  16
ATOM      5  N   UNL     1      -5.762   3.919  25.726  0.00  0.00    -0.260 NA
ATOM     16  C   UNL     1      -4.684   1.825  25.173  0.00  0.00    +0.139 A 
ATOM     17  C   UNL     1      -3.506   2.502  24.878  0.00  0.00    +0.049 A 
ATOM     18  C   UNL     1      -5.774   2.573  25.590  0.00  0.00    +0.156 A 
ATOM     19  C   UNL     1      -3.454   3.886  25.005  0.00  0.00    +0.023 A 
ATOM     20  C   UNL     1      -4.598   4.540  25.429  0.00  0.00    +0.111 A 
ENDBRANCH   3  16
ENDBRANCH  13   3
TORSDOF 3
ENDMDL
MODEL 6
REMARK VINA RESULT:      -3.0      2.428      4.901
REMARK  Name = 75536894
REMARK  3 active torsions:
REMARK  status: ('A' for Active; 'I' for Inactive)
REMARK    1  A    between atoms: O_3  and  C_13
REMARK    2  A    between atoms: O_3  and  C_16
REMARK    3  A    between atoms: C_6  and  C_10
REMARK                            x       y       z     vdW  Elec       q    Type
REMARK                         _______ _______ _______ _____ _____    ______ ____
ROOT
ATOM      1  O   UNL     1      -0.183   3.387  25.878  0.00  0.00    -0.375 OA
ATOM      2  O   UNL     1      -4.536   1.094  24.227  0.00  0.00    -0.275 OA
ATOM      4  N   UNL     1      -2.677   2.487  24.369  0.00  0.00    -0.295 N 
ATOM     10  C   UNL     1      -4.065   2.232  24.366  0.00  0.00    +0.219 C 
ATOM     11  C   UNL     1      -1.743   1.369  24.223  0.00  0.00    +0.154 C 
ATOM     12  C   UNL     1      -2.149   3.846  24.536  0.00  0.00    +0.136 C 
ATOM     13  C   UNL     1      -0.977   1.083  25.514  0.00  0.00    +0.216 C 
ATOM     14  C   UNL     1      -0.638   3.981  24.666  0.00  0.00    +0.179 C 
ATOM     15  C   UNL     1       0.203   2.027  25.735  0.00  0.00    +0.206 C 
ENDROOT
BRANCH  10   6
ATOM      6  C   UNL     1      -4.987   3.440  24.541  0.00  0.00    +0.075 C 
ATOM      7  C   UNL     1      -6.242   3.273  25.439  0.00  0.00    +0.013 C 
ATOM      8  C   UNL     1      -4.539   4.546  25.532  0.00  0.00    +0.013 C 
ATOM      9  C   UNL     1      -6.023   4.724  25.905  0.00  0.00    +0.001 C 
ENDBRANCH  10   6
BRANCH  13   3
ATOM      3  O   UNL     1      -0.482  -0.253  25.443  0.00  0.00    -0.483 OA
BRANCH   3  16
ATOM      5  N   UNL     1      -1.986  -3.206  23.899  0.00  0.00    -0.260 NA
ATOM     16  C   UNL     1      -1.397  -1.229  25.161  0.00  0.00    +0.139 A 
ATOM     17  C   UNL     1      -2.630  -1.264  25.804  0.00  0.00    +0.049 A 
ATOM     18  C   UNL     1      -1.126  -2.215  24.226  0.00  0.00    +0.156 A 
ATOM     19  C   UNL     1      -3.541  -2.268  25.496  0.00  0.00    +0.023 A 
ATOM     20  C   UNL     1      -3.174  -3.206  24.545  0.00  0.00    +0.111 A 
ENDBRANCH   3  16
ENDBRANCH  13   3
TORSDOF 3
ENDMDL
MODEL 7
REMARK VINA RESULT:      -2.9      2.268      6.251
REMARK  Name = 75536894
REMARK  3 active torsions:
REMARK  status: ('A' for Active; 'I' for Inactive)
REMARK    1  A    between atoms: O_3  and  C_13
REMARK    2  A    between atoms: O_3  and  C_16
REMARK    3  A    between atoms: C_6  and  C_10
REMARK                            x       y       z     vdW  Elec       q    Type
REMARK                         _______ _______ _______ _____ _____    ______ ____
ROOT
ATOM      1  O   UNL     1       0.474   2.574  25.504  0.00  0.00    -0.375 OA
ATOM      2  O   UNL     1      -3.535   0.099  23.326  0.00  0.00    -0.275 OA
ATOM      4  N   UNL     1      -2.120   1.772  24.112  0.00  0.00    -0.295 N 
ATOM     10  C   UNL     1      -3.319   1.027  24.119  0.00  0.00    +0.219 C 
ATOM     11  C   UNL     1      -1.073   1.433  23.147  0.00  0.00    +0.154 C 
ATOM     12  C   UNL     1      -1.893   2.865  25.064  0.00  0.00    +0.136 C 
ATOM     13  C   UNL     1       0.150   0.807  23.817  0.00  0.00    +0.216 C 
ATOM     14  C   UNL     1      -0.510   3.502  25.055  0.00  0.00    +0.179 C 
ATOM     15  C   UNL     1       1.082   1.837  24.451  0.00  0.00    +0.206 C 
ENDROOT
BRANCH  10   6
ATOM      6  C   UNL     1      -4.366   1.419  25.164  0.00  0.00    +0.075 C 
ATOM      7  C   UNL     1      -5.069   2.793  25.008  0.00  0.00    +0.013 C 
ATOM      8  C   UNL     1      -5.776   0.786  25.038  0.00  0.00    +0.013 C 
ATOM      9  C   UNL     1      -6.352   2.125  25.537  0.00  0.00    +0.001 C 
ENDBRANCH  10   6
BRANCH  13   3
ATOM      3  O   UNL     1       0.877   0.091  22.820  0.00  0.00    -0.483 OA
BRANCH   3  16
ATOM      5  N   UNL     1       4.111  -1.340  23.748  0.00  0.00    -0.260 NA
ATOM     16  C   UNL     1       2.227  -0.017  23.009  0.00  0.00    +0.139 A 
ATOM     17  C   UNL     1       3.082   1.029  22.679  0.00  0.00    +0.049 A 
ATOM     18  C   UNL     1       2.787  -1.170  23.535  0.00  0.00    +0.156 A 
ATOM     19  C   UNL     1       4.451   0.892  22.883  0.00  0.00    +0.023 A 
ATOM     20  C   UNL     1       4.910  -0.301  23.415  0.00  0.00    +0.111 A 
ENDBRANCH   3  16
ENDBRANCH  13   3
TORSDOF 3
ENDMDL
MODEL 8
REMARK VINA RESULT:      -2.6     18.633     19.916
REMARK  Name = 75536894
REMARK  3 active torsions:
REMARK  status: ('A' for Active; 'I' for Inactive)
REMARK    1  A    between atoms: O_3  and  C_13
REMARK    2  A    between atoms: O_3  and  C_16
REMARK    3  A    between atoms: C_6  and  C_10
REMARK                            x       y       z     vdW  Elec       q    Type
REMARK                         _______ _______ _______ _____ _____    ______ ____
ROOT
ATOM      1  O   UNL     1      12.481  -8.967  31.277  0.00  0.00    -0.375 OA
ATOM      2  O   UNL     1      17.045  -6.505  31.053  0.00  0.00    -0.275 OA
ATOM      4  N   UNL     1      15.137  -7.576  31.846  0.00  0.00    -0.295 N 
ATOM     10  C   UNL     1      15.977  -6.455  31.680  0.00  0.00    +0.219 C 
ATOM     11  C   UNL     1      15.520  -8.854  31.242  0.00  0.00    +0.154 C 
ATOM     12  C   UNL     1      13.877  -7.485  32.594  0.00  0.00    +0.136 C 
ATOM     13  C   UNL     1      14.614  -9.234  30.071  0.00  0.00    +0.216 C 
ATOM     14  C   UNL     1      12.987  -8.721  32.585  0.00  0.00    +0.179 C 
ATOM     15  C   UNL     1      13.289  -9.852  30.513  0.00  0.00    +0.206 C 
ENDROOT
BRANCH  10   6
ATOM      6  C   UNL     1      15.511  -5.145  32.320  0.00  0.00    +0.075 C 
ATOM      7  C   UNL     1      16.585  -4.076  32.653  0.00  0.00    +0.013 C 
ATOM      8  C   UNL     1      14.871  -4.081  31.391  0.00  0.00    +0.013 C 
ATOM      9  C   UNL     1      15.549  -3.005  32.262  0.00  0.00    +0.001 C 
ENDBRANCH  10   6
BRANCH  13   3
ATOM      3  O   UNL     1      15.312 -10.184  29.268  0.00  0.00    -0.483 OA
BRANCH   3  16
ATOM      5  N   UNL     1      15.190 -10.543  25.632  0.00  0.00    -0.260 NA
ATOM     16  C   UNL     1      15.450  -9.879  27.943  0.00  0.00    +0.139 A 
ATOM     17  C   UNL     1      15.969  -8.653  27.539  0.00  0.00    +0.049 A 
ATOM     18  C   UNL     1      15.079 -10.781  26.958  0.00  0.00    +0.156 A 
ATOM     19  C   UNL     1      16.099  -8.371  26.184  0.00  0.00    +0.023 A 
ATOM     20  C   UNL     1      15.699  -9.341  25.279  0.00  0.00    +0.111 A 
ENDBRANCH   3  16
ENDBRANCH  13   3
TORSDOF 3
ENDMDL
MODEL 9
REMARK VINA RESULT:      -2.6      2.244      2.839
REMARK  Name = 75536894
REMARK  3 active torsions:
REMARK  status: ('A' for Active; 'I' for Inactive)
REMARK    1  A    between atoms: O_3  and  C_13
REMARK    2  A    between atoms: O_3  and  C_16
REMARK    3  A    between atoms: C_6  and  C_10
REMARK                            x       y       z     vdW  Elec       q    Type
REMARK                         _______ _______ _______ _____ _____    ______ ____
ROOT
ATOM      1  O   UNL     1      -0.646   3.800  25.374  0.00  0.00    -0.375 OA
ATOM      2  O   UNL     1       0.678  -0.221  22.370  0.00  0.00    -0.275 OA
ATOM      4  N   UNL     1       0.352   1.159  24.216  0.00  0.00    -0.295 N 
ATOM     10  C   UNL     1       1.155   0.473  23.280  0.00  0.00    +0.219 C 
ATOM     11  C   UNL     1      -1.106   1.073  24.109  0.00  0.00    +0.154 C 
ATOM     12  C   UNL     1       0.946   1.974  25.283  0.00  0.00    +0.136 C 
ATOM     13  C   UNL     1      -1.731   2.395  23.665  0.00  0.00    +0.216 C 
ATOM     14  C   UNL     1      -0.018   2.780  26.143  0.00  0.00    +0.179 C 
ATOM     15  C   UNL     1      -1.885   3.399  24.804  0.00  0.00    +0.206 C 
ENDROOT
BRANCH  10   6
ATOM      6  C   UNL     1       2.670   0.619  23.436  0.00  0.00    +0.075 C 
ATOM      7  C   UNL     1       3.530  -0.673  23.420  0.00  0.00    +0.013 C 
ATOM      8  C   UNL     1       3.480   1.063  22.190  0.00  0.00    +0.013 C 
ATOM      9  C   UNL     1       4.609   0.130  22.670  0.00  0.00    +0.001 C 
ENDBRANCH  10   6
BRANCH  13   3
ATOM      3  O   UNL     1      -3.025   2.110  23.133  0.00  0.00    -0.483 OA
BRANCH   3  16
ATOM      5  N   UNL     1      -5.668   3.292  25.364  0.00  0.00    -0.260 NA
ATOM     16  C   UNL     1      -4.059   2.081  24.026  0.00  0.00    +0.139 A 
ATOM     17  C   UNL     1      -4.556   0.874  24.508  0.00  0.00    +0.049 A 
ATOM     18  C   UNL     1      -4.645   3.251  24.481  0.00  0.00    +0.156 A 
ATOM     19  C   UNL     1      -5.608   0.876  25.418  0.00  0.00    +0.023 A 
ATOM     20  C   UNL     1      -6.123   2.100  25.810  0.00  0.00    +0.111 A 
ENDBRANCH   3  16
ENDBRANCH  13   3
TORSDOF 3
ENDMDL
MODEL 10
REMARK VINA RESULT:      -2.4     13.763     17.687
REMARK  Name = 75536894
REMARK  3 active torsions:
REMARK  status: ('A' for Active; 'I' for Inactive)
REMARK    1  A    between atoms: O_3  and  C_13
REMARK    2  A    between atoms: O_3  and  C_16
REMARK    3  A    between atoms: C_6  and  C_10
REMARK                            x       y       z     vdW  Elec       q    Type
REMARK                         _______ _______ _______ _____ _____    ______ ____
ROOT
ATOM      1  O   UNL     1      16.109   6.970  20.522  0.00  0.00    -0.375 OA
ATOM      2  O   UNL     1      11.060   8.105  20.127  0.00  0.00    -0.275 OA
ATOM      4  N   UNL     1      13.226   7.875  20.946  0.00  0.00    -0.295 N 
ATOM     10  C   UNL     1      11.847   7.576  20.925  0.00  0.00    +0.219 C 
ATOM     11  C   UNL     1      13.767   8.831  19.979  0.00  0.00    +0.154 C 
ATOM     12  C   UNL     1      14.134   7.232  21.904  0.00  0.00    +0.136 C 
ATOM     13  C   UNL     1      14.650   8.155  18.930  0.00  0.00    +0.216 C 
ATOM     14  C   UNL     1      15.619   7.525  21.739  0.00  0.00    +0.179 C 
ATOM     15  C   UNL     1      16.066   7.874  19.427  0.00  0.00    +0.206 C 
ENDROOT
BRANCH  10   6
ATOM      6  C   UNL     1      11.348   6.555  21.950  0.00  0.00    +0.075 C 
ATOM      7  C   UNL     1       9.832   6.535  22.277  0.00  0.00    +0.013 C 
ATOM      8  C   UNL     1      11.172   5.089  21.475  0.00  0.00    +0.013 C 
ATOM      9  C   UNL     1       9.944   5.004  22.401  0.00  0.00    +0.001 C 
ENDBRANCH  10   6
BRANCH  13   3
ATOM      3  O   UNL     1      14.730   9.023  17.800  0.00  0.00    -0.483 OA
BRANCH   3  16
ATOM      5  N   UNL     1      12.769   9.093  14.715  0.00  0.00    -0.260 NA
ATOM     16  C   UNL     1      13.645   9.045  16.969  0.00  0.00    +0.139 A 
ATOM     17  C   UNL     1      12.351   9.046  17.479  0.00  0.00    +0.049 A 
ATOM     18  C   UNL     1      13.798   9.068  15.592  0.00  0.00    +0.156 A 
ATOM     19  C   UNL     1      11.266   9.072  16.609  0.00  0.00    +0.023 A 
ATOM     20  C   UNL     1      11.527   9.094  15.249  0.00  0.00    +0.111 A 
ENDBRANCH   3  16
ENDBRANCH  13   3
TORSDOF 3
ENDMDL
