MODEL 1
REMARK VINA RESULT:      -0.8      0.000      0.000
REMARK  Name = 40781585
REMARK  8 active torsions:
REMARK  status: ('A' for Active; 'I' for Inactive)
REMARK    1  A    between atoms: S_1  and  N_10
REMARK    2  A    between atoms: S_1  and  C_24
REMARK    3  A    between atoms: O_3  and  C_13
REMARK    4  A    between atoms: O_4  and  C_14
REMARK    5  A    between atoms: N_10  and  C_17
REMARK    6  A    between atoms: C_12  and  C_16
REMARK    7  A    between atoms: C_15  and  C_17
REMARK    8  A    between atoms: C_16  and  C_18
REMARK                            x       y       z     vdW  Elec       q    Type
REMARK                         _______ _______ _______ _____ _____    ______ ____
ROOT
ATOM      2  O   UNL     1      -4.552   2.500  24.065  0.00  0.00    -0.366 OA
ATOM     12  C   UNL     1      -5.450   1.499  24.577  0.00  0.00    +0.158 C 
ATOM     13  C   UNL     1      -5.526   1.743  26.075  0.00  0.00    +0.175 C 
ATOM     14  C   UNL     1      -5.435   3.254  26.140  0.00  0.00    +0.175 C 
ATOM     15  C   UNL     1      -4.426   3.560  25.040  0.00  0.00    +0.165 C 
ENDROOT
BRANCH  13   3
ATOM      3  O   UNL     1      -6.714   1.229  26.635  0.00  0.00    -0.387 OA
ATOM     29  H   UNL     1      -6.814   0.315  26.317  0.00  0.00    +0.210 HD
ENDBRANCH  13   3
BRANCH  14   4
ATOM      4  O   UNL     1      -6.684   3.841  25.772  0.00  0.00    -0.387 OA
ATOM     30  H   UNL     1      -7.051   3.310  25.044  0.00  0.00    +0.210 HD
ENDBRANCH  14   4
BRANCH  12  16
ATOM     16  C   UNL     1      -4.934   0.118  24.217  0.00  0.00    +0.130 C 
BRANCH  16  18
ATOM      5  O   UNL     1      -4.171  -0.792  26.274  0.00  0.00    -0.276 OA
ATOM      8  N   UNL     1      -2.540  -0.084  24.779  0.00  0.00    -0.298 N 
ATOM      9  N   UNL     1       0.224   0.117  23.944  0.00  0.00    -0.312 N 
ATOM     11  N   UNL     1       2.069   1.386  23.196  0.00  0.00    -0.240 NA
ATOM     18  C   UNL     1      -3.856  -0.298  25.189  0.00  0.00    +0.218 C 
ATOM     19  C   UNL     1      -1.440  -0.455  25.665  0.00  0.00    +0.126 C 
ATOM     20  C   UNL     1      -2.167   0.494  23.485  0.00  0.00    +0.126 C 
ATOM     21  C   UNL     1      -0.211  -0.917  24.887  0.00  0.00    +0.125 C 
ATOM     22  C   UNL     1      -0.763   1.098  23.490  0.00  0.00    +0.125 C 
ATOM     23  C   UNL     1       1.551   0.181  23.523  0.00  0.00    +0.121 A 
ATOM     25  C   UNL     1       2.257  -1.009  23.467  0.00  0.00    +0.043 A 
ATOM     26  C   UNL     1       3.582  -0.960  23.047  0.00  0.00    +0.005 A 
ATOM     27  C   UNL     1       3.360   1.394  22.792  0.00  0.00    +0.113 A 
ATOM     28  C   UNL     1       4.152   0.261  22.702  0.00  0.00    +0.020 A 
ENDBRANCH  16  18
ENDBRANCH  12  16
BRANCH  15  17
ATOM     17  C   UNL     1      -2.987   3.567  25.537  0.00  0.00    +0.139 C 
BRANCH  17  10
ATOM     10  N   UNL     1      -2.070   3.663  24.386  0.00  0.00    -0.192 NA
ATOM     31  H   UNL     1      -2.547   3.871  23.499  0.00  0.00    +0.148 HD
BRANCH  10   1
ATOM      1  S   UNL     1      -0.535   4.377  24.603  0.00  0.00    +0.027 S 
ATOM      6  O   UNL     1      -0.683   5.688  25.205  0.00  0.00    -0.158 OA
ATOM      7  O   UNL     1       0.231   4.204  23.383  0.00  0.00    -0.158 OA
ATOM     24  C   UNL     1       0.161   3.289  25.825  0.00  0.00    +0.214 C 
ENDBRANCH  10   1
ENDBRANCH  17  10
ENDBRANCH  15  17
TORSDOF 7
ENDMDL
MODEL 2
REMARK VINA RESULT:      -0.5      1.953      4.032
REMARK  Name = 40781585
REMARK  8 active torsions:
REMARK  status: ('A' for Active; 'I' for Inactive)
REMARK    1  A    between atoms: S_1  and  N_10
REMARK    2  A    between atoms: S_1  and  C_24
REMARK    3  A    between atoms: O_3  and  C_13
REMARK    4  A    between atoms: O_4  and  C_14
REMARK    5  A    between atoms: N_10  and  C_17
REMARK    6  A    between atoms: C_12  and  C_16
REMARK    7  A    between atoms: C_15  and  C_17
REMARK    8  A    between atoms: C_16  and  C_18
REMARK                            x       y       z     vdW  Elec       q    Type
REMARK                         _______ _______ _______ _____ _____    ______ ____
ROOT
ATOM      2  O   UNL     1      -3.927   1.648  26.078  0.00  0.00    -0.366 OA
ATOM     12  C   UNL     1      -4.337   2.992  26.383  0.00  0.00    +0.158 C 
ATOM     13  C   UNL     1      -5.346   3.367  25.310  0.00  0.00    +0.175 C 
ATOM     14  C   UNL     1      -6.049   2.046  25.080  0.00  0.00    +0.175 C 
ATOM     15  C   UNL     1      -4.900   1.051  25.190  0.00  0.00    +0.165 C 
ENDROOT
BRANCH  13   3
ATOM      3  O   UNL     1      -6.213   4.396  25.736  0.00  0.00    -0.387 OA
ATOM     29  H   UNL     1      -6.998   3.974  26.125  0.00  0.00    +0.210 HD
ENDBRANCH  13   3
BRANCH  14   4
ATOM      4  O   UNL     1      -6.966   1.782  26.142  0.00  0.00    -0.387 OA
ATOM     30  H   UNL     1      -6.772   2.412  26.858  0.00  0.00    +0.210 HD
ENDBRANCH  14   4
BRANCH  12  16
ATOM     16  C   UNL     1      -3.123   3.903  26.412  0.00  0.00    +0.130 C 
BRANCH  16  18
ATOM      5  O   UNL     1      -3.063   4.931  24.273  0.00  0.00    -0.276 OA
ATOM      8  N   UNL     1      -1.529   3.229  24.655  0.00  0.00    -0.298 N 
ATOM      9  N   UNL     1       0.784   1.673  23.874  0.00  0.00    -0.312 N 
ATOM     11  N   UNL     1       1.849  -0.403  23.508  0.00  0.00    -0.240 NA
ATOM     18  C   UNL     1      -2.576   4.077  25.016  0.00  0.00    +0.218 C 
ATOM     19  C   UNL     1      -0.948   3.331  23.318  0.00  0.00    +0.126 C 
ATOM     20  C   UNL     1      -0.944   2.221  25.542  0.00  0.00    +0.126 C 
ATOM     21  C   UNL     1       0.544   3.007  23.317  0.00  0.00    +0.125 C 
ATOM     22  C   UNL     1      -0.219   1.111  24.781  0.00  0.00    +0.125 C 
ATOM     23  C   UNL     1       1.918   0.947  23.517  0.00  0.00    +0.121 A 
ATOM     25  C   UNL     1       3.056   1.668  23.191  0.00  0.00    +0.043 A 
ATOM     26  C   UNL     1       4.196   0.958  22.834  0.00  0.00    +0.005 A 
ATOM     27  C   UNL     1       2.978  -1.059  23.156  0.00  0.00    +0.113 A 
ATOM     28  C   UNL     1       4.164  -0.432  22.812  0.00  0.00    +0.020 A 
ENDBRANCH  16  18
ENDBRANCH  12  16
BRANCH  15  17
ATOM     17  C   UNL     1      -4.212   0.785  23.857  0.00  0.00    +0.139 C 
BRANCH  17  10
ATOM     10  N   UNL     1      -3.065  -0.117  24.067  0.00  0.00    -0.192 NA
ATOM     31  H   UNL     1      -2.234   0.358  24.444  0.00  0.00    +0.148 HD
BRANCH  10   1
ATOM      1  S   UNL     1      -3.347  -1.704  24.629  0.00  0.00    +0.027 S 
ATOM      6  O   UNL     1      -4.320  -2.360  23.779  0.00  0.00    -0.158 OA
ATOM      7  O   UNL     1      -3.529  -1.658  26.067  0.00  0.00    -0.158 OA
ATOM     24  C   UNL     1      -1.761  -2.446  24.319  0.00  0.00    +0.214 C 
ENDBRANCH  10   1
ENDBRANCH  17  10
ENDBRANCH  15  17
TORSDOF 7
ENDMDL
MODEL 3
REMARK VINA RESULT:       0.8      1.510      1.800
REMARK  Name = 40781585
REMARK  8 active torsions:
REMARK  status: ('A' for Active; 'I' for Inactive)
REMARK    1  A    between atoms: S_1  and  N_10
REMARK    2  A    between atoms: S_1  and  C_24
REMARK    3  A    between atoms: O_3  and  C_13
REMARK    4  A    between atoms: O_4  and  C_14
REMARK    5  A    between atoms: N_10  and  C_17
REMARK    6  A    between atoms: C_12  and  C_16
REMARK    7  A    between atoms: C_15  and  C_17
REMARK    8  A    between atoms: C_16  and  C_18
REMARK                            x       y       z     vdW  Elec       q    Type
REMARK                         _______ _______ _______ _____ _____    ______ ____
ROOT
ATOM      2  O   UNL     1      -4.359   0.583  24.159  0.00  0.00    -0.366 OA
ATOM     12  C   UNL     1      -4.945   0.460  25.467  0.00  0.00    +0.158 C 
ATOM     13  C   UNL     1      -5.180   1.883  25.947  0.00  0.00    +0.175 C 
ATOM     14  C   UNL     1      -5.549   2.581  24.655  0.00  0.00    +0.175 C 
ATOM     15  C   UNL     1      -4.614   1.914  23.654  0.00  0.00    +0.165 C 
ENDROOT
BRANCH  13   3
ATOM      3  O   UNL     1      -6.192   1.949  26.929  0.00  0.00    -0.387 OA
ATOM     29  H   UNL     1      -7.047   1.960  26.465  0.00  0.00    +0.210 HD
ENDBRANCH  13   3
BRANCH  14   4
ATOM      4  O   UNL     1      -6.892   2.265  24.287  0.00  0.00    -0.387 OA
ATOM     30  H   UNL     1      -6.988   2.463  23.339  0.00  0.00    +0.210 HD
ENDBRANCH  14   4
BRANCH  12  16
ATOM     16  C   UNL     1      -4.020  -0.335  26.369  0.00  0.00    +0.130 C 
BRANCH  16  18
ATOM      5  O   UNL     1      -3.867  -2.500  25.407  0.00  0.00    -0.276 OA
ATOM      8  N   UNL     1      -2.062  -1.078  25.065  0.00  0.00    -0.298 N 
ATOM      9  N   UNL     1       0.453  -0.429  23.788  0.00  0.00    -0.312 N 
ATOM     11  N   UNL     1       2.705   0.276  23.898  0.00  0.00    -0.240 NA
ATOM     18  C   UNL     1      -3.319  -1.408  25.571  0.00  0.00    +0.218 C 
ATOM     19  C   UNL     1      -1.318  -2.064  24.286  0.00  0.00    +0.126 C 
ATOM     20  C   UNL     1      -1.417   0.224  25.253  0.00  0.00    +0.126 C 
ATOM     21  C   UNL     1      -0.464  -1.410  23.203  0.00  0.00    +0.125 C 
ATOM     22  C   UNL     1       0.101   0.163  25.080  0.00  0.00    +0.125 C 
ATOM     23  C   UNL     1       1.645  -0.099  23.147  0.00  0.00    +0.121 A 
ATOM     25  C   UNL     1       1.664  -0.178  21.764  0.00  0.00    +0.043 A 
ATOM     26  C   UNL     1       2.847   0.149  21.110  0.00  0.00    +0.005 A 
ATOM     27  C   UNL     1       3.837   0.587  23.227  0.00  0.00    +0.113 A 
ATOM     28  C   UNL     1       3.959   0.539  21.848  0.00  0.00    +0.020 A 
ENDBRANCH  16  18
ENDBRANCH  12  16
BRANCH  15  17
ATOM     17  C   UNL     1      -3.275   2.627  23.522  0.00  0.00    +0.139 C 
BRANCH  17  10
ATOM     10  N   UNL     1      -3.277   3.837  24.366  0.00  0.00    -0.192 NA
ATOM     31  H   UNL     1      -4.182   4.015  24.822  0.00  0.00    +0.148 HD
BRANCH  10   1
ATOM      1  S   UNL     1      -1.884   4.220  25.274  0.00  0.00    +0.027 S 
ATOM      6  O   UNL     1      -1.881   3.466  26.512  0.00  0.00    -0.158 OA
ATOM      7  O   UNL     1      -1.723   5.661  25.284  0.00  0.00    -0.158 OA
ATOM     24  C   UNL     1      -0.615   3.552  24.223  0.00  0.00    +0.214 C 
ENDBRANCH  10   1
ENDBRANCH  17  10
ENDBRANCH  15  17
TORSDOF 7
ENDMDL
MODEL 4
REMARK VINA RESULT:       2.4      2.317      3.822
REMARK  Name = 40781585
REMARK  8 active torsions:
REMARK  status: ('A' for Active; 'I' for Inactive)
REMARK    1  A    between atoms: S_1  and  N_10
REMARK    2  A    between atoms: S_1  and  C_24
REMARK    3  A    between atoms: O_3  and  C_13
REMARK    4  A    between atoms: O_4  and  C_14
REMARK    5  A    between atoms: N_10  and  C_17
REMARK    6  A    between atoms: C_12  and  C_16
REMARK    7  A    between atoms: C_15  and  C_17
REMARK    8  A    between atoms: C_16  and  C_18
REMARK                            x       y       z     vdW  Elec       q    Type
REMARK                         _______ _______ _______ _____ _____    ______ ____
ROOT
ATOM      2  O   UNL     1      -3.396   1.449  25.483  0.00  0.00    -0.366 OA
ATOM     12  C   UNL     1      -3.585   2.816  25.077  0.00  0.00    +0.158 C 
ATOM     13  C   UNL     1      -5.020   2.904  24.587  0.00  0.00    +0.175 C 
ATOM     14  C   UNL     1      -5.721   1.946  25.527  0.00  0.00    +0.175 C 
ATOM     15  C   UNL     1      -4.690   0.833  25.674  0.00  0.00    +0.165 C 
ENDROOT
BRANCH  13   3
ATOM      3  O   UNL     1      -5.521   4.222  24.653  0.00  0.00    -0.387 OA
ATOM     29  H   UNL     1      -6.446   4.197  24.353  0.00  0.00    +0.210 HD
ENDBRANCH  13   3
BRANCH  14   4
ATOM      4  O   UNL     1      -5.903   2.553  26.807  0.00  0.00    -0.387 OA
ATOM     30  H   UNL     1      -6.592   2.048  27.273  0.00  0.00    +0.210 HD
ENDBRANCH  14   4
BRANCH  12  16
ATOM     16  C   UNL     1      -2.562   3.180  24.017  0.00  0.00    +0.130 C 
BRANCH  16  18
ATOM      5  O   UNL     1      -2.995   1.345  22.573  0.00  0.00    -0.276 OA
ATOM      8  N   UNL     1      -0.821   1.559  23.364  0.00  0.00    -0.298 N 
ATOM      9  N   UNL     1       1.970   0.791  23.359  0.00  0.00    -0.312 N 
ATOM     11  N   UNL     1       3.934   0.136  24.495  0.00  0.00    -0.240 NA
ATOM     18  C   UNL     1      -2.156   1.946  23.248  0.00  0.00    +0.218 C 
ATOM     19  C   UNL     1      -0.351   0.372  22.654  0.00  0.00    +0.126 C 
ATOM     20  C   UNL     1       0.177   2.280  24.158  0.00  0.00    +0.126 C 
ATOM     21  C   UNL     1       1.104   0.510  22.211  0.00  0.00    +0.125 C 
ATOM     22  C   UNL     1       1.370   1.405  24.545  0.00  0.00    +0.125 C 
ATOM     23  C   UNL     1       3.320   0.448  23.332  0.00  0.00    +0.121 A 
ATOM     25  C   UNL     1       3.950   0.450  22.098  0.00  0.00    +0.043 A 
ATOM     26  C   UNL     1       5.297   0.110  22.055  0.00  0.00    +0.005 A 
ATOM     27  C   UNL     1       5.245  -0.188  24.414  0.00  0.00    +0.113 A 
ATOM     28  C   UNL     1       5.964  -0.217  23.231  0.00  0.00    +0.020 A 
ENDBRANCH  16  18
ENDBRANCH  12  16
BRANCH  15  17
ATOM     17  C   UNL     1      -4.844  -0.263  24.628  0.00  0.00    +0.139 C 
BRANCH  17  10
ATOM     10  N   UNL     1      -3.510  -0.715  24.190  0.00  0.00    -0.192 NA
ATOM     31  H   UNL     1      -2.983   0.004  23.677  0.00  0.00    +0.148 HD
BRANCH  10   1
ATOM      1  S   UNL     1      -2.600  -1.733  25.213  0.00  0.00    +0.027 S 
ATOM      6  O   UNL     1      -3.483  -2.651  25.905  0.00  0.00    -0.158 OA
ATOM      7  O   UNL     1      -1.652  -0.918  25.949  0.00  0.00    -0.158 OA
ATOM     24  C   UNL     1      -1.677  -2.663  24.011  0.00  0.00    +0.214 C 
ENDBRANCH  10   1
ENDBRANCH  17  10
ENDBRANCH  15  17
TORSDOF 7
ENDMDL
MODEL 5
REMARK VINA RESULT:       2.6      2.898      5.307
REMARK  Name = 40781585
REMARK  8 active torsions:
REMARK  status: ('A' for Active; 'I' for Inactive)
REMARK    1  A    between atoms: S_1  and  N_10
REMARK    2  A    between atoms: S_1  and  C_24
REMARK    3  A    between atoms: O_3  and  C_13
REMARK    4  A    between atoms: O_4  and  C_14
REMARK    5  A    between atoms: N_10  and  C_17
REMARK    6  A    between atoms: C_12  and  C_16
REMARK    7  A    between atoms: C_15  and  C_17
REMARK    8  A    between atoms: C_16  and  C_18
REMARK                            x       y       z     vdW  Elec       q    Type
REMARK                         _______ _______ _______ _____ _____    ______ ____
ROOT
ATOM      2  O   UNL     1      -4.092  -0.140  23.502  0.00  0.00    -0.366 OA
ATOM     12  C   UNL     1      -2.789  -0.274  22.909  0.00  0.00    +0.158 C 
ATOM     13  C   UNL     1      -1.870  -0.721  24.033  0.00  0.00    +0.175 C 
ATOM     14  C   UNL     1      -2.790  -1.613  24.840  0.00  0.00    +0.175 C 
ATOM     15  C   UNL     1      -4.115  -0.864  24.754  0.00  0.00    +0.165 C 
ENDROOT
BRANCH  13   3
ATOM      3  O   UNL     1      -0.726  -1.390  23.547  0.00  0.00    -0.387 OA
ATOM     29  H   UNL     1       0.039  -1.064  24.052  0.00  0.00    +0.210 HD
ENDBRANCH  13   3
BRANCH  14   4
ATOM      4  O   UNL     1      -2.950  -2.874  24.192  0.00  0.00    -0.387 OA
ATOM     30  H   UNL     1      -3.724  -3.309  24.590  0.00  0.00    +0.210 HD
ENDBRANCH  14   4
BRANCH  12  16
ATOM     16  C   UNL     1      -2.375   1.045  22.281  0.00  0.00    +0.130 C 
BRANCH  16  18
ATOM      5  O   UNL     1      -3.599   2.915  23.082  0.00  0.00    -0.276 OA
ATOM      8  N   UNL     1      -1.707   2.313  24.289  0.00  0.00    -0.298 N 
ATOM      9  N   UNL     1       0.012   2.556  26.605  0.00  0.00    -0.312 N 
ATOM     11  N   UNL     1       2.146   2.849  27.572  0.00  0.00    -0.240 NA
ATOM     18  C   UNL     1      -2.626   2.177  23.248  0.00  0.00    +0.218 C 
ATOM     19  C   UNL     1      -1.877   3.387  25.263  0.00  0.00    +0.126 C 
ATOM     20  C   UNL     1      -0.556   1.428  24.489  0.00  0.00    +0.126 C 
ATOM     21  C   UNL     1      -1.389   2.981  26.652  0.00  0.00    +0.125 C 
ATOM     22  C   UNL     1       0.546   2.072  25.330  0.00  0.00    +0.125 C 
ATOM     23  C   UNL     1       0.820   2.645  27.736  0.00  0.00    +0.121 A 
ATOM     25  C   UNL     1       0.201   2.517  28.969  0.00  0.00    +0.043 A 
ATOM     26  C   UNL     1       0.996   2.603  30.107  0.00  0.00    +0.005 A 
ATOM     27  C   UNL     1       2.886   2.927  28.701  0.00  0.00    +0.113 A 
ATOM     28  C   UNL     1       2.364   2.813  29.979  0.00  0.00    +0.020 A 
ENDBRANCH  16  18
ENDBRANCH  12  16
BRANCH  15  17
ATOM     17  C   UNL     1      -4.301   0.149  25.875  0.00  0.00    +0.139 C 
BRANCH  17  10
ATOM     10  N   UNL     1      -4.515   1.489  25.297  0.00  0.00    -0.192 NA
ATOM     31  H   UNL     1      -4.254   1.552  24.304  0.00  0.00    +0.148 HD
BRANCH  10   1
ATOM      1  S   UNL     1      -5.879   2.395  25.779  0.00  0.00    +0.027 S 
ATOM      6  O   UNL     1      -5.619   3.809  25.597  0.00  0.00    -0.158 OA
ATOM      7  O   UNL     1      -6.344   1.884  27.054  0.00  0.00    -0.158 OA
ATOM     24  C   UNL     1      -7.056   1.892  24.545  0.00  0.00    +0.214 C 
ENDBRANCH  10   1
ENDBRANCH  17  10
ENDBRANCH  15  17
TORSDOF 7
ENDMDL
MODEL 6
REMARK VINA RESULT:       2.8     16.121     17.473
REMARK  Name = 40781585
REMARK  8 active torsions:
REMARK  status: ('A' for Active; 'I' for Inactive)
REMARK    1  A    between atoms: S_1  and  N_10
REMARK    2  A    between atoms: S_1  and  C_24
REMARK    3  A    between atoms: O_3  and  C_13
REMARK    4  A    between atoms: O_4  and  C_14
REMARK    5  A    between atoms: N_10  and  C_17
REMARK    6  A    between atoms: C_12  and  C_16
REMARK    7  A    between atoms: C_15  and  C_17
REMARK    8  A    between atoms: C_16  and  C_18
REMARK                            x       y       z     vdW  Elec       q    Type
REMARK                         _______ _______ _______ _____ _____    ______ ____
ROOT
ATOM      2  O   UNL     1      -7.968  -8.871  12.555  0.00  0.00    -0.366 OA
ATOM     12  C   UNL     1      -8.900  -9.038  11.473  0.00  0.00    +0.158 C 
ATOM     13  C   UNL     1      -9.321 -10.498  11.514  0.00  0.00    +0.175 C 
ATOM     14  C   UNL     1      -9.331 -10.767  13.005  0.00  0.00    +0.175 C 
ATOM     15  C   UNL     1      -8.120  -9.972  13.480  0.00  0.00    +0.165 C 
ENDROOT
BRANCH  13   3
ATOM      3  O   UNL     1     -10.574 -10.705  10.900  0.00  0.00    -0.387 OA
ATOM     29  H   UNL     1     -11.146  -9.957  11.145  0.00  0.00    +0.210 HD
ENDBRANCH  13   3
BRANCH  14   4
ATOM      4  O   UNL     1     -10.496 -10.200  13.603  0.00  0.00    -0.387 OA
ATOM     30  H   UNL     1     -10.306 -10.076  14.549  0.00  0.00    +0.210 HD
ENDBRANCH  14   4
BRANCH  12  16
ATOM     16  C   UNL     1      -8.242  -8.639  10.164  0.00  0.00    +0.130 C 
BRANCH  16  18
ATOM      5  O   UNL     1      -7.645 -10.636   9.028  0.00  0.00    -0.276 OA
ATOM      8  N   UNL     1      -5.950  -9.551  10.189  0.00  0.00    -0.298 N 
ATOM      9  N   UNL     1      -3.161  -9.222  10.892  0.00  0.00    -0.312 N 
ATOM     11  N   UNL     1      -1.451  -8.983  12.502  0.00  0.00    -0.240 NA
ATOM     18  C   UNL     1      -7.261  -9.703   9.736  0.00  0.00    +0.218 C 
ATOM     19  C   UNL     1      -4.942 -10.542   9.822  0.00  0.00    +0.126 C 
ATOM     20  C   UNL     1      -5.493  -8.436  11.022  0.00  0.00    +0.126 C 
ATOM     21  C   UNL     1      -3.558  -9.918   9.665  0.00  0.00    +0.125 C 
ATOM     22  C   UNL     1      -4.216  -8.761  11.797  0.00  0.00    +0.125 C 
ATOM     23  C   UNL     1      -1.816  -9.039  11.202  0.00  0.00    +0.121 A 
ATOM     25  C   UNL     1      -0.930  -8.926  10.142  0.00  0.00    +0.043 A 
ATOM     26  C   UNL     1       0.416  -8.742  10.437  0.00  0.00    +0.005 A 
ATOM     27  C   UNL     1      -0.134  -8.803  12.750  0.00  0.00    +0.113 A 
ATOM     28  C   UNL     1       0.830  -8.679  11.763  0.00  0.00    +0.020 A 
ENDBRANCH  16  18
ENDBRANCH  12  16
BRANCH  15  17
ATOM     17  C   UNL     1      -6.830 -10.781  13.458  0.00  0.00    +0.139 C 
BRANCH  17  10
ATOM     10  N   UNL     1      -5.855 -10.176  14.385  0.00  0.00    -0.192 NA
ATOM     31  H   UNL     1      -5.314  -9.408  13.965  0.00  0.00    +0.148 HD
BRANCH  10   1
ATOM      1  S   UNL     1      -6.272  -9.994  16.030  0.00  0.00    +0.027 S 
ATOM      6  O   UNL     1      -7.453 -10.780  16.327  0.00  0.00    -0.158 OA
ATOM      7  O   UNL     1      -6.216  -8.584  16.366  0.00  0.00    -0.158 OA
ATOM     24  C   UNL     1      -4.881 -10.781  16.808  0.00  0.00    +0.214 C 
ENDBRANCH  10   1
ENDBRANCH  17  10
ENDBRANCH  15  17
TORSDOF 7
ENDMDL
