MODEL 1
REMARK VINA RESULT:       5.1      0.000      0.000
REMARK  Name = 51136910
REMARK  5 active torsions:
REMARK  status: ('A' for Active; 'I' for Inactive)
REMARK    1  A    between atoms: N_2  and  C_9
REMARK    2  A    between atoms: N_3  and  C_19
REMARK    3  A    between atoms: C_10  and  C_18
REMARK    4  A    between atoms: C_20  and  C_21
REMARK    5  A    between atoms: C_25  and  C_26
REMARK                            x       y       z     vdW  Elec       q    Type
REMARK                         _______ _______ _______ _____ _____    ______ ____
ROOT
ATOM      1  O   UNL     1      -2.341   3.495  23.887  0.00  0.00    -0.336 OA
ATOM      4  N   UNL     1      -1.937   1.295  24.012  0.00  0.00    -0.190 NA
ATOM      5  N   UNL     1      -0.960   3.342  23.708  0.00  0.00    -0.056 NA
ATOM     18  C   UNL     1      -2.839   2.242  24.060  0.00  0.00    +0.245 A 
ATOM     20  C   UNL     1      -0.799   2.018  23.794  0.00  0.00    +0.204 A 
ENDROOT
BRANCH  20  21
ATOM      6  N   UNL     1       2.884   1.603  23.492  0.00  0.00    -0.254 NA
ATOM     21  C   UNL     1       0.482   1.386  23.670  0.00  0.00    +0.041 A 
ATOM     22  C   UNL     1       0.595   0.002  23.605  0.00  0.00    +0.015 A 
ATOM     23  C   UNL     1       1.647   2.135  23.610  0.00  0.00    +0.123 A 
ATOM     24  C   UNL     1       1.851  -0.584  23.484  0.00  0.00    +0.029 A 
ATOM     25  C   UNL     1       2.954   0.254  23.432  0.00  0.00    +0.074 A 
BRANCH  25  26
ATOM      7  N   UNL     1       5.844  -2.093  23.623  0.00  0.00    -0.243 NA
ATOM      8  N   UNL     1       6.586  -0.020  22.642  0.00  0.00    -0.243 NA
ATOM     26  C   UNL     1       4.288  -0.283  23.308  0.00  0.00    +0.037 A 
ATOM     27  C   UNL     1       4.608  -1.560  23.721  0.00  0.00    +0.124 A 
ATOM     28  C   UNL     1       5.328   0.448  22.770  0.00  0.00    +0.124 A 
ATOM     29  C   UNL     1       6.771  -1.280  23.082  0.00  0.00    +0.221 A 
ENDBRANCH  25  26
ENDBRANCH  20  21
BRANCH  18  10
ATOM      2  N   UNL     1      -4.678   1.405  25.512  0.00  0.00    -0.288 NA
ATOM     10  C   UNL     1      -4.334   2.134  24.275  0.00  0.00    +0.146 C 
ATOM     11  C   UNL     1      -5.957   1.948  25.970  0.00  0.00    +0.085 C 
ATOM     14  C   UNL     1      -5.012   3.509  24.431  0.00  0.00    +0.030 C 
ATOM     15  C   UNL     1      -5.762   3.435  25.753  0.00  0.00    +0.017 C 
BRANCH   2   9
ATOM      3  N   UNL     1      -3.481  -2.509  24.364  0.00  0.00    -0.305 NA
ATOM      9  C   UNL     1      -4.729  -0.044  25.330  0.00  0.00    +0.060 C 
ATOM     12  C   UNL     1      -3.564  -0.712  26.064  0.00  0.00    +0.034 C 
ATOM     13  C   UNL     1      -4.689  -0.412  23.843  0.00  0.00    +0.034 C 
ATOM     16  C   UNL     1      -3.543  -2.220  25.803  0.00  0.00    +0.085 C 
ATOM     17  C   UNL     1      -4.631  -1.931  23.656  0.00  0.00    +0.085 C 
ATOM     19  C   UNL     1      -3.411  -3.951  24.134  0.00  0.00    +0.104 C 
ENDBRANCH   2   9
ENDBRANCH  18  10
TORSDOF 4
ENDMDL
MODEL 2
REMARK VINA RESULT:       7.4      1.711      3.959
REMARK  Name = 51136910
REMARK  5 active torsions:
REMARK  status: ('A' for Active; 'I' for Inactive)
REMARK    1  A    between atoms: N_2  and  C_9
REMARK    2  A    between atoms: N_3  and  C_19
REMARK    3  A    between atoms: C_10  and  C_18
REMARK    4  A    between atoms: C_20  and  C_21
REMARK    5  A    between atoms: C_25  and  C_26
REMARK                            x       y       z     vdW  Elec       q    Type
REMARK                         _______ _______ _______ _____ _____    ______ ____
ROOT
ATOM      1  O   UNL     1      -1.221   0.511  23.145  0.00  0.00    -0.336 OA
ATOM      4  N   UNL     1       0.184  -0.774  24.325  0.00  0.00    -0.190 NA
ATOM      5  N   UNL     1       0.069   0.845  22.712  0.00  0.00    -0.056 NA
ATOM     18  C   UNL     1      -1.063  -0.449  24.095  0.00  0.00    +0.245 A 
ATOM     20  C   UNL     1       0.842   0.045  23.453  0.00  0.00    +0.204 A 
ENDROOT
BRANCH  20  21
ATOM      6  N   UNL     1       4.364  -1.123  23.689  0.00  0.00    -0.254 NA
ATOM     21  C   UNL     1       2.272   0.041  23.349  0.00  0.00    +0.041 A 
ATOM     22  C   UNL     1       2.956   1.135  22.833  0.00  0.00    +0.015 A 
ATOM     23  C   UNL     1       3.016  -1.055  23.759  0.00  0.00    +0.123 A 
ATOM     24  C   UNL     1       4.344   1.103  22.744  0.00  0.00    +0.029 A 
ATOM     25  C   UNL     1       4.995  -0.039  23.181  0.00  0.00    +0.074 A 
BRANCH  25  26
ATOM      7  N   UNL     1       8.610   0.628  23.797  0.00  0.00    -0.243 NA
ATOM      8  N   UNL     1       8.409  -1.214  22.256  0.00  0.00    -0.243 NA
ATOM     26  C   UNL     1       6.433  -0.144  23.119  0.00  0.00    +0.037 A 
ATOM     27  C   UNL     1       7.262   0.696  23.833  0.00  0.00    +0.124 A 
ATOM     28  C   UNL     1       7.069  -1.089  22.340  0.00  0.00    +0.124 A 
ATOM     29  C   UNL     1       9.109  -0.335  23.000  0.00  0.00    +0.221 A 
ENDBRANCH  25  26
ENDBRANCH  20  21
BRANCH  18  10
ATOM      2  N   UNL     1      -3.546  -0.335  24.204  0.00  0.00    -0.288 NA
ATOM     10  C   UNL     1      -2.329  -0.985  24.728  0.00  0.00    +0.146 C 
ATOM     11  C   UNL     1      -4.619  -1.324  24.303  0.00  0.00    +0.085 C 
ATOM     14  C   UNL     1      -2.540  -2.486  24.455  0.00  0.00    +0.030 C 
ATOM     15  C   UNL     1      -3.926  -2.587  23.833  0.00  0.00    +0.017 C 
BRANCH   2   9
ATOM      3  N   UNL     1      -5.447   3.374  25.039  0.00  0.00    -0.305 NA
ATOM      9  C   UNL     1      -3.878   0.908  24.898  0.00  0.00    +0.060 C 
ATOM     12  C   UNL     1      -5.356   0.914  25.297  0.00  0.00    +0.034 C 
ATOM     13  C   UNL     1      -3.569   2.125  24.020  0.00  0.00    +0.034 C 
ATOM     16  C   UNL     1      -5.746   2.249  25.936  0.00  0.00    +0.085 C 
ATOM     17  C   UNL     1      -4.018   3.421  24.702  0.00  0.00    +0.085 C 
ATOM     19  C   UNL     1      -5.872   4.637  25.643  0.00  0.00    +0.104 C 
ENDBRANCH   2   9
ENDBRANCH  18  10
TORSDOF 4
ENDMDL
MODEL 3
REMARK VINA RESULT:       8.1      2.017      4.248
REMARK  Name = 51136910
REMARK  5 active torsions:
REMARK  status: ('A' for Active; 'I' for Inactive)
REMARK    1  A    between atoms: N_2  and  C_9
REMARK    2  A    between atoms: N_3  and  C_19
REMARK    3  A    between atoms: C_10  and  C_18
REMARK    4  A    between atoms: C_20  and  C_21
REMARK    5  A    between atoms: C_25  and  C_26
REMARK                            x       y       z     vdW  Elec       q    Type
REMARK                         _______ _______ _______ _____ _____    ______ ____
ROOT
ATOM      1  O   UNL     1      -0.793  -0.072  22.715  0.00  0.00    -0.336 OA
ATOM      4  N   UNL     1       0.537  -0.662  24.418  0.00  0.00    -0.190 NA
ATOM      5  N   UNL     1       0.520   0.068  22.249  0.00  0.00    -0.056 NA
ATOM     18  C   UNL     1      -0.694  -0.505  23.999  0.00  0.00    +0.245 A 
ATOM     20  C   UNL     1       1.246  -0.299  23.309  0.00  0.00    +0.204 A 
ENDROOT
BRANCH  20  21
ATOM      6  N   UNL     1       4.751   0.796  22.720  0.00  0.00    -0.254 NA
ATOM     21  C   UNL     1       2.680  -0.312  23.296  0.00  0.00    +0.041 A 
ATOM     22  C   UNL     1       3.392  -1.388  23.816  0.00  0.00    +0.015 A 
ATOM     23  C   UNL     1       3.401   0.746  22.764  0.00  0.00    +0.123 A 
ATOM     24  C   UNL     1       4.782  -1.373  23.789  0.00  0.00    +0.029 A 
ATOM     25  C   UNL     1       5.409  -0.268  23.235  0.00  0.00    +0.074 A 
BRANCH  25  26
ATOM      7  N   UNL     1       8.950  -1.006  22.336  0.00  0.00    -0.243 NA
ATOM      8  N   UNL     1       8.903   0.878  23.838  0.00  0.00    -0.243 NA
ATOM     26  C   UNL     1       6.848  -0.183  23.174  0.00  0.00    +0.037 A 
ATOM     27  C   UNL     1       7.603  -1.054  22.416  0.00  0.00    +0.124 A 
ATOM     28  C   UNL     1       7.559   0.772  23.870  0.00  0.00    +0.124 A 
ATOM     29  C   UNL     1       9.527  -0.030  23.062  0.00  0.00    +0.221 A 
ENDBRANCH  25  26
ENDBRANCH  20  21
BRANCH  18  10
ATOM      2  N   UNL     1      -3.100   0.093  24.213  0.00  0.00    -0.288 NA
ATOM     10  C   UNL     1      -1.996  -0.736  24.736  0.00  0.00    +0.146 C 
ATOM     11  C   UNL     1      -4.331  -0.660  24.449  0.00  0.00    +0.085 C 
ATOM     14  C   UNL     1      -2.501  -2.185  24.608  0.00  0.00    +0.030 C 
ATOM     15  C   UNL     1      -3.918  -2.066  24.062  0.00  0.00    +0.017 C 
BRANCH   2   9
ATOM      3  N   UNL     1      -2.220   4.202  24.851  0.00  0.00    -0.305 NA
ATOM      9  C   UNL     1      -3.148   1.427  24.807  0.00  0.00    +0.060 C 
ATOM     12  C   UNL     1      -3.596   2.455  23.765  0.00  0.00    +0.034 C 
ATOM     13  C   UNL     1      -1.783   1.824  25.378  0.00  0.00    +0.034 C 
ATOM     16  C   UNL     1      -3.558   3.873  24.341  0.00  0.00    +0.085 C 
ATOM     17  C   UNL     1      -1.805   3.263  25.901  0.00  0.00    +0.085 C 
ATOM     19  C   UNL     1      -2.186   5.576  25.351  0.00  0.00    +0.104 C 
ENDBRANCH   2   9
ENDBRANCH  18  10
TORSDOF 4
ENDMDL
MODEL 4
REMARK VINA RESULT:       9.1      1.937      4.057
REMARK  Name = 51136910
REMARK  5 active torsions:
REMARK  status: ('A' for Active; 'I' for Inactive)
REMARK    1  A    between atoms: N_2  and  C_9
REMARK    2  A    between atoms: N_3  and  C_19
REMARK    3  A    between atoms: C_10  and  C_18
REMARK    4  A    between atoms: C_20  and  C_21
REMARK    5  A    between atoms: C_25  and  C_26
REMARK                            x       y       z     vdW  Elec       q    Type
REMARK                         _______ _______ _______ _____ _____    ______ ____
ROOT
ATOM      1  O   UNL     1      -3.964  -0.686  24.640  0.00  0.00    -0.336 OA
ATOM      4  N   UNL     1      -2.422   0.910  24.938  0.00  0.00    -0.190 NA
ATOM      5  N   UNL     1      -2.736  -1.261  24.287  0.00  0.00    -0.056 NA
ATOM     18  C   UNL     1      -3.689   0.592  25.011  0.00  0.00    +0.245 A 
ATOM     20  C   UNL     1      -1.876  -0.258  24.490  0.00  0.00    +0.204 A 
ENDROOT
BRANCH  20  21
ATOM      6  N   UNL     1       1.588   0.582  23.430  0.00  0.00    -0.254 NA
ATOM     21  C   UNL     1      -0.468  -0.390  24.253  0.00  0.00    +0.041 A 
ATOM     22  C   UNL     1       0.210  -1.556  24.590  0.00  0.00    +0.015 A 
ATOM     23  C   UNL     1       0.260   0.641  23.680  0.00  0.00    +0.123 A 
ATOM     24  C   UNL     1       1.576  -1.655  24.348  0.00  0.00    +0.029 A 
ATOM     25  C   UNL     1       2.213  -0.568  23.771  0.00  0.00    +0.074 A 
BRANCH  25  26
ATOM      7  N   UNL     1       5.583   0.419  22.523  0.00  0.00    -0.243 NA
ATOM      8  N   UNL     1       5.760  -1.705  23.646  0.00  0.00    -0.243 NA
ATOM     26  C   UNL     1       3.628  -0.598  23.492  0.00  0.00    +0.037 A 
ATOM     27  C   UNL     1       4.263   0.415  22.804  0.00  0.00    +0.124 A 
ATOM     28  C   UNL     1       4.435  -1.643  23.893  0.00  0.00    +0.124 A 
ATOM     29  C   UNL     1       6.261  -0.656  22.967  0.00  0.00    +0.221 A 
ENDBRANCH  25  26
ENDBRANCH  20  21
BRANCH  18  10
ATOM      2  N   UNL     1      -5.194   2.500  24.472  0.00  0.00    -0.288 NA
ATOM     10  C   UNL     1      -4.868   1.437  25.445  0.00  0.00    +0.146 C 
ATOM     11  C   UNL     1      -6.631   2.743  24.591  0.00  0.00    +0.085 C 
ATOM     14  C   UNL     1      -6.167   0.621  25.580  0.00  0.00    +0.030 C 
ATOM     15  C   UNL     1      -7.180   1.334  24.696  0.00  0.00    +0.017 C 
BRANCH   2   9
ATOM      3  N   UNL     1      -1.808   5.024  24.955  0.00  0.00    -0.305 NA
ATOM      9  C   UNL     1      -4.412   3.718  24.668  0.00  0.00    +0.060 C 
ATOM     12  C   UNL     1      -3.476   3.944  23.478  0.00  0.00    +0.034 C 
ATOM     13  C   UNL     1      -3.599   3.646  25.965  0.00  0.00    +0.034 C 
ATOM     16  C   UNL     1      -2.577   5.162  23.710  0.00  0.00    +0.085 C 
ATOM     17  C   UNL     1      -2.696   4.874  26.115  0.00  0.00    +0.085 C 
ATOM     19  C   UNL     1      -0.918   6.170  25.136  0.00  0.00    +0.104 C 
ENDBRANCH   2   9
ENDBRANCH  18  10
TORSDOF 4
ENDMDL
