MODEL 1
REMARK VINA RESULT:       5.7      0.000      0.000
REMARK  Name = 7674751
REMARK  5 active torsions:
REMARK  status: ('A' for Active; 'I' for Inactive)
REMARK    1  A    between atoms: O_6  and  C_32
REMARK    2  A    between atoms: O_6  and  C_33
REMARK    3  A    between atoms: N_7  and  C_16
REMARK    4  A    between atoms: C_16  and  C_21
REMARK    5  A    between atoms: C_19  and  C_22
REMARK                            x       y       z     vdW  Elec       q    Type
REMARK                         _______ _______ _______ _____ _____    ______ ____
ROOT
ATOM      5  O   UNL     1       0.651   2.392  25.671  0.00  0.00    -0.267 OA
ATOM      7  N   UNL     1      -4.320   1.806  25.380  0.00  0.00    -0.297 NA
ATOM      8  N   UNL     1      -1.415   2.968  24.759  0.00  0.00    -0.311 N 
ATOM      9  C   UNL     1      -3.316   3.968  26.157  0.00  0.00    +0.024 C 
ATOM     10  C   UNL     1      -3.643   3.585  23.762  0.00  0.00    +0.050 C 
ATOM     11  C   UNL     1      -3.719   4.647  24.855  0.00  0.00    +0.017 C 
ATOM     12  C   UNL     1      -4.274   2.798  26.462  0.00  0.00    +0.090 C 
ATOM     13  C   UNL     1      -4.625   2.436  24.087  0.00  0.00    +0.094 C 
ATOM     14  C   UNL     1      -1.852   3.520  26.049  0.00  0.00    +0.130 C 
ATOM     15  C   UNL     1      -2.230   3.050  23.626  0.00  0.00    +0.026 A 
ATOM     17  C   UNL     1      -1.767   2.642  22.433  0.00  0.00    +0.022 A 
ATOM     18  C   UNL     1      -0.107   2.450  24.702  0.00  0.00    +0.259 A 
ATOM     19  C   UNL     1       0.371   1.968  23.358  0.00  0.00    +0.047 A 
ATOM     20  C   UNL     1      -0.450   2.088  22.303  0.00  0.00    +0.015 A 
ENDROOT
BRANCH  19  22
ATOM     22  C   UNL     1       1.706   1.367  23.192  0.00  0.00    -0.012 A 
ATOM     25  C   UNL     1       1.873  -0.012  23.324  0.00  0.00    +0.012 A 
ATOM     26  C   UNL     1       2.805   2.176  22.902  0.00  0.00    +0.012 A 
ATOM     30  C   UNL     1       3.137  -0.581  23.167  0.00  0.00    +0.046 A 
ATOM     31  C   UNL     1       4.069   1.608  22.745  0.00  0.00    +0.046 A 
ATOM     32  C   UNL     1       4.234   0.229  22.878  0.00  0.00    +0.130 A 
BRANCH  32   6
ATOM      6  O   UNL     1       5.468  -0.326  22.725  0.00  0.00    -0.406 OA
BRANCH   6  33
ATOM      2  F   UNL     1       6.156  -1.285  24.684  0.00  0.00    -0.133 F 
ATOM      3  F   UNL     1       6.177   0.892  24.489  0.00  0.00    -0.133 F 
ATOM      4  F   UNL     1       7.654  -0.292  23.397  0.00  0.00    -0.133 F 
ATOM     33  C   UNL     1       6.373  -0.269  23.821  0.00  0.00    +0.575 C 
ENDBRANCH   6  33
ENDBRANCH  32   6
ENDBRANCH  19  22
BRANCH   7  16
ATOM     16  C   UNL     1      -5.276   0.745  25.683  0.00  0.00    +0.119 C 
BRANCH  16  21
ATOM      1  F   UNL     1      -3.310  -4.267  24.065  0.00  0.00    -0.205 F 
ATOM     21  C   UNL     1      -4.751  -0.597  25.250  0.00  0.00    -0.033 A 
ATOM     23  C   UNL     1      -5.176  -1.143  24.047  0.00  0.00    +0.008 A 
ATOM     24  C   UNL     1      -3.846  -1.272  26.060  0.00  0.00    +0.008 A 
ATOM     27  C   UNL     1      -4.689  -2.387  23.646  0.00  0.00    +0.038 A 
ATOM     28  C   UNL     1      -3.359  -2.515  25.658  0.00  0.00    +0.038 A 
ATOM     29  C   UNL     1      -3.779  -3.072  24.451  0.00  0.00    +0.123 A 
ENDBRANCH  16  21
ENDBRANCH   7  16
TORSDOF 5
ENDMDL
MODEL 2
REMARK VINA RESULT:       8.7      2.518      4.718
REMARK  Name = 7674751
REMARK  5 active torsions:
REMARK  status: ('A' for Active; 'I' for Inactive)
REMARK    1  A    between atoms: O_6  and  C_32
REMARK    2  A    between atoms: O_6  and  C_33
REMARK    3  A    between atoms: N_7  and  C_16
REMARK    4  A    between atoms: C_16  and  C_21
REMARK    5  A    between atoms: C_19  and  C_22
REMARK                            x       y       z     vdW  Elec       q    Type
REMARK                         _______ _______ _______ _____ _____    ______ ____
ROOT
ATOM      5  O   UNL     1      -0.229  -0.441  22.049  0.00  0.00    -0.267 OA
ATOM      7  N   UNL     1      -4.084   0.457  25.127  0.00  0.00    -0.297 NA
ATOM      8  N   UNL     1      -1.710  -1.134  23.710  0.00  0.00    -0.311 N 
ATOM      9  C   UNL     1      -4.240  -1.287  23.333  0.00  0.00    +0.024 C 
ATOM     10  C   UNL     1      -3.299  -1.883  25.513  0.00  0.00    +0.050 C 
ATOM     11  C   UNL     1      -4.180  -2.395  24.377  0.00  0.00    +0.017 C 
ATOM     12  C   UNL     1      -4.836  -0.007  23.955  0.00  0.00    +0.090 C 
ATOM     13  C   UNL     1      -3.931  -0.612  26.125  0.00  0.00    +0.094 C 
ATOM     14  C   UNL     1      -2.832  -1.067  22.763  0.00  0.00    +0.130 C 
ATOM     15  C   UNL     1      -1.895  -1.590  25.017  0.00  0.00    +0.026 A 
ATOM     17  C   UNL     1      -0.839  -1.751  25.831  0.00  0.00    +0.022 A 
ATOM     18  C   UNL     1      -0.435  -0.814  23.204  0.00  0.00    +0.259 A 
ATOM     19  C   UNL     1       0.726  -0.971  24.150  0.00  0.00    +0.047 A 
ATOM     20  C   UNL     1       0.488  -1.429  25.388  0.00  0.00    +0.015 A 
ENDROOT
BRANCH  19  22
ATOM     22  C   UNL     1       2.098  -0.623  23.740  0.00  0.00    -0.012 A 
ATOM     25  C   UNL     1       2.362   0.623  23.170  0.00  0.00    +0.012 A 
ATOM     26  C   UNL     1       3.134  -1.538  23.923  0.00  0.00    +0.012 A 
ATOM     30  C   UNL     1       3.660   0.952  22.782  0.00  0.00    +0.046 A 
ATOM     31  C   UNL     1       4.434  -1.209  23.535  0.00  0.00    +0.046 A 
ATOM     32  C   UNL     1       4.696   0.037  22.965  0.00  0.00    +0.130 A 
BRANCH  32   6
ATOM      6  O   UNL     1       5.963   0.357  22.586  0.00  0.00    -0.406 OA
BRANCH   6  33
ATOM      2  F   UNL     1       8.167   0.342  23.197  0.00  0.00    -0.133 F 
ATOM      3  F   UNL     1       7.285  -1.453  22.314  0.00  0.00    -0.133 F 
ATOM      4  F   UNL     1       6.730  -0.880  24.350  0.00  0.00    -0.133 F 
ATOM     33  C   UNL     1       7.040  -0.399  23.127  0.00  0.00    +0.575 C 
ENDBRANCH   6  33
ENDBRANCH  32   6
ENDBRANCH  19  22
BRANCH   7  16
ATOM     16  C   UNL     1      -4.709   1.638  25.717  0.00  0.00    +0.119 C 
BRANCH  16  21
ATOM      1  F   UNL     1      -1.340   6.121  25.331  0.00  0.00    -0.205 F 
ATOM     21  C   UNL     1      -3.808   2.838  25.612  0.00  0.00    -0.033 A 
ATOM     23  C   UNL     1      -4.236   4.060  26.112  0.00  0.00    +0.008 A 
ATOM     24  C   UNL     1      -2.559   2.707  25.020  0.00  0.00    +0.008 A 
ATOM     27  C   UNL     1      -3.400   5.173  26.016  0.00  0.00    +0.038 A 
ATOM     28  C   UNL     1      -1.723   3.819  24.924  0.00  0.00    +0.038 A 
ATOM     29  C   UNL     1      -2.143   5.052  25.423  0.00  0.00    +0.123 A 
ENDBRANCH  16  21
ENDBRANCH   7  16
TORSDOF 5
ENDMDL
