MODEL 1
REMARK VINA RESULT:       0.3      0.000      0.000
REMARK  Name = 45783459
REMARK  11 active torsions:
REMARK  status: ('A' for Active; 'I' for Inactive)
REMARK    1  A    between atoms: O_2  and  C_25
REMARK    2  A    between atoms: O_2  and  C_30
REMARK    3  A    between atoms: O_4  and  C_31
REMARK    4  A    between atoms: O_4  and  C_32
REMARK    5  A    between atoms: N_5  and  C_14
REMARK    6  A    between atoms: N_8  and  C_22
REMARK    7  A    between atoms: C_10  and  C_15
REMARK    8  A    between atoms: C_14  and  C_16
REMARK    9  A    between atoms: C_19  and  C_23
REMARK   10  A    between atoms: C_26  and  C_29
REMARK   11  A    between atoms: C_30  and  C_31
REMARK                            x       y       z     vdW  Elec       q    Type
REMARK                         _______ _______ _______ _____ _____    ______ ____
ROOT
ATOM      5  N   UNL     1      -5.305   2.582  25.339  0.00  0.00    -0.287 NA
ATOM     10  C   UNL     1      -4.445   3.221  24.323  0.00  0.00    +0.146 C 
ATOM     11  C   UNL     1      -4.594   4.732  24.579  0.00  0.00    +0.030 C 
ATOM     12  C   UNL     1      -5.604   4.846  25.713  0.00  0.00    +0.017 C 
ATOM     13  C   UNL     1      -6.369   3.540  25.641  0.00  0.00    +0.085 C 
ENDROOT
BRANCH  10  15
ATOM      1  O   UNL     1      -2.308   3.130  25.506  0.00  0.00    -0.336 OA
ATOM      6  N   UNL     1      -2.318   2.035  23.553  0.00  0.00    -0.189 NA
ATOM      7  N   UNL     1      -1.024   2.590  25.356  0.00  0.00    -0.054 NA
ATOM     15  C   UNL     1      -3.005   2.755  24.403  0.00  0.00    +0.245 A 
ATOM     19  C   UNL     1      -1.109   1.959  24.181  0.00  0.00    +0.221 A 
BRANCH  19  23
ATOM      9  N   UNL     1      -0.317   0.082  22.992  0.00  0.00    -0.252 NA
ATOM     23  C   UNL     1      -0.005   1.245  23.607  0.00  0.00    +0.115 A 
ATOM     24  C   UNL     1       1.281   1.751  23.702  0.00  0.00    +0.077 A 
ATOM     25  C   UNL     1       2.313   1.018  23.129  0.00  0.00    +0.124 A 
ATOM     27  C   UNL     1       0.712  -0.603  22.446  0.00  0.00    +0.115 A 
ATOM     28  C   UNL     1       2.032  -0.184  22.487  0.00  0.00    +0.065 A 
BRANCH  25   2
ATOM      2  O   UNL     1       3.594   1.473  23.195  0.00  0.00    -0.490 OA
BRANCH   2  30
ATOM     30  C   UNL     1       4.626   0.567  22.807  0.00  0.00    +0.257 C 
BRANCH  30  31
ATOM     31  C   UNL     1       5.662   0.494  23.912  0.00  0.00    +0.200 C 
BRANCH  31   4
ATOM      4  O   UNL     1       5.478  -0.712  24.642  0.00  0.00    -0.380 OA
ATOM     32  C   UNL     1       4.793  -1.688  23.871  0.00  0.00    +0.194 C 
ENDBRANCH  31   4
ENDBRANCH  30  31
ENDBRANCH   2  30
ENDBRANCH  25   2
ENDBRANCH  19  23
ENDBRANCH  10  15
BRANCH   5  14
ATOM     14  C   UNL     1      -5.834   1.292  24.913  0.00  0.00    +0.120 C 
BRANCH  14  16
ATOM     16  C   UNL     1      -4.776   0.220  24.927  0.00  0.00    -0.033 A 
ATOM     17  C   UNL     1      -4.001   0.019  26.070  0.00  0.00    +0.007 A 
ATOM     18  C   UNL     1      -4.570  -0.570  23.796  0.00  0.00    +0.007 A 
ATOM     20  C   UNL     1      -3.022  -0.973  26.082  0.00  0.00    +0.023 A 
ATOM     21  C   UNL     1      -3.590  -1.562  23.808  0.00  0.00    +0.023 A 
ATOM     22  C   UNL     1      -2.816  -1.763  24.951  0.00  0.00    +0.033 A 
BRANCH  22   8
ATOM      3  O   UNL     1       0.097  -1.626  25.706  0.00  0.00    -0.276 OA
ATOM      8  N   UNL     1      -1.834  -2.756  24.962  0.00  0.00    -0.286 N 
ATOM     26  C   UNL     1      -0.486  -2.636  25.323  0.00  0.00    +0.214 C 
ATOM     29  C   UNL     1       0.246  -3.949  25.197  0.00  0.00    +0.109 C 
ATOM     33  H   UNL     1      -2.148  -3.679  24.668  0.00  0.00    +0.155 HD
ENDBRANCH  22   8
ENDBRANCH  14  16
ENDBRANCH   5  14
TORSDOF 9
ENDMDL
MODEL 2
REMARK VINA RESULT:       1.7      1.848      4.427
REMARK  Name = 45783459
REMARK  11 active torsions:
REMARK  status: ('A' for Active; 'I' for Inactive)
REMARK    1  A    between atoms: O_2  and  C_25
REMARK    2  A    between atoms: O_2  and  C_30
REMARK    3  A    between atoms: O_4  and  C_31
REMARK    4  A    between atoms: O_4  and  C_32
REMARK    5  A    between atoms: N_5  and  C_14
REMARK    6  A    between atoms: N_8  and  C_22
REMARK    7  A    between atoms: C_10  and  C_15
REMARK    8  A    between atoms: C_14  and  C_16
REMARK    9  A    between atoms: C_19  and  C_23
REMARK   10  A    between atoms: C_26  and  C_29
REMARK   11  A    between atoms: C_30  and  C_31
REMARK                            x       y       z     vdW  Elec       q    Type
REMARK                         _______ _______ _______ _____ _____    ______ ____
ROOT
ATOM      5  N   UNL     1      -4.376  -1.556  23.976  0.00  0.00    -0.287 NA
ATOM     10  C   UNL     1      -3.323  -1.860  24.965  0.00  0.00    +0.146 C 
ATOM     11  C   UNL     1      -3.128  -3.384  24.875  0.00  0.00    +0.030 C 
ATOM     12  C   UNL     1      -4.157  -3.857  23.857  0.00  0.00    +0.017 C 
ATOM     13  C   UNL     1      -5.202  -2.760  23.870  0.00  0.00    +0.085 C 
ENDROOT
BRANCH  10  15
ATOM      1  O   UNL     1      -1.731  -0.118  25.601  0.00  0.00    -0.336 OA
ATOM      6  N   UNL     1      -1.177  -1.224  23.734  0.00  0.00    -0.189 NA
ATOM      7  N   UNL     1      -0.526   0.443  25.158  0.00  0.00    -0.054 NA
ATOM     15  C   UNL     1      -2.043  -1.092  24.707  0.00  0.00    +0.245 A 
ATOM     19  C   UNL     1      -0.264  -0.262  24.053  0.00  0.00    +0.221 A 
BRANCH  19  23
ATOM      9  N   UNL     1       0.860  -0.548  22.000  0.00  0.00    -0.252 NA
ATOM     23  C   UNL     1       0.900  -0.031  23.248  0.00  0.00    +0.115 A 
ATOM     24  C   UNL     1       1.973   0.682  23.759  0.00  0.00    +0.077 A 
ATOM     25  C   UNL     1       3.076   0.876  22.935  0.00  0.00    +0.124 A 
ATOM     27  C   UNL     1       1.950  -0.339  21.228  0.00  0.00    +0.115 A 
ATOM     28  C   UNL     1       3.073   0.359  21.644  0.00  0.00    +0.065 A 
BRANCH  25   2
ATOM      2  O   UNL     1       4.155   1.570  23.390  0.00  0.00    -0.490 OA
BRANCH   2  30
ATOM     30  C   UNL     1       5.409   0.890  23.395  0.00  0.00    +0.257 C 
BRANCH  30  31
ATOM     31  C   UNL     1       5.476  -0.016  24.610  0.00  0.00    +0.200 C 
BRANCH  31   4
ATOM      4  O   UNL     1       5.653  -1.359  24.178  0.00  0.00    -0.380 OA
ATOM     32  C   UNL     1       4.408  -1.987  23.906  0.00  0.00    +0.194 C 
ENDBRANCH  31   4
ENDBRANCH  30  31
ENDBRANCH   2  30
ENDBRANCH  25   2
ENDBRANCH  19  23
ENDBRANCH  10  15
BRANCH   5  14
ATOM     14  C   UNL     1      -5.165  -0.380  24.319  0.00  0.00    +0.120 C 
BRANCH  14  16
ATOM     16  C   UNL     1      -4.332   0.875  24.311  0.00  0.00    -0.033 A 
ATOM     17  C   UNL     1      -3.537   1.178  23.206  0.00  0.00    +0.007 A 
ATOM     18  C   UNL     1      -4.355   1.733  25.411  0.00  0.00    +0.007 A 
ATOM     20  C   UNL     1      -2.766   2.339  23.199  0.00  0.00    +0.023 A 
ATOM     21  C   UNL     1      -3.582   2.895  25.404  0.00  0.00    +0.023 A 
ATOM     22  C   UNL     1      -2.788   3.197  24.298  0.00  0.00    +0.033 A 
BRANCH  22   8
ATOM      3  O   UNL     1      -0.128   3.785  25.584  0.00  0.00    -0.276 OA
ATOM      8  N   UNL     1      -2.015   4.360  24.293  0.00  0.00    -0.286 N 
ATOM     26  C   UNL     1      -0.779   4.580  24.913  0.00  0.00    +0.214 C 
ATOM     29  C   UNL     1      -0.270   5.978  24.667  0.00  0.00    +0.109 C 
ATOM     33  H   UNL     1      -2.409   5.140  23.770  0.00  0.00    +0.155 HD
ENDBRANCH  22   8
ENDBRANCH  14  16
ENDBRANCH   5  14
TORSDOF 9
ENDMDL
MODEL 3
REMARK VINA RESULT:       3.7     13.741     16.985
REMARK  Name = 45783459
REMARK  11 active torsions:
REMARK  status: ('A' for Active; 'I' for Inactive)
REMARK    1  A    between atoms: O_2  and  C_25
REMARK    2  A    between atoms: O_2  and  C_30
REMARK    3  A    between atoms: O_4  and  C_31
REMARK    4  A    between atoms: O_4  and  C_32
REMARK    5  A    between atoms: N_5  and  C_14
REMARK    6  A    between atoms: N_8  and  C_22
REMARK    7  A    between atoms: C_10  and  C_15
REMARK    8  A    between atoms: C_14  and  C_16
REMARK    9  A    between atoms: C_19  and  C_23
REMARK   10  A    between atoms: C_26  and  C_29
REMARK   11  A    between atoms: C_30  and  C_31
REMARK                            x       y       z     vdW  Elec       q    Type
REMARK                         _______ _______ _______ _____ _____    ______ ____
ROOT
ATOM      5  N   UNL     1      -3.219  -9.290  11.154  0.00  0.00    -0.287 NA
ATOM     10  C   UNL     1      -4.689  -9.338  11.029  0.00  0.00    +0.146 C 
ATOM     11  C   UNL     1      -4.951 -10.274   9.836  0.00  0.00    +0.030 C 
ATOM     12  C   UNL     1      -3.570 -10.651   9.317  0.00  0.00    +0.017 C 
ATOM     13  C   UNL     1      -2.683  -9.528   9.814  0.00  0.00    +0.085 C 
ENDROOT
BRANCH  10  15
ATOM      1  O   UNL     1      -6.558 -10.443  12.152  0.00  0.00    -0.336 OA
ATOM      6  N   UNL     1      -4.971  -9.695  13.543  0.00  0.00    -0.189 NA
ATOM      7  N   UNL     1      -6.983 -10.778  13.443  0.00  0.00    -0.054 NA
ATOM     15  C   UNL     1      -5.366  -9.809  12.300  0.00  0.00    +0.245 A 
ATOM     19  C   UNL     1      -5.995 -10.304  14.208  0.00  0.00    +0.221 A 
BRANCH  19  23
ATOM      9  N   UNL     1      -4.782 -10.456  16.226  0.00  0.00    -0.252 NA
ATOM     23  C   UNL     1      -5.999 -10.424  15.637  0.00  0.00    +0.115 A 
ATOM     24  C   UNL     1      -7.198 -10.500  16.329  0.00  0.00    +0.077 A 
ATOM     25  C   UNL     1      -7.144 -10.615  17.713  0.00  0.00    +0.124 A 
ATOM     27  C   UNL     1      -4.770 -10.568  17.572  0.00  0.00    +0.115 A 
ATOM     28  C   UNL     1      -5.911 -10.650  18.355  0.00  0.00    +0.065 A 
BRANCH  25   2
ATOM      2  O   UNL     1      -8.293 -10.692  18.438  0.00  0.00    -0.490 OA
BRANCH   2  30
ATOM     30  C   UNL     1      -9.522 -10.647  17.713  0.00  0.00    +0.257 C 
BRANCH  30  31
ATOM     31  C   UNL     1     -10.508  -9.774  18.465  0.00  0.00    +0.200 C 
BRANCH  31   4
ATOM      4  O   UNL     1     -10.490  -8.467  17.906  0.00  0.00    -0.380 OA
ATOM     32  C   UNL     1      -9.972  -8.474  16.583  0.00  0.00    +0.194 C 
ENDBRANCH  31   4
ENDBRANCH  30  31
ENDBRANCH   2  30
ENDBRANCH  25   2
ENDBRANCH  19  23
ENDBRANCH  10  15
BRANCH   5  14
ATOM     14  C   UNL     1      -2.732  -8.040  11.725  0.00  0.00    +0.120 C 
BRANCH  14  16
ATOM     16  C   UNL     1      -1.227  -7.979  11.738  0.00  0.00    -0.033 A 
ATOM     17  C   UNL     1      -0.571  -7.101  12.602  0.00  0.00    +0.007 A 
ATOM     18  C   UNL     1      -0.489  -8.801  10.886  0.00  0.00    +0.007 A 
ATOM     20  C   UNL     1       0.821  -7.045  12.614  0.00  0.00    +0.023 A 
ATOM     21  C   UNL     1       0.905  -8.744  10.897  0.00  0.00    +0.023 A 
ATOM     22  C   UNL     1       1.560  -7.866  11.761  0.00  0.00    +0.033 A 
BRANCH  22   8
ATOM      3  O   UNL     1       3.420  -5.562  12.313  0.00  0.00    -0.276 OA
ATOM      8  N   UNL     1       2.954  -7.809  11.772  0.00  0.00    -0.286 N 
ATOM     26  C   UNL     1       3.773  -6.704  12.035  0.00  0.00    +0.214 C 
ATOM     29  C   UNL     1       5.237  -7.058  11.947  0.00  0.00    +0.109 C 
ATOM     33  H   UNL     1       3.426  -8.686  11.560  0.00  0.00    +0.155 HD
ENDBRANCH  22   8
ENDBRANCH  14  16
ENDBRANCH   5  14
TORSDOF 9
ENDMDL
MODEL 4
REMARK VINA RESULT:       3.8      1.571      1.933
REMARK  Name = 45783459
REMARK  11 active torsions:
REMARK  status: ('A' for Active; 'I' for Inactive)
REMARK    1  A    between atoms: O_2  and  C_25
REMARK    2  A    between atoms: O_2  and  C_30
REMARK    3  A    between atoms: O_4  and  C_31
REMARK    4  A    between atoms: O_4  and  C_32
REMARK    5  A    between atoms: N_5  and  C_14
REMARK    6  A    between atoms: N_8  and  C_22
REMARK    7  A    between atoms: C_10  and  C_15
REMARK    8  A    between atoms: C_14  and  C_16
REMARK    9  A    between atoms: C_19  and  C_23
REMARK   10  A    between atoms: C_26  and  C_29
REMARK   11  A    between atoms: C_30  and  C_31
REMARK                            x       y       z     vdW  Elec       q    Type
REMARK                         _______ _______ _______ _____ _____    ______ ____
ROOT
ATOM      5  N   UNL     1      -3.858   3.750  25.688  0.00  0.00    -0.287 NA
ATOM     10  C   UNL     1      -2.712   4.125  24.836  0.00  0.00    +0.146 C 
ATOM     11  C   UNL     1      -2.143   5.401  25.485  0.00  0.00    +0.030 C 
ATOM     12  C   UNL     1      -3.071   5.699  26.655  0.00  0.00    +0.017 C 
ATOM     13  C   UNL     1      -4.357   4.991  26.280  0.00  0.00    +0.085 C 
ENDROOT
BRANCH  10  15
ATOM      1  O   UNL     1      -1.583   2.175  25.783  0.00  0.00    -0.336 OA
ATOM      6  N   UNL     1      -0.859   2.749  23.743  0.00  0.00    -0.189 NA
ATOM      7  N   UNL     1      -0.582   1.253  25.452  0.00  0.00    -0.054 NA
ATOM     15  C   UNL     1      -1.683   3.019  24.723  0.00  0.00    +0.245 A 
ATOM     19  C   UNL     1      -0.204   1.657  24.236  0.00  0.00    +0.221 A 
BRANCH  19  23
ATOM      9  N   UNL     1       0.413  -0.050  22.729  0.00  0.00    -0.252 NA
ATOM     23  C   UNL     1       0.822   0.993  23.486  0.00  0.00    +0.115 A 
ATOM     24  C   UNL     1       2.137   1.426  23.564  0.00  0.00    +0.077 A 
ATOM     25  C   UNL     1       3.091   0.746  22.817  0.00  0.00    +0.124 A 
ATOM     27  C   UNL     1       1.369  -0.686  22.017  0.00  0.00    +0.115 A 
ATOM     28  C   UNL     1       2.709  -0.332  22.025  0.00  0.00    +0.065 A 
BRANCH  25   2
ATOM      2  O   UNL     1       4.395   1.133  22.859  0.00  0.00    -0.490 OA
BRANCH   2  30
ATOM     30  C   UNL     1       5.148   0.755  24.011  0.00  0.00    +0.257 C 
BRANCH  30  31
ATOM     31  C   UNL     1       5.757  -0.614  23.776  0.00  0.00    +0.200 C 
BRANCH  31   4
ATOM      4  O   UNL     1       6.564  -0.569  22.606  0.00  0.00    -0.380 OA
ATOM     32  C   UNL     1       7.946  -0.515  22.929  0.00  0.00    +0.194 C 
ENDBRANCH  31   4
ENDBRANCH  30  31
ENDBRANCH   2  30
ENDBRANCH  25   2
ENDBRANCH  19  23
ENDBRANCH  10  15
BRANCH   5  14
ATOM     14  C   UNL     1      -4.899   3.030  24.966  0.00  0.00    +0.120 C 
BRANCH  14  16
ATOM     16  C   UNL     1      -4.484   1.619  24.643  0.00  0.00    -0.033 A 
ATOM     17  C   UNL     1      -3.888   1.330  23.415  0.00  0.00    +0.007 A 
ATOM     18  C   UNL     1      -4.698   0.600  25.572  0.00  0.00    +0.007 A 
ATOM     20  C   UNL     1      -3.505   0.023  23.117  0.00  0.00    +0.023 A 
ATOM     21  C   UNL     1      -4.315  -0.708  25.274  0.00  0.00    +0.023 A 
ATOM     22  C   UNL     1      -3.719  -0.996  24.046  0.00  0.00    +0.033 A 
BRANCH  22   8
ATOM      3  O   UNL     1      -1.132  -2.446  24.575  0.00  0.00    -0.276 OA
ATOM      8  N   UNL     1      -3.335  -2.304  23.747  0.00  0.00    -0.286 N 
ATOM     26  C   UNL     1      -2.112  -2.930  24.016  0.00  0.00    +0.214 C 
ATOM     29  C   UNL     1      -2.094  -4.358  23.531  0.00  0.00    +0.109 C 
ATOM     33  H   UNL     1      -4.041  -2.866  23.273  0.00  0.00    +0.155 HD
ENDBRANCH  22   8
ENDBRANCH  14  16
ENDBRANCH   5  14
TORSDOF 9
ENDMDL
