MODEL 1
REMARK VINA RESULT:       0.2      0.000      0.000
REMARK  Name = 45783788
REMARK  8 active torsions:
REMARK  status: ('A' for Active; 'I' for Inactive)
REMARK    1  A    between atoms: N_3  and  C_13
REMARK    2  A    between atoms: N_6  and  C_21
REMARK    3  A    between atoms: N_8  and  C_26
REMARK    4  A    between atoms: N_8  and  C_29
REMARK    5  A    between atoms: C_9  and  C_14
REMARK    6  A    between atoms: C_13  and  C_15
REMARK    7  A    between atoms: C_18  and  C_22
REMARK    8  A    between atoms: C_27  and  C_28
REMARK                            x       y       z     vdW  Elec       q    Type
REMARK                         _______ _______ _______ _____ _____    ______ ____
ROOT
ATOM      3  N   UNL     1      -2.952 -10.029  12.633  0.00  0.00    -0.287 NA
ATOM      9  C   UNL     1      -4.199 -10.727  12.258  0.00  0.00    +0.146 C 
ATOM     10  C   UNL     1      -5.022 -10.781  13.558  0.00  0.00    +0.030 C 
ATOM     11  C   UNL     1      -4.133 -10.147  14.619  0.00  0.00    +0.017 C 
ATOM     12  C   UNL     1      -2.736 -10.303  14.054  0.00  0.00    +0.085 C 
ENDROOT
BRANCH   9  14
ATOM      1  O   UNL     1      -4.425 -10.208   9.881  0.00  0.00    -0.336 OA
ATOM      4  N   UNL     1      -6.005  -9.286  11.172  0.00  0.00    -0.190 NA
ATOM      5  N   UNL     1      -5.260  -9.487   9.019  0.00  0.00    -0.056 NA
ATOM     14  C   UNL     1      -4.935 -10.037  11.129  0.00  0.00    +0.245 A 
ATOM     18  C   UNL     1      -6.167  -8.972   9.854  0.00  0.00    +0.204 A 
BRANCH  18  22
ATOM      7  N   UNL     1      -9.619  -7.857   9.035  0.00  0.00    -0.240 NA
ATOM     22  C   UNL     1      -7.247  -8.141   9.404  0.00  0.00    +0.041 A 
ATOM     23  C   UNL     1      -7.009  -6.862   8.914  0.00  0.00    +0.016 A 
ATOM     24  C   UNL     1      -8.557  -8.588   9.443  0.00  0.00    +0.124 A 
ATOM     25  C   UNL     1      -8.075  -6.079   8.484  0.00  0.00    +0.044 A 
ATOM     26  C   UNL     1      -9.349  -6.618   8.564  0.00  0.00    +0.118 A 
BRANCH  26   8
ATOM      8  N   UNL     1     -10.425  -5.809   8.124  0.00  0.00    -0.332 N 
ATOM     29  C   UNL     1     -10.561  -4.439   8.496  0.00  0.00    +0.127 C 
ATOM     31  H   UNL     1     -11.226  -6.284   7.720  0.00  0.00    +0.147 HD
ENDBRANCH  26   8
ENDBRANCH  18  22
ENDBRANCH   9  14
BRANCH   3  13
ATOM     13  C   UNL     1      -1.808 -10.420  11.820  0.00  0.00    +0.120 C 
BRANCH  13  15
ATOM     15  C   UNL     1      -0.726  -9.373  11.835  0.00  0.00    -0.033 A 
ATOM     16  C   UNL     1      -0.717  -8.394  12.830  0.00  0.00    +0.007 A 
ATOM     17  C   UNL     1       0.267  -9.381  10.855  0.00  0.00    +0.007 A 
ATOM     19  C   UNL     1       0.285  -7.425  12.843  0.00  0.00    +0.023 A 
ATOM     20  C   UNL     1       1.268  -8.411  10.870  0.00  0.00    +0.023 A 
ATOM     21  C   UNL     1       1.278  -7.433  11.864  0.00  0.00    +0.033 A 
BRANCH  21   6
ATOM      2  O   UNL     1       4.217  -7.669  12.471  0.00  0.00    -0.276 OA
ATOM      6  N   UNL     1       2.280  -6.462  11.878  0.00  0.00    -0.286 N 
ATOM     27  C   UNL     1       3.641  -6.629  12.171  0.00  0.00    +0.214 C 
ATOM     28  C   UNL     1       4.396  -5.327  12.075  0.00  0.00    +0.109 C 
ATOM     30  H   UNL     1       1.976  -5.520  11.646  0.00  0.00    +0.155 HD
ENDBRANCH  21   6
ENDBRANCH  13  15
ENDBRANCH   3  13
TORSDOF 6
ENDMDL
MODEL 2
REMARK VINA RESULT:       0.4     15.261     17.961
REMARK  Name = 45783788
REMARK  8 active torsions:
REMARK  status: ('A' for Active; 'I' for Inactive)
REMARK    1  A    between atoms: N_3  and  C_13
REMARK    2  A    between atoms: N_6  and  C_21
REMARK    3  A    between atoms: N_8  and  C_26
REMARK    4  A    between atoms: N_8  and  C_29
REMARK    5  A    between atoms: C_9  and  C_14
REMARK    6  A    between atoms: C_13  and  C_15
REMARK    7  A    between atoms: C_18  and  C_22
REMARK    8  A    between atoms: C_27  and  C_28
REMARK                            x       y       z     vdW  Elec       q    Type
REMARK                         _______ _______ _______ _____ _____    ______ ____
ROOT
ATOM      3  N   UNL     1      -5.424   2.426  25.350  0.00  0.00    -0.287 NA
ATOM      9  C   UNL     1      -4.526   3.124  24.408  0.00  0.00    +0.146 C 
ATOM     10  C   UNL     1      -4.755   4.620  24.684  0.00  0.00    +0.030 C 
ATOM     11  C   UNL     1      -5.841   4.666  25.751  0.00  0.00    +0.017 C 
ATOM     12  C   UNL     1      -6.545   3.333  25.601  0.00  0.00    +0.085 C 
ENDROOT
BRANCH   9  14
ATOM      1  O   UNL     1      -2.509   2.977  25.781  0.00  0.00    -0.336 OA
ATOM      4  N   UNL     1      -2.274   2.138  23.717  0.00  0.00    -0.190 NA
ATOM      5  N   UNL     1      -1.189   2.517  25.696  0.00  0.00    -0.056 NA
ATOM     14  C   UNL     1      -3.077   2.714  24.574  0.00  0.00    +0.245 A 
ATOM     18  C   UNL     1      -1.127   2.037  24.450  0.00  0.00    +0.204 A 
BRANCH  18  22
ATOM      7  N   UNL     1       2.452   1.579  23.548  0.00  0.00    -0.240 NA
ATOM     22  C   UNL     1       0.065   1.449  23.909  0.00  0.00    +0.041 A 
ATOM     23  C   UNL     1       0.022   0.231  23.241  0.00  0.00    +0.016 A 
ATOM     24  C   UNL     1       1.293   2.077  24.034  0.00  0.00    +0.124 A 
ATOM     25  C   UNL     1       1.194  -0.315  22.727  0.00  0.00    +0.044 A 
ATOM     26  C   UNL     1       2.372   0.392  22.905  0.00  0.00    +0.118 A 
BRANCH  26   8
ATOM      8  N   UNL     1       3.557  -0.176  22.376  0.00  0.00    -0.332 N 
ATOM     29  C   UNL     1       4.846   0.073  22.933  0.00  0.00    +0.127 C 
ATOM     31  H   UNL     1       3.499  -0.586  21.450  0.00  0.00    +0.147 HD
ENDBRANCH  26   8
ENDBRANCH  18  22
ENDBRANCH   9  14
BRANCH   3  13
ATOM     13  C   UNL     1      -5.869   1.127  24.865  0.00  0.00    +0.120 C 
BRANCH  13  15
ATOM     15  C   UNL     1      -4.758   0.110  24.886  0.00  0.00    -0.033 A 
ATOM     16  C   UNL     1      -4.032  -0.106  26.058  0.00  0.00    +0.007 A 
ATOM     17  C   UNL     1      -4.452  -0.614  23.734  0.00  0.00    +0.007 A 
ATOM     19  C   UNL     1      -3.003  -1.046  26.078  0.00  0.00    +0.023 A 
ATOM     20  C   UNL     1      -3.423  -1.555  23.754  0.00  0.00    +0.023 A 
ATOM     21  C   UNL     1      -2.698  -1.771  24.926  0.00  0.00    +0.033 A 
BRANCH  21   6
ATOM      2  O   UNL     1       0.119  -1.562  25.966  0.00  0.00    -0.276 OA
ATOM      6  N   UNL     1      -1.668  -2.712  24.946  0.00  0.00    -0.286 N 
ATOM     27  C   UNL     1      -0.367  -2.560  25.445  0.00  0.00    +0.214 C 
ATOM     28  C   UNL     1       0.445  -3.820  25.279  0.00  0.00    +0.109 C 
ATOM     30  H   UNL     1      -1.900  -3.618  24.546  0.00  0.00    +0.155 HD
ENDBRANCH  21   6
ENDBRANCH  13  15
ENDBRANCH   3  13
TORSDOF 6
ENDMDL
MODEL 3
REMARK VINA RESULT:       0.6     14.550     17.677
REMARK  Name = 45783788
REMARK  8 active torsions:
REMARK  status: ('A' for Active; 'I' for Inactive)
REMARK    1  A    between atoms: N_3  and  C_13
REMARK    2  A    between atoms: N_6  and  C_21
REMARK    3  A    between atoms: N_8  and  C_26
REMARK    4  A    between atoms: N_8  and  C_29
REMARK    5  A    between atoms: C_9  and  C_14
REMARK    6  A    between atoms: C_13  and  C_15
REMARK    7  A    between atoms: C_18  and  C_22
REMARK    8  A    between atoms: C_27  and  C_28
REMARK                            x       y       z     vdW  Elec       q    Type
REMARK                         _______ _______ _______ _____ _____    ______ ____
ROOT
ATOM      3  N   UNL     1      -4.497  -1.519  23.928  0.00  0.00    -0.287 NA
ATOM      9  C   UNL     1      -3.551  -1.938  24.983  0.00  0.00    +0.146 C 
ATOM     10  C   UNL     1      -3.317  -3.437  24.724  0.00  0.00    +0.030 C 
ATOM     11  C   UNL     1      -4.217  -3.784  23.547  0.00  0.00    +0.017 C 
ATOM     12  C   UNL     1      -5.280  -2.705  23.581  0.00  0.00    +0.085 C 
ENDROOT
BRANCH   9  14
ATOM      1  O   UNL     1      -2.159  -0.148  25.895  0.00  0.00    -0.336 OA
ATOM      4  N   UNL     1      -1.229  -1.245  24.178  0.00  0.00    -0.190 NA
ATOM      5  N   UNL     1      -0.908   0.445  25.685  0.00  0.00    -0.056 NA
ATOM     14  C   UNL     1      -2.267  -1.134  24.966  0.00  0.00    +0.245 A 
ATOM     18  C   UNL     1      -0.421  -0.256  24.657  0.00  0.00    +0.204 A 
BRANCH  18  22
ATOM      7  N   UNL     1       2.504   1.619  23.330  0.00  0.00    -0.240 NA
ATOM     22  C   UNL     1       0.869   0.007  24.087  0.00  0.00    +0.041 A 
ATOM     23  C   UNL     1       1.724  -1.034  23.741  0.00  0.00    +0.016 A 
ATOM     24  C   UNL     1       1.302   1.303  23.863  0.00  0.00    +0.124 A 
ATOM     25  C   UNL     1       2.969  -0.749  23.190  0.00  0.00    +0.044 A 
ATOM     26  C   UNL     1       3.308   0.582  23.006  0.00  0.00    +0.118 A 
BRANCH  26   8
ATOM      8  N   UNL     1       4.580   0.856  22.445  0.00  0.00    -0.332 N 
ATOM     29  C   UNL     1       5.772   0.211  22.886  0.00  0.00    +0.127 C 
ATOM     31  H   UNL     1       4.662   1.691  21.874  0.00  0.00    +0.147 HD
ENDBRANCH  26   8
ENDBRANCH  18  22
ENDBRANCH   9  14
BRANCH   3  13
ATOM     13  C   UNL     1      -5.341  -0.400  24.325  0.00  0.00    +0.120 C 
BRANCH  13  15
ATOM     15  C   UNL     1      -4.572   0.893  24.373  0.00  0.00    -0.033 A 
ATOM     16  C   UNL     1      -3.633   1.184  23.383  0.00  0.00    +0.007 A 
ATOM     17  C   UNL     1      -4.797   1.801  25.408  0.00  0.00    +0.007 A 
ATOM     19  C   UNL     1      -2.920   2.381  23.429  0.00  0.00    +0.023 A 
ATOM     20  C   UNL     1      -4.084   2.998  25.454  0.00  0.00    +0.023 A 
ATOM     21  C   UNL     1      -3.145   3.288  24.464  0.00  0.00    +0.033 A 
BRANCH  21   6
ATOM      2  O   UNL     1      -0.352   3.865  25.429  0.00  0.00    -0.276 OA
ATOM      6  N   UNL     1      -2.432   4.487  24.509  0.00  0.00    -0.286 N 
ATOM     27  C   UNL     1      -1.126   4.699  24.973  0.00  0.00    +0.214 C 
ATOM     28  C   UNL     1      -0.719   6.146  24.850  0.00  0.00    +0.109 C 
ATOM     30  H   UNL     1      -2.930   5.302  24.160  0.00  0.00    +0.155 HD
ENDBRANCH  21   6
ENDBRANCH  13  15
ENDBRANCH   3  13
TORSDOF 6
ENDMDL
MODEL 4
REMARK VINA RESULT:       2.6     15.741     18.608
REMARK  Name = 45783788
REMARK  8 active torsions:
REMARK  status: ('A' for Active; 'I' for Inactive)
REMARK    1  A    between atoms: N_3  and  C_13
REMARK    2  A    between atoms: N_6  and  C_21
REMARK    3  A    between atoms: N_8  and  C_26
REMARK    4  A    between atoms: N_8  and  C_29
REMARK    5  A    between atoms: C_9  and  C_14
REMARK    6  A    between atoms: C_13  and  C_15
REMARK    7  A    between atoms: C_18  and  C_22
REMARK    8  A    between atoms: C_27  and  C_28
REMARK                            x       y       z     vdW  Elec       q    Type
REMARK                         _______ _______ _______ _____ _____    ______ ____
ROOT
ATOM      3  N   UNL     1      -4.381   2.849  24.518  0.00  0.00    -0.287 NA
ATOM      9  C   UNL     1      -3.957   1.665  25.293  0.00  0.00    +0.146 C 
ATOM     10  C   UNL     1      -5.212   0.777  25.367  0.00  0.00    +0.030 C 
ATOM     11  C   UNL     1      -6.304   1.570  24.663  0.00  0.00    +0.017 C 
ATOM     12  C   UNL     1      -5.817   3.002  24.751  0.00  0.00    +0.085 C 
ENDROOT
BRANCH   9  14
ATOM      1  O   UNL     1      -2.964  -0.346  24.320  0.00  0.00    -0.336 OA
ATOM      4  N   UNL     1      -1.575   1.408  24.408  0.00  0.00    -0.190 NA
ATOM      5  N   UNL     1      -1.752  -0.782  23.773  0.00  0.00    -0.056 NA
ATOM     14  C   UNL     1      -2.774   0.954  24.668  0.00  0.00    +0.245 A 
ATOM     18  C   UNL     1      -0.983   0.308  23.860  0.00  0.00    +0.204 A 
BRANCH  18  22
ATOM      7  N   UNL     1       2.576   1.329  23.520  0.00  0.00    -0.240 NA
ATOM     22  C   UNL     1       0.378   0.330  23.407  0.00  0.00    +0.041 A 
ATOM     23  C   UNL     1       0.830  -0.577  22.455  0.00  0.00    +0.016 A 
ATOM     24  C   UNL     1       1.282   1.254  23.904  0.00  0.00    +0.124 A 
ATOM     25  C   UNL     1       2.156  -0.532  22.036  0.00  0.00    +0.044 A 
ATOM     26  C   UNL     1       2.981   0.431  22.594  0.00  0.00    +0.118 A 
BRANCH  26   8
ATOM      8  N   UNL     1       4.328   0.464  22.156  0.00  0.00    -0.332 N 
ATOM     29  C   UNL     1       5.421   0.109  23.001  0.00  0.00    +0.127 C 
ATOM     31  H   UNL     1       4.522   0.966  21.296  0.00  0.00    +0.147 HD
ENDBRANCH  26   8
ENDBRANCH  18  22
ENDBRANCH   9  14
BRANCH   3  13
ATOM     13  C   UNL     1      -3.638   4.055  24.859  0.00  0.00    +0.120 C 
BRANCH  13  15
ATOM     15  C   UNL     1      -2.331   3.736  25.535  0.00  0.00    -0.033 A 
ATOM     16  C   UNL     1      -2.325   3.189  26.819  0.00  0.00    +0.007 A 
ATOM     17  C   UNL     1      -1.126   3.988  24.879  0.00  0.00    +0.007 A 
ATOM     19  C   UNL     1      -1.115   2.895  27.445  0.00  0.00    +0.023 A 
ATOM     20  C   UNL     1       0.084   3.694  25.505  0.00  0.00    +0.023 A 
ATOM     21  C   UNL     1       0.090   3.147  26.789  0.00  0.00    +0.033 A 
BRANCH  21   6
ATOM      2  O   UNL     1       0.734   2.735  29.701  0.00  0.00    -0.276 OA
ATOM      6  N   UNL     1       1.301   2.852  27.415  0.00  0.00    -0.286 N 
ATOM     27  C   UNL     1       1.545   2.671  28.784  0.00  0.00    +0.214 C 
ATOM     28  C   UNL     1       2.996   2.363  29.056  0.00  0.00    +0.109 C 
ATOM     30  H   UNL     1       2.101   2.758  26.793  0.00  0.00    +0.155 HD
ENDBRANCH  21   6
ENDBRANCH  13  15
ENDBRANCH   3  13
TORSDOF 6
ENDMDL
MODEL 5
REMARK VINA RESULT:       2.7     14.841     18.188
REMARK  Name = 45783788
REMARK  8 active torsions:
REMARK  status: ('A' for Active; 'I' for Inactive)
REMARK    1  A    between atoms: N_3  and  C_13
REMARK    2  A    between atoms: N_6  and  C_21
REMARK    3  A    between atoms: N_8  and  C_26
REMARK    4  A    between atoms: N_8  and  C_29
REMARK    5  A    between atoms: C_9  and  C_14
REMARK    6  A    between atoms: C_13  and  C_15
REMARK    7  A    between atoms: C_18  and  C_22
REMARK    8  A    between atoms: C_27  and  C_28
REMARK                            x       y       z     vdW  Elec       q    Type
REMARK                         _______ _______ _______ _____ _____    ______ ____
ROOT
ATOM      3  N   UNL     1      -3.231  -0.065  23.856  0.00  0.00    -0.287 NA
ATOM      9  C   UNL     1      -2.126  -0.844  24.450  0.00  0.00    +0.146 C 
ATOM     10  C   UNL     1      -2.585  -2.310  24.354  0.00  0.00    +0.030 C 
ATOM     11  C   UNL     1      -3.982  -2.251  23.750  0.00  0.00    +0.017 C 
ATOM     12  C   UNL     1      -4.450  -0.846  24.071  0.00  0.00    +0.085 C 
ENDROOT
BRANCH   9  14
ATOM      1  O   UNL     1      -0.859  -0.334  22.423  0.00  0.00    -0.336 OA
ATOM      4  N   UNL     1       0.408  -0.605  24.250  0.00  0.00    -0.190 NA
ATOM      5  N   UNL     1       0.466  -0.147  22.009  0.00  0.00    -0.056 NA
ATOM     14  C   UNL     1      -0.802  -0.599  23.755  0.00  0.00    +0.245 A 
ATOM     18  C   UNL     1       1.153  -0.323  23.142  0.00  0.00    +0.204 A 
BRANCH  18  22
ATOM      7  N   UNL     1       4.707  -1.250  23.726  0.00  0.00    -0.240 NA
ATOM     22  C   UNL     1       2.583  -0.222  23.200  0.00  0.00    +0.041 A 
ATOM     23  C   UNL     1       3.235   0.942  22.808  0.00  0.00    +0.016 A 
ATOM     24  C   UNL     1       3.358  -1.280  23.646  0.00  0.00    +0.124 A 
ATOM     25  C   UNL     1       4.622   1.012  22.875  0.00  0.00    +0.044 A 
ATOM     26  C   UNL     1       5.306  -0.102  23.337  0.00  0.00    +0.118 A 
BRANCH  26   8
ATOM      8  N   UNL     1       6.719  -0.016  23.398  0.00  0.00    -0.332 N 
ATOM     29  C   UNL     1       7.576  -0.894  22.672  0.00  0.00    +0.127 C 
ATOM     31  H   UNL     1       7.116   0.537  24.150  0.00  0.00    +0.147 HD
ENDBRANCH  26   8
ENDBRANCH  18  22
ENDBRANCH   9  14
BRANCH   3  13
ATOM     13  C   UNL     1      -3.341   1.282  24.399  0.00  0.00    +0.120 C 
BRANCH  13  15
ATOM     15  C   UNL     1      -2.101   1.687  25.151  0.00  0.00    -0.033 A 
ATOM     16  C   UNL     1      -1.401   2.834  24.775  0.00  0.00    +0.007 A 
ATOM     17  C   UNL     1      -1.650   0.915  26.222  0.00  0.00    +0.007 A 
ATOM     19  C   UNL     1      -0.252   3.208  25.471  0.00  0.00    +0.023 A 
ATOM     20  C   UNL     1      -0.502   1.289  26.917  0.00  0.00    +0.023 A 
ATOM     21  C   UNL     1       0.198   2.436  26.542  0.00  0.00    +0.033 A 
BRANCH  21   6
ATOM      2  O   UNL     1       0.828   2.315  29.483  0.00  0.00    -0.276 OA
ATOM      6  N   UNL     1       1.348   2.811  27.238  0.00  0.00    -0.286 N 
ATOM     27  C   UNL     1       1.588   2.734  28.617  0.00  0.00    +0.214 C 
ATOM     28  C   UNL     1       2.962   3.241  28.973  0.00  0.00    +0.109 C 
ATOM     30  H   UNL     1       2.100   3.186  26.664  0.00  0.00    +0.155 HD
ENDBRANCH  21   6
ENDBRANCH  13  15
ENDBRANCH   3  13
TORSDOF 6
ENDMDL
MODEL 6
REMARK VINA RESULT:       3.4     14.709     18.031
REMARK  Name = 45783788
REMARK  8 active torsions:
REMARK  status: ('A' for Active; 'I' for Inactive)
REMARK    1  A    between atoms: N_3  and  C_13
REMARK    2  A    between atoms: N_6  and  C_21
REMARK    3  A    between atoms: N_8  and  C_26
REMARK    4  A    between atoms: N_8  and  C_29
REMARK    5  A    between atoms: C_9  and  C_14
REMARK    6  A    between atoms: C_13  and  C_15
REMARK    7  A    between atoms: C_18  and  C_22
REMARK    8  A    between atoms: C_27  and  C_28
REMARK                            x       y       z     vdW  Elec       q    Type
REMARK                         _______ _______ _______ _____ _____    ______ ____
ROOT
ATOM      3  N   UNL     1      -3.806   3.448  25.915  0.00  0.00    -0.287 NA
ATOM      9  C   UNL     1      -3.334   3.909  24.594  0.00  0.00    +0.146 C 
ATOM     10  C   UNL     1      -2.684   5.277  24.867  0.00  0.00    +0.030 C 
ATOM     11  C   UNL     1      -2.893   5.528  26.354  0.00  0.00    +0.017 C 
ATOM     12  C   UNL     1      -4.081   4.653  26.699  0.00  0.00    +0.085 C 
ENDROOT
BRANCH   9  14
ATOM      1  O   UNL     1      -2.865   2.227  22.884  0.00  0.00    -0.336 OA
ATOM      4  N   UNL     1      -1.141   2.648  24.249  0.00  0.00    -0.190 NA
ATOM      5  N   UNL     1      -1.820   1.399  22.457  0.00  0.00    -0.056 NA
ATOM     14  C   UNL     1      -2.381   2.929  23.942  0.00  0.00    +0.245 A 
ATOM     18  C   UNL     1      -0.838   1.705  23.311  0.00  0.00    +0.204 A 
BRANCH  18  22
ATOM      7  N   UNL     1       2.853   1.288  23.486  0.00  0.00    -0.240 NA
ATOM     22  C   UNL     1       0.455   1.087  23.252  0.00  0.00    +0.041 A 
ATOM     23  C   UNL     1       0.592  -0.257  22.921  0.00  0.00    +0.016 A 
ATOM     24  C   UNL     1       1.606   1.808  23.524  0.00  0.00    +0.124 A 
ATOM     25  C   UNL     1       1.859  -0.829  22.872  0.00  0.00    +0.044 A 
ATOM     26  C   UNL     1       2.947  -0.021  23.160  0.00  0.00    +0.118 A 
BRANCH  26   8
ATOM      8  N   UNL     1       4.231  -0.619  23.107  0.00  0.00    -0.332 N 
ATOM     29  C   UNL     1       5.402   0.027  23.602  0.00  0.00    +0.127 C 
ATOM     31  H   UNL     1       4.340  -1.424  22.500  0.00  0.00    +0.147 HD
ENDBRANCH  26   8
ENDBRANCH  18  22
ENDBRANCH   9  14
BRANCH   3  13
ATOM     13  C   UNL     1      -4.966   2.570  25.836  0.00  0.00    +0.120 C 
BRANCH  13  15
ATOM     15  C   UNL     1      -4.596   1.196  25.345  0.00  0.00    -0.033 A 
ATOM     16  C   UNL     1      -3.458   0.559  25.845  0.00  0.00    +0.007 A 
ATOM     17  C   UNL     1      -5.388   0.559  24.390  0.00  0.00    +0.007 A 
ATOM     19  C   UNL     1      -3.115  -0.713  25.389  0.00  0.00    +0.023 A 
ATOM     20  C   UNL     1      -5.044  -0.713  23.935  0.00  0.00    +0.023 A 
ATOM     21  C   UNL     1      -3.908  -1.350  24.434  0.00  0.00    +0.033 A 
BRANCH  21   6
ATOM      2  O   UNL     1      -1.211  -2.650  24.119  0.00  0.00    -0.276 OA
ATOM      6  N   UNL     1      -3.564  -2.623  23.978  0.00  0.00    -0.286 N 
ATOM     27  C   UNL     1      -2.284  -3.179  23.851  0.00  0.00    +0.214 C 
ATOM     28  C   UNL     1      -2.338  -4.590  23.320  0.00  0.00    +0.109 C 
ATOM     30  H   UNL     1      -4.347  -3.214  23.708  0.00  0.00    +0.155 HD
ENDBRANCH  21   6
ENDBRANCH  13  15
ENDBRANCH   3  13
TORSDOF 6
ENDMDL
MODEL 7
REMARK VINA RESULT:       4.1      2.764      5.660
REMARK  Name = 45783788
REMARK  8 active torsions:
REMARK  status: ('A' for Active; 'I' for Inactive)
REMARK    1  A    between atoms: N_3  and  C_13
REMARK    2  A    between atoms: N_6  and  C_21
REMARK    3  A    between atoms: N_8  and  C_26
REMARK    4  A    between atoms: N_8  and  C_29
REMARK    5  A    between atoms: C_9  and  C_14
REMARK    6  A    between atoms: C_13  and  C_15
REMARK    7  A    between atoms: C_18  and  C_22
REMARK    8  A    between atoms: C_27  and  C_28
REMARK                            x       y       z     vdW  Elec       q    Type
REMARK                         _______ _______ _______ _____ _____    ______ ____
ROOT
ATOM      3  N   UNL     1      -0.673  -9.470  12.145  0.00  0.00    -0.287 NA
ATOM      9  C   UNL     1      -1.858  -8.594  12.247  0.00  0.00    +0.146 C 
ATOM     10  C   UNL     1      -1.286  -7.165  12.267  0.00  0.00    +0.030 C 
ATOM     11  C   UNL     1       0.226  -7.339  12.235  0.00  0.00    +0.017 C 
ATOM     12  C   UNL     1       0.434  -8.743  12.767  0.00  0.00    +0.085 C 
ENDROOT
BRANCH   9  14
ATOM      1  O   UNL     1      -2.331  -8.808   9.859  0.00  0.00    -0.336 OA
ATOM      4  N   UNL     1      -4.135  -9.010  11.170  0.00  0.00    -0.190 NA
ATOM      5  N   UNL     1      -3.415  -9.026   8.999  0.00  0.00    -0.056 NA
ATOM     14  C   UNL     1      -2.843  -8.814  11.118  0.00  0.00    +0.245 A 
ATOM     18  C   UNL     1      -4.443  -9.135   9.847  0.00  0.00    +0.204 A 
BRANCH  18  22
ATOM      7  N   UNL     1      -8.102  -8.677   9.371  0.00  0.00    -0.240 NA
ATOM     22  C   UNL     1      -5.786  -9.370   9.403  0.00  0.00    +0.041 A 
ATOM     23  C   UNL     1      -6.095 -10.466   8.606  0.00  0.00    +0.016 A 
ATOM     24  C   UNL     1      -6.816  -8.513   9.755  0.00  0.00    +0.124 A 
ATOM     25  C   UNL     1      -7.408 -10.669   8.190  0.00  0.00    +0.044 A 
ATOM     26  C   UNL     1      -8.365  -9.753   8.597  0.00  0.00    +0.118 A 
BRANCH  26   8
ATOM      8  N   UNL     1      -9.696  -9.972   8.165  0.00  0.00    -0.332 N 
ATOM     29  C   UNL     1     -10.681 -10.593   8.989  0.00  0.00    +0.127 C 
ATOM     31  H   UNL     1      -9.880  -9.885   7.171  0.00  0.00    +0.147 HD
ENDBRANCH  26   8
ENDBRANCH  18  22
ENDBRANCH   9  14
BRANCH   3  13
ATOM     13  C   UNL     1      -0.874 -10.781  12.746  0.00  0.00    +0.120 C 
BRANCH  13  15
ATOM     15  C   UNL     1      -1.836 -10.726  13.904  0.00  0.00    -0.033 A 
ATOM     16  C   UNL     1      -3.211 -10.780  13.671  0.00  0.00    +0.007 A 
ATOM     17  C   UNL     1      -1.353 -10.619  15.208  0.00  0.00    +0.007 A 
ATOM     19  C   UNL     1      -4.101 -10.727  14.742  0.00  0.00    +0.023 A 
ATOM     20  C   UNL     1      -2.244 -10.567  16.279  0.00  0.00    +0.023 A 
ATOM     21  C   UNL     1      -3.618 -10.621  16.047  0.00  0.00    +0.033 A 
BRANCH  21   6
ATOM      2  O   UNL     1      -6.368  -9.411  16.244  0.00  0.00    -0.276 OA
ATOM      6  N   UNL     1      -4.510 -10.569  17.119  0.00  0.00    -0.286 N 
ATOM     27  C   UNL     1      -5.785  -9.988  17.156  0.00  0.00    +0.214 C 
ATOM     28  C   UNL     1      -6.431 -10.146  18.509  0.00  0.00    +0.109 C 
ATOM     30  H   UNL     1      -4.185 -11.010  17.976  0.00  0.00    +0.155 HD
ENDBRANCH  21   6
ENDBRANCH  13  15
ENDBRANCH   3  13
TORSDOF 6
ENDMDL
