MODEL 1
REMARK VINA RESULT:      -0.4      0.000      0.000
REMARK  Name = 51136741
REMARK  9 active torsions:
REMARK  status: ('A' for Active; 'I' for Inactive)
REMARK    1  A    between atoms: O_2  and  C_17
REMARK    2  A    between atoms: N_6  and  C_22
REMARK    3  A    between atoms: C_7  and  C_12
REMARK    4  A    between atoms: C_8  and  C_13
REMARK    5  A    between atoms: C_12  and  C_14
REMARK    6  A    between atoms: C_13  and  C_17
REMARK    7  A    between atoms: C_22  and  C_26
REMARK    8  A    between atoms: C_22  and  C_27
REMARK    9  A    between atoms: C_24  and  C_28
REMARK                            x       y       z     vdW  Elec       q    Type
REMARK                         _______ _______ _______ _____ _____    ______ ____
ROOT
ATOM      1  O   UNL     1       1.993   2.515  23.229  0.00  0.00    -0.253 OA
ATOM      4  N   UNL     1       0.338   2.548  24.853  0.00  0.00    -0.285 N 
ATOM      6  N   UNL     1       1.017   0.528  23.828  0.00  0.00    -0.297 N 
ATOM      7  C   UNL     1      -2.067   2.472  25.449  0.00  0.00    +0.016 C 
ATOM      8  C   UNL     1      -2.044   4.016  25.591  0.00  0.00    +0.006 C 
ATOM      9  C   UNL     1      -0.928   4.652  24.742  0.00  0.00    +0.023 C 
ATOM     10  C   UNL     1      -0.662   1.908  25.722  0.00  0.00    +0.113 C 
ATOM     11  C   UNL     1       0.426   3.999  25.018  0.00  0.00    +0.109 C 
ATOM     15  C   UNL     1       1.174   1.905  23.925  0.00  0.00    +0.302 C 
ATOM     29  H   UNL     1       0.243   0.061  24.280  0.00  0.00    +0.150 HD
ENDROOT
BRANCH   6  22
ATOM     22  C   UNL     1       1.799  -0.272  22.912  0.00  0.00    +0.068 C 
ATOM     26  C   UNL     1       3.180   0.341  22.720  0.00  0.00    +0.027 C 
ATOM     27  C   UNL     1       1.072  -0.425  21.582  0.00  0.00    +0.027 C 
ENDBRANCH   6  22
BRANCH   7  12
ATOM     12  C   UNL     1      -2.590   1.977  24.096  0.00  0.00    +0.061 C 
BRANCH  12  14
ATOM      5  N   UNL     1      -4.840   1.168  24.325  0.00  0.00    -0.287 NA
ATOM     14  C   UNL     1      -3.585   0.861  24.307  0.00  0.00    +0.044 C 
ATOM     16  C   UNL     1      -3.079  -0.525  24.475  0.00  0.00    -0.001 A 
ATOM     18  C   UNL     1      -4.002  -1.561  24.279  0.00  0.00    -0.037 A 
ATOM     19  C   UNL     1      -5.412  -1.209  23.906  0.00  0.00    +0.059 C 
ATOM     20  C   UNL     1      -5.803   0.094  24.589  0.00  0.00    +0.146 C 
ATOM     21  C   UNL     1      -1.752  -0.811  24.796  0.00  0.00    +0.013 A 
ATOM     23  C   UNL     1      -3.580  -2.890  24.382  0.00  0.00    +0.004 A 
ATOM     24  C   UNL     1      -1.343  -2.141  24.913  0.00  0.00    -0.050 A 
ATOM     25  C   UNL     1      -2.254  -3.177  24.703  0.00  0.00    +0.003 A 
ATOM     28  C   UNL     1       0.073  -2.456  25.257  0.00  0.00    +0.044 C 
ENDBRANCH  12  14
ENDBRANCH   7  12
BRANCH   8  13
ATOM     13  C   UNL     1      -3.393   4.668  25.284  0.00  0.00    +0.124 C 
BRANCH  13  17
ATOM      3  O   UNL     1      -4.488   3.631  27.198  0.00  0.00    -0.251 OA
ATOM     17  C   UNL     1      -4.514   4.004  26.035  0.00  0.00    +0.305 C 
BRANCH  17   2
ATOM      2  O   UNL     1      -5.594   3.872  25.223  0.00  0.00    -0.481 OA
ATOM     30  H   UNL     1      -5.616   4.564  24.528  0.00  0.00    +0.295 HD
ENDBRANCH  17   2
ENDBRANCH  13  17
ENDBRANCH   8  13
TORSDOF 6
ENDMDL
MODEL 2
REMARK VINA RESULT:       0.4      2.593      6.289
REMARK  Name = 51136741
REMARK  9 active torsions:
REMARK  status: ('A' for Active; 'I' for Inactive)
REMARK    1  A    between atoms: O_2  and  C_17
REMARK    2  A    between atoms: N_6  and  C_22
REMARK    3  A    between atoms: C_7  and  C_12
REMARK    4  A    between atoms: C_8  and  C_13
REMARK    5  A    between atoms: C_12  and  C_14
REMARK    6  A    between atoms: C_13  and  C_17
REMARK    7  A    between atoms: C_22  and  C_26
REMARK    8  A    between atoms: C_22  and  C_27
REMARK    9  A    between atoms: C_24  and  C_28
REMARK                            x       y       z     vdW  Elec       q    Type
REMARK                         _______ _______ _______ _____ _____    ______ ____
ROOT
ATOM      1  O   UNL     1      -1.827  -2.957  23.597  0.00  0.00    -0.253 OA
ATOM      4  N   UNL     1      -0.513  -1.343  24.620  0.00  0.00    -0.285 N 
ATOM      6  N   UNL     1      -2.852  -1.423  24.959  0.00  0.00    -0.297 N 
ATOM      7  C   UNL     1       0.314   0.992  24.708  0.00  0.00    +0.016 C 
ATOM      8  C   UNL     1       1.619   0.519  24.016  0.00  0.00    +0.006 C 
ATOM      9  C   UNL     1       1.395  -0.757  23.184  0.00  0.00    +0.023 C 
ATOM     10  C   UNL     1      -0.308  -0.176  25.491  0.00  0.00    +0.113 C 
ATOM     11  C   UNL     1       0.716  -1.850  24.008  0.00  0.00    +0.109 C 
ATOM     15  C   UNL     1      -1.736  -1.977  24.343  0.00  0.00    +0.302 C 
ATOM     29  H   UNL     1      -2.793  -0.534  25.437  0.00  0.00    +0.150 HD
ENDROOT
BRANCH   6  22
ATOM     22  C   UNL     1      -4.181  -1.958  24.766  0.00  0.00    +0.068 C 
ATOM     26  C   UNL     1      -4.131  -3.478  24.671  0.00  0.00    +0.027 C 
ATOM     27  C   UNL     1      -4.829  -1.348  23.529  0.00  0.00    +0.027 C 
ENDBRANCH   6  22
BRANCH   7  12
ATOM     12  C   UNL     1      -0.715   1.602  23.749  0.00  0.00    +0.061 C 
BRANCH  12  14
ATOM      5  N   UNL     1      -0.352   3.893  24.375  0.00  0.00    -0.287 NA
ATOM     14  C   UNL     1      -1.203   2.924  24.292  0.00  0.00    +0.044 C 
ATOM     16  C   UNL     1      -2.627   3.049  24.694  0.00  0.00    -0.001 A 
ATOM     18  C   UNL     1      -3.136   4.349  24.817  0.00  0.00    -0.037 A 
ATOM     19  C   UNL     1      -2.229   5.508  24.526  0.00  0.00    +0.059 C 
ATOM     20  C   UNL     1      -0.811   5.158  24.957  0.00  0.00    +0.146 C 
ATOM     21  C   UNL     1      -3.446   1.943  24.928  0.00  0.00    +0.013 A 
ATOM     23  C   UNL     1      -4.480   4.535  25.153  0.00  0.00    +0.004 A 
ATOM     24  C   UNL     1      -4.783   2.140  25.279  0.00  0.00    -0.050 A 
ATOM     25  C   UNL     1      -5.299   3.431  25.388  0.00  0.00    +0.003 A 
ATOM     28  C   UNL     1      -5.664   0.964  25.534  0.00  0.00    +0.044 C 
ENDBRANCH  12  14
ENDBRANCH   7  12
BRANCH   8  13
ATOM     13  C   UNL     1       2.278   1.607  23.168  0.00  0.00    +0.124 C 
BRANCH  13  17
ATOM      3  O   UNL     1       4.657   1.110  23.346  0.00  0.00    -0.251 OA
ATOM     17  C   UNL     1       3.636   1.184  22.679  0.00  0.00    +0.305 C 
BRANCH  17   2
ATOM      2  O   UNL     1       3.574   0.887  21.356  0.00  0.00    -0.481 OA
ATOM     30  H   UNL     1       3.882  -0.026  21.172  0.00  0.00    +0.295 HD
ENDBRANCH  17   2
ENDBRANCH  13  17
ENDBRANCH   8  13
TORSDOF 6
ENDMDL
MODEL 3
REMARK VINA RESULT:       1.0      2.707      6.113
REMARK  Name = 51136741
REMARK  9 active torsions:
REMARK  status: ('A' for Active; 'I' for Inactive)
REMARK    1  A    between atoms: O_2  and  C_17
REMARK    2  A    between atoms: N_6  and  C_22
REMARK    3  A    between atoms: C_7  and  C_12
REMARK    4  A    between atoms: C_8  and  C_13
REMARK    5  A    between atoms: C_12  and  C_14
REMARK    6  A    between atoms: C_13  and  C_17
REMARK    7  A    between atoms: C_22  and  C_26
REMARK    8  A    between atoms: C_22  and  C_27
REMARK    9  A    between atoms: C_24  and  C_28
REMARK                            x       y       z     vdW  Elec       q    Type
REMARK                         _______ _______ _______ _____ _____    ______ ____
ROOT
ATOM      1  O   UNL     1      -1.416  -3.244  24.357  0.00  0.00    -0.253 OA
ATOM      4  N   UNL     1      -0.443  -1.220  24.937  0.00  0.00    -0.285 N 
ATOM      6  N   UNL     1      -2.784  -1.540  25.052  0.00  0.00    -0.297 N 
ATOM      7  C   UNL     1       0.100   1.128  24.359  0.00  0.00    +0.016 C 
ATOM      8  C   UNL     1       1.534   0.667  23.986  0.00  0.00    +0.006 C 
ATOM      9  C   UNL     1       1.570  -0.819  23.586  0.00  0.00    +0.023 C 
ATOM     10  C   UNL     1      -0.492   0.173  25.408  0.00  0.00    +0.113 C 
ATOM     11  C   UNL     1       0.907  -1.700  24.643  0.00  0.00    +0.109 C 
ATOM     15  C   UNL     1      -1.538  -2.082  24.757  0.00  0.00    +0.302 C 
ATOM     29  H   UNL     1      -2.890  -0.550  25.225  0.00  0.00    +0.150 HD
ENDROOT
BRANCH   6  22
ATOM     22  C   UNL     1      -4.006  -2.299  24.909  0.00  0.00    +0.068 C 
ATOM     26  C   UNL     1      -3.770  -3.756  25.286  0.00  0.00    +0.027 C 
ATOM     27  C   UNL     1      -4.549  -2.176  23.491  0.00  0.00    +0.027 C 
ENDBRANCH   6  22
BRANCH   7  12
ATOM     12  C   UNL     1      -0.845   1.260  23.160  0.00  0.00    +0.061 C 
BRANCH  12  14
ATOM      5  N   UNL     1      -3.193   0.803  23.377  0.00  0.00    -0.287 NA
ATOM     14  C   UNL     1      -2.231   1.626  23.635  0.00  0.00    +0.044 C 
ATOM     16  C   UNL     1      -2.419   2.899  24.376  0.00  0.00    -0.001 A 
ATOM     18  C   UNL     1      -3.596   3.024  25.125  0.00  0.00    -0.037 A 
ATOM     19  C   UNL     1      -4.565   1.879  25.141  0.00  0.00    +0.059 C 
ATOM     20  C   UNL     1      -4.548   1.186  23.786  0.00  0.00    +0.146 C 
ATOM     21  C   UNL     1      -1.479   3.931  24.357  0.00  0.00    +0.013 A 
ATOM     23  C   UNL     1      -3.815   4.181  25.878  0.00  0.00    +0.004 A 
ATOM     24  C   UNL     1      -1.714   5.089  25.098  0.00  0.00    -0.050 A 
ATOM     25  C   UNL     1      -2.877   5.213  25.859  0.00  0.00    +0.003 A 
ATOM     28  C   UNL     1      -0.716   6.198  25.082  0.00  0.00    +0.044 C 
ENDBRANCH  12  14
ENDBRANCH   7  12
BRANCH   8  13
ATOM     13  C   UNL     1       2.181   1.533  22.905  0.00  0.00    +0.124 C 
BRANCH  13  17
ATOM      3  O   UNL     1       4.528   1.013  23.307  0.00  0.00    -0.251 OA
ATOM     17  C   UNL     1       3.563   1.050  22.559  0.00  0.00    +0.305 C 
BRANCH  17   2
ATOM      2  O   UNL     1       3.595   0.645  21.263  0.00  0.00    -0.481 OA
ATOM     30  H   UNL     1       4.152  -0.153  21.143  0.00  0.00    +0.295 HD
ENDBRANCH  17   2
ENDBRANCH  13  17
ENDBRANCH   8  13
TORSDOF 6
ENDMDL
MODEL 4
REMARK VINA RESULT:       1.3      2.376      5.214
REMARK  Name = 51136741
REMARK  9 active torsions:
REMARK  status: ('A' for Active; 'I' for Inactive)
REMARK    1  A    between atoms: O_2  and  C_17
REMARK    2  A    between atoms: N_6  and  C_22
REMARK    3  A    between atoms: C_7  and  C_12
REMARK    4  A    between atoms: C_8  and  C_13
REMARK    5  A    between atoms: C_12  and  C_14
REMARK    6  A    between atoms: C_13  and  C_17
REMARK    7  A    between atoms: C_22  and  C_26
REMARK    8  A    between atoms: C_22  and  C_27
REMARK    9  A    between atoms: C_24  and  C_28
REMARK                            x       y       z     vdW  Elec       q    Type
REMARK                         _______ _______ _______ _____ _____    ______ ____
ROOT
ATOM      1  O   UNL     1       3.086  -1.416  23.448  0.00  0.00    -0.253 OA
ATOM      4  N   UNL     1       0.968  -0.589  22.992  0.00  0.00    -0.285 N 
ATOM      6  N   UNL     1       2.867   0.820  22.993  0.00  0.00    -0.297 N 
ATOM      7  C   UNL     1      -1.047   0.643  23.743  0.00  0.00    +0.016 C 
ATOM      8  C   UNL     1      -1.747  -0.720  23.985  0.00  0.00    +0.006 C 
ATOM      9  C   UNL     1      -0.730  -1.845  24.248  0.00  0.00    +0.023 C 
ATOM     10  C   UNL     1       0.025   0.486  22.651  0.00  0.00    +0.113 C 
ATOM     11  C   UNL     1       0.340  -1.900  23.159  0.00  0.00    +0.109 C 
ATOM     15  C   UNL     1       2.357  -0.461  23.161  0.00  0.00    +0.302 C 
ATOM     29  H   UNL     1       2.251   1.618  22.915  0.00  0.00    +0.150 HD
ENDROOT
BRANCH   6  22
ATOM     22  C   UNL     1       4.275   1.113  23.141  0.00  0.00    +0.068 C 
ATOM     26  C   UNL     1       5.072   0.463  22.019  0.00  0.00    +0.027 C 
ATOM     27  C   UNL     1       4.774   0.660  24.508  0.00  0.00    +0.027 C 
ENDBRANCH   6  22
BRANCH   7  12
ATOM     12  C   UNL     1      -0.440   1.265  25.005  0.00  0.00    +0.061 C 
BRANCH  12  14
ATOM      5  N   UNL     1       0.060   3.608  25.190  0.00  0.00    -0.287 NA
ATOM     14  C   UNL     1      -0.866   2.710  25.123  0.00  0.00    +0.044 C 
ATOM     16  C   UNL     1      -2.317   3.026  25.148  0.00  0.00    -0.001 A 
ATOM     18  C   UNL     1      -2.678   4.350  24.868  0.00  0.00    -0.037 A 
ATOM     19  C   UNL     1      -1.596   5.341  24.553  0.00  0.00    +0.059 C 
ATOM     20  C   UNL     1      -0.353   5.004  25.365  0.00  0.00    +0.146 C 
ATOM     21  C   UNL     1      -3.295   2.068  25.418  0.00  0.00    +0.013 A 
ATOM     23  C   UNL     1      -4.030   4.705  24.835  0.00  0.00    +0.004 A 
ATOM     24  C   UNL     1      -4.641   2.435  25.400  0.00  0.00    -0.050 A 
ATOM     25  C   UNL     1      -5.008   3.748  25.106  0.00  0.00    +0.003 A 
ATOM     28  C   UNL     1      -5.693   1.417  25.690  0.00  0.00    +0.044 C 
ENDBRANCH  12  14
ENDBRANCH   7  12
BRANCH   8  13
ATOM     13  C   UNL     1      -2.795  -0.668  25.097  0.00  0.00    +0.124 C 
BRANCH  13  17
ATOM      3  O   UNL     1      -3.634  -2.882  25.677  0.00  0.00    -0.251 OA
ATOM     17  C   UNL     1      -3.728  -1.846  25.036  0.00  0.00    +0.305 C 
BRANCH  17   2
ATOM      2  O   UNL     1      -4.723  -1.596  24.146  0.00  0.00    -0.481 OA
ATOM     30  H   UNL     1      -4.780  -2.292  23.457  0.00  0.00    +0.295 HD
ENDBRANCH  17   2
ENDBRANCH  13  17
ENDBRANCH   8  13
TORSDOF 6
ENDMDL
MODEL 5
REMARK VINA RESULT:       1.6      1.480      5.520
REMARK  Name = 51136741
REMARK  9 active torsions:
REMARK  status: ('A' for Active; 'I' for Inactive)
REMARK    1  A    between atoms: O_2  and  C_17
REMARK    2  A    between atoms: N_6  and  C_22
REMARK    3  A    between atoms: C_7  and  C_12
REMARK    4  A    between atoms: C_8  and  C_13
REMARK    5  A    between atoms: C_12  and  C_14
REMARK    6  A    between atoms: C_13  and  C_17
REMARK    7  A    between atoms: C_22  and  C_26
REMARK    8  A    between atoms: C_22  and  C_27
REMARK    9  A    between atoms: C_24  and  C_28
REMARK                            x       y       z     vdW  Elec       q    Type
REMARK                         _______ _______ _______ _____ _____    ______ ____
ROOT
ATOM      1  O   UNL     1      -3.127   4.969  26.231  0.00  0.00    -0.253 OA
ATOM      4  N   UNL     1      -2.050   3.734  24.590  0.00  0.00    -0.285 N 
ATOM      6  N   UNL     1      -4.194   3.126  25.381  0.00  0.00    -0.297 N 
ATOM      7  C   UNL     1      -0.745   1.728  23.942  0.00  0.00    +0.016 C 
ATOM      8  C   UNL     1       0.541   2.595  23.986  0.00  0.00    +0.006 C 
ATOM      9  C   UNL     1       0.384   3.804  24.926  0.00  0.00    +0.023 C 
ATOM     10  C   UNL     1      -1.959   2.622  23.632  0.00  0.00    +0.113 C 
ATOM     11  C   UNL     1      -0.875   4.606  24.601  0.00  0.00    +0.109 C 
ATOM     15  C   UNL     1      -3.125   4.011  25.452  0.00  0.00    +0.302 C 
ATOM     29  H   UNL     1      -4.119   2.262  24.861  0.00  0.00    +0.150 HD
ENDROOT
BRANCH   6  22
ATOM     22  C   UNL     1      -5.370   3.273  26.210  0.00  0.00    +0.068 C 
ATOM     26  C   UNL     1      -6.153   1.968  26.252  0.00  0.00    +0.027 C 
ATOM     27  C   UNL     1      -6.236   4.422  25.710  0.00  0.00    +0.027 C 
ENDBRANCH   6  22
BRANCH   7  12
ATOM     12  C   UNL     1      -0.992   0.913  25.216  0.00  0.00    +0.061 C 
BRANCH  12  14
ATOM      5  N   UNL     1      -0.107  -1.284  24.814  0.00  0.00    -0.287 NA
ATOM     14  C   UNL     1      -1.166  -0.546  24.866  0.00  0.00    +0.044 C 
ATOM     16  C   UNL     1      -2.536  -1.060  24.609  0.00  0.00    -0.001 A 
ATOM     18  C   UNL     1      -2.710  -2.449  24.674  0.00  0.00    -0.037 A 
ATOM     19  C   UNL     1      -1.527  -3.309  25.007  0.00  0.00    +0.059 C 
ATOM     20  C   UNL     1      -0.269  -2.687  24.416  0.00  0.00    +0.146 C 
ATOM     21  C   UNL     1      -3.617  -0.223  24.329  0.00  0.00    +0.013 A 
ATOM     23  C   UNL     1      -3.983  -2.994  24.482  0.00  0.00    +0.004 A 
ATOM     24  C   UNL     1      -4.881  -0.778  24.122  0.00  0.00    -0.050 A 
ATOM     25  C   UNL     1      -5.064  -2.158  24.202  0.00  0.00    +0.003 A 
ATOM     28  C   UNL     1      -6.041   0.109  23.821  0.00  0.00    +0.044 C 
ENDBRANCH  12  14
ENDBRANCH   7  12
BRANCH   8  13
ATOM     13  C   UNL     1       1.793   1.793  24.342  0.00  0.00    +0.124 C 
BRANCH  13  17
ATOM      3  O   UNL     1       1.627   0.141  22.557  0.00  0.00    -0.251 OA
ATOM     17  C   UNL     1       2.275   0.970  23.179  0.00  0.00    +0.305 C 
BRANCH  17   2
ATOM      2  O   UNL     1       3.568   1.280  22.903  0.00  0.00    -0.481 OA
ATOM     30  H   UNL     1       4.069   1.513  23.713  0.00  0.00    +0.295 HD
ENDBRANCH  17   2
ENDBRANCH  13  17
ENDBRANCH   8  13
TORSDOF 6
ENDMDL
MODEL 6
REMARK VINA RESULT:       2.0      1.875      5.056
REMARK  Name = 51136741
REMARK  9 active torsions:
REMARK  status: ('A' for Active; 'I' for Inactive)
REMARK    1  A    between atoms: O_2  and  C_17
REMARK    2  A    between atoms: N_6  and  C_22
REMARK    3  A    between atoms: C_7  and  C_12
REMARK    4  A    between atoms: C_8  and  C_13
REMARK    5  A    between atoms: C_12  and  C_14
REMARK    6  A    between atoms: C_13  and  C_17
REMARK    7  A    between atoms: C_22  and  C_26
REMARK    8  A    between atoms: C_22  and  C_27
REMARK    9  A    between atoms: C_24  and  C_28
REMARK                            x       y       z     vdW  Elec       q    Type
REMARK                         _______ _______ _______ _____ _____    ______ ____
ROOT
ATOM      1  O   UNL     1      -1.659   5.245  25.354  0.00  0.00    -0.253 OA
ATOM      4  N   UNL     1      -1.281   3.482  23.896  0.00  0.00    -0.285 N 
ATOM      6  N   UNL     1      -3.366   3.762  24.975  0.00  0.00    -0.297 N 
ATOM      7  C   UNL     1      -0.787   1.079  23.538  0.00  0.00    +0.016 C 
ATOM      8  C   UNL     1       0.699   1.457  23.299  0.00  0.00    +0.006 C 
ATOM      9  C   UNL     1       1.072   2.777  23.997  0.00  0.00    +0.023 C 
ATOM     10  C   UNL     1      -1.687   2.270  23.169  0.00  0.00    +0.113 C 
ATOM     11  C   UNL     1       0.098   3.897  23.635  0.00  0.00    +0.109 C 
ATOM     15  C   UNL     1      -2.074   4.234  24.779  0.00  0.00    +0.302 C 
ATOM     29  H   UNL     1      -3.645   2.855  24.628  0.00  0.00    +0.150 HD
ENDROOT
BRANCH   6  22
ATOM     22  C   UNL     1      -4.300   4.423  25.860  0.00  0.00    +0.068 C 
ATOM     26  C   UNL     1      -3.880   4.229  27.311  0.00  0.00    +0.027 C 
ATOM     27  C   UNL     1      -5.715   3.913  25.621  0.00  0.00    +0.027 C 
ENDBRANCH   6  22
BRANCH   7  12
ATOM     12  C   UNL     1      -1.088   0.601  24.963  0.00  0.00    +0.061 C 
BRANCH  12  14
ATOM      5  N   UNL     1      -3.341   1.048  25.665  0.00  0.00    -0.287 NA
ATOM     14  C   UNL     1      -2.544   0.217  25.079  0.00  0.00    +0.044 C 
ATOM     16  C   UNL     1      -2.987  -1.083  24.513  0.00  0.00    -0.001 A 
ATOM     18  C   UNL     1      -4.361  -1.236  24.288  0.00  0.00    -0.037 A 
ATOM     19  C   UNL     1      -5.277  -0.093  24.614  0.00  0.00    +0.059 C 
ATOM     20  C   UNL     1      -4.743   0.649  25.831  0.00  0.00    +0.146 C 
ATOM     21  C   UNL     1      -2.099  -2.112  24.198  0.00  0.00    +0.013 A 
ATOM     23  C   UNL     1      -4.839  -2.420  23.719  0.00  0.00    +0.004 A 
ATOM     24  C   UNL     1      -2.587  -3.297  23.646  0.00  0.00    -0.050 A 
ATOM     25  C   UNL     1      -3.952  -3.449  23.404  0.00  0.00    +0.003 A 
ATOM     28  C   UNL     1      -1.645  -4.403  23.307  0.00  0.00    +0.044 C 
ENDBRANCH  12  14
ENDBRANCH   7  12
BRANCH   8  13
ATOM     13  C   UNL     1       1.672   0.345  23.693  0.00  0.00    +0.124 C 
BRANCH  13  17
ATOM      3  O   UNL     1       4.003   0.343  22.980  0.00  0.00    -0.251 OA
ATOM     17  C   UNL     1       2.814   0.235  22.720  0.00  0.00    +0.305 C 
BRANCH  17   2
ATOM      2  O   UNL     1       2.332  -0.008  21.474  0.00  0.00    -0.481 OA
ATOM     30  H   UNL     1       1.359   0.106  21.430  0.00  0.00    +0.295 HD
ENDBRANCH  17   2
ENDBRANCH  13  17
ENDBRANCH   8  13
TORSDOF 6
ENDMDL
MODEL 7
REMARK VINA RESULT:       2.1      2.287      6.306
REMARK  Name = 51136741
REMARK  9 active torsions:
REMARK  status: ('A' for Active; 'I' for Inactive)
REMARK    1  A    between atoms: O_2  and  C_17
REMARK    2  A    between atoms: N_6  and  C_22
REMARK    3  A    between atoms: C_7  and  C_12
REMARK    4  A    between atoms: C_8  and  C_13
REMARK    5  A    between atoms: C_12  and  C_14
REMARK    6  A    between atoms: C_13  and  C_17
REMARK    7  A    between atoms: C_22  and  C_26
REMARK    8  A    between atoms: C_22  and  C_27
REMARK    9  A    between atoms: C_24  and  C_28
REMARK                            x       y       z     vdW  Elec       q    Type
REMARK                         _______ _______ _______ _____ _____    ______ ____
ROOT
ATOM      1  O   UNL     1      -4.420  -1.810  24.747  0.00  0.00    -0.253 OA
ATOM      4  N   UNL     1      -2.339  -0.812  24.977  0.00  0.00    -0.285 N 
ATOM      6  N   UNL     1      -4.336   0.427  25.240  0.00  0.00    -0.297 N 
ATOM      7  C   UNL     1      -0.538   0.605  24.033  0.00  0.00    +0.016 C 
ATOM      8  C   UNL     1       0.240  -0.687  23.670  0.00  0.00    +0.006 C 
ATOM      9  C   UNL     1      -0.703  -1.891  23.494  0.00  0.00    +0.023 C 
ATOM     10  C   UNL     1      -1.455   0.334  25.237  0.00  0.00    +0.113 C 
ATOM     11  C   UNL     1      -1.627  -2.060  24.698  0.00  0.00    +0.109 C 
ATOM     15  C   UNL     1      -3.744  -0.802  24.975  0.00  0.00    +0.302 C 
ATOM     29  H   UNL     1      -3.784   1.274  25.269  0.00  0.00    +0.150 HD
ENDROOT
BRANCH   6  22
ATOM     22  C   UNL     1      -5.771   0.600  25.266  0.00  0.00    +0.068 C 
ATOM     26  C   UNL     1      -6.239   1.330  24.013  0.00  0.00    +0.027 C 
ATOM     27  C   UNL     1      -6.198   1.339  26.528  0.00  0.00    +0.027 C 
ENDBRANCH   6  22
BRANCH   7  12
ATOM     12  C   UNL     1      -1.341   1.197  22.870  0.00  0.00    +0.061 C 
BRANCH  12  14
ATOM      5  N   UNL     1      -3.117   2.788  22.577  0.00  0.00    -0.287 NA
ATOM     14  C   UNL     1      -2.195   2.340  23.364  0.00  0.00    +0.044 C 
ATOM     16  C   UNL     1      -1.942   2.885  24.722  0.00  0.00    -0.001 A 
ATOM     18  C   UNL     1      -2.966   3.652  25.295  0.00  0.00    -0.037 A 
ATOM     19  C   UNL     1      -4.233   3.856  24.518  0.00  0.00    +0.059 C 
ATOM     20  C   UNL     1      -3.907   3.937  23.033  0.00  0.00    +0.146 C 
ATOM     21  C   UNL     1      -0.759   2.649  25.423  0.00  0.00    +0.013 A 
ATOM     23  C   UNL     1      -2.808   4.160  26.587  0.00  0.00    +0.004 A 
ATOM     24  C   UNL     1      -0.603   3.175  26.707  0.00  0.00    -0.050 A 
ATOM     25  C   UNL     1      -1.625   3.925  27.288  0.00  0.00    +0.003 A 
ATOM     28  C   UNL     1       0.660   2.929  27.462  0.00  0.00    +0.044 C 
ENDBRANCH  12  14
ENDBRANCH   7  12
BRANCH   8  13
ATOM     13  C   UNL     1       1.140  -0.523  22.445  0.00  0.00    +0.124 C 
BRANCH  13  17
ATOM      3  O   UNL     1       3.549  -0.586  22.808  0.00  0.00    -0.251 OA
ATOM     17  C   UNL     1       2.491   0.024  22.817  0.00  0.00    +0.305 C 
BRANCH  17   2
ATOM      2  O   UNL     1       2.374   1.328  23.176  0.00  0.00    -0.481 OA
ATOM     30  H   UNL     1       1.439   1.625  23.174  0.00  0.00    +0.295 HD
ENDBRANCH  17   2
ENDBRANCH  13  17
ENDBRANCH   8  13
TORSDOF 6
ENDMDL
MODEL 8
REMARK VINA RESULT:       2.8      1.765      5.209
REMARK  Name = 51136741
REMARK  9 active torsions:
REMARK  status: ('A' for Active; 'I' for Inactive)
REMARK    1  A    between atoms: O_2  and  C_17
REMARK    2  A    between atoms: N_6  and  C_22
REMARK    3  A    between atoms: C_7  and  C_12
REMARK    4  A    between atoms: C_8  and  C_13
REMARK    5  A    between atoms: C_12  and  C_14
REMARK    6  A    between atoms: C_13  and  C_17
REMARK    7  A    between atoms: C_22  and  C_26
REMARK    8  A    between atoms: C_22  and  C_27
REMARK    9  A    between atoms: C_24  and  C_28
REMARK                            x       y       z     vdW  Elec       q    Type
REMARK                         _______ _______ _______ _____ _____    ______ ____
ROOT
ATOM      1  O   UNL     1      -5.119   4.460  25.945  0.00  0.00    -0.253 OA
ATOM      4  N   UNL     1      -3.308   3.828  24.641  0.00  0.00    -0.285 N 
ATOM      6  N   UNL     1      -5.293   2.544  24.699  0.00  0.00    -0.297 N 
ATOM      7  C   UNL     1      -1.327   2.378  24.302  0.00  0.00    +0.016 C 
ATOM      8  C   UNL     1      -0.432   3.547  24.790  0.00  0.00    +0.006 C 
ATOM      9  C   UNL     1      -1.203   4.512  25.709  0.00  0.00    +0.023 C 
ATOM     10  C   UNL     1      -2.621   2.940  23.691  0.00  0.00    +0.113 C 
ATOM     11  C   UNL     1      -2.507   4.977  25.064  0.00  0.00    +0.109 C 
ATOM     15  C   UNL     1      -4.609   3.667  25.147  0.00  0.00    +0.302 C 
ATOM     29  H   UNL     1      -4.817   1.822  24.175  0.00  0.00    +0.150 HD
ENDROOT
BRANCH   6  22
ATOM     22  C   UNL     1      -6.637   2.237  25.135  0.00  0.00    +0.068 C 
ATOM     26  C   UNL     1      -6.603   1.473  26.453  0.00  0.00    +0.027 C 
ATOM     27  C   UNL     1      -7.382   1.454  24.061  0.00  0.00    +0.027 C 
ENDBRANCH   6  22
BRANCH   7  12
ATOM     12  C   UNL     1      -1.650   1.345  25.387  0.00  0.00    +0.061 C 
BRANCH  12  14
ATOM      5  N   UNL     1       0.072  -0.250  24.878  0.00  0.00    -0.287 NA
ATOM     14  C   UNL     1      -1.199  -0.026  24.943  0.00  0.00    +0.044 C 
ATOM     16  C   UNL     1      -2.229  -1.044  24.612  0.00  0.00    -0.001 A 
ATOM     18  C   UNL     1      -1.808  -2.380  24.585  0.00  0.00    -0.037 A 
ATOM     19  C   UNL     1      -0.374  -2.690  24.901  0.00  0.00    +0.059 C 
ATOM     20  C   UNL     1       0.510  -1.562  24.389  0.00  0.00    +0.146 C 
ATOM     21  C   UNL     1      -3.560  -0.716  24.351  0.00  0.00    +0.013 A 
ATOM     23  C   UNL     1      -2.736  -3.391  24.320  0.00  0.00    +0.004 A 
ATOM     24  C   UNL     1      -4.476  -1.730  24.071  0.00  0.00    -0.050 A 
ATOM     25  C   UNL     1      -4.067  -3.064  24.059  0.00  0.00    +0.003 A 
ATOM     28  C   UNL     1      -5.900  -1.389  23.789  0.00  0.00    +0.044 C 
ENDBRANCH  12  14
ENDBRANCH   7  12
BRANCH   8  13
ATOM     13  C   UNL     1       0.858   3.077  25.463  0.00  0.00    +0.124 C 
BRANCH  13  17
ATOM      3  O   UNL     1      -0.430   2.412  27.423  0.00  0.00    -0.251 OA
ATOM     17  C   UNL     1       0.633   2.722  26.908  0.00  0.00    +0.305 C 
BRANCH  17   2
ATOM      2  O   UNL     1       1.808   2.795  27.585  0.00  0.00    -0.481 OA
ATOM     30  H   UNL     1       2.403   3.479  27.211  0.00  0.00    +0.295 HD
ENDBRANCH  17   2
ENDBRANCH  13  17
ENDBRANCH   8  13
TORSDOF 6
ENDMDL
MODEL 9
REMARK VINA RESULT:       3.0      1.454      2.702
REMARK  Name = 51136741
REMARK  9 active torsions:
REMARK  status: ('A' for Active; 'I' for Inactive)
REMARK    1  A    between atoms: O_2  and  C_17
REMARK    2  A    between atoms: N_6  and  C_22
REMARK    3  A    between atoms: C_7  and  C_12
REMARK    4  A    between atoms: C_8  and  C_13
REMARK    5  A    between atoms: C_12  and  C_14
REMARK    6  A    between atoms: C_13  and  C_17
REMARK    7  A    between atoms: C_22  and  C_26
REMARK    8  A    between atoms: C_22  and  C_27
REMARK    9  A    between atoms: C_24  and  C_28
REMARK                            x       y       z     vdW  Elec       q    Type
REMARK                         _______ _______ _______ _____ _____    ______ ____
ROOT
ATOM      1  O   UNL     1       1.069   3.832  22.893  0.00  0.00    -0.253 OA
ATOM      4  N   UNL     1      -0.075   3.368  24.856  0.00  0.00    -0.285 N 
ATOM      6  N   UNL     1       1.252   1.729  23.787  0.00  0.00    -0.297 N 
ATOM      7  C   UNL     1      -2.012   2.329  26.001  0.00  0.00    +0.016 C 
ATOM      8  C   UNL     1      -2.678   3.728  26.068  0.00  0.00    +0.006 C 
ATOM      9  C   UNL     1      -2.164   4.659  24.955  0.00  0.00    +0.023 C 
ATOM     10  C   UNL     1      -0.482   2.487  25.961  0.00  0.00    +0.113 C 
ATOM     11  C   UNL     1      -0.638   4.717  24.934  0.00  0.00    +0.109 C 
ATOM     15  C   UNL     1       0.771   3.033  23.786  0.00  0.00    +0.302 C 
ATOM     29  H   UNL     1       0.882   1.040  24.428  0.00  0.00    +0.150 HD
ENDROOT
BRANCH   6  22
ATOM     22  C   UNL     1       2.127   1.231  22.749  0.00  0.00    +0.068 C 
ATOM     26  C   UNL     1       1.625  -0.111  22.234  0.00  0.00    +0.027 C 
ATOM     27  C   UNL     1       3.558   1.127  23.261  0.00  0.00    +0.027 C 
ENDBRANCH   6  22
BRANCH   7  12
ATOM     12  C   UNL     1      -2.492   1.464  24.831  0.00  0.00    +0.061 C 
BRANCH  12  14
ATOM      5  N   UNL     1      -0.481   0.166  25.037  0.00  0.00    -0.287 NA
ATOM     14  C   UNL     1      -1.756   0.145  24.830  0.00  0.00    +0.044 C 
ATOM     16  C   UNL     1      -2.528  -1.103  24.600  0.00  0.00    -0.001 A 
ATOM     18  C   UNL     1      -1.914  -2.303  24.983  0.00  0.00    -0.037 A 
ATOM     19  C   UNL     1      -0.549  -2.248  25.602  0.00  0.00    +0.059 C 
ATOM     20  C   UNL     1       0.243  -1.108  24.976  0.00  0.00    +0.146 C 
ATOM     21  C   UNL     1      -3.809  -1.109  24.046  0.00  0.00    +0.013 A 
ATOM     23  C   UNL     1      -2.603  -3.510  24.832  0.00  0.00    +0.004 A 
ATOM     24  C   UNL     1      -4.483  -2.320  23.883  0.00  0.00    -0.050 A 
ATOM     25  C   UNL     1      -3.883  -3.516  24.278  0.00  0.00    +0.003 A 
ATOM     28  C   UNL     1      -5.851  -2.336  23.290  0.00  0.00    +0.044 C 
ENDBRANCH  12  14
ENDBRANCH   7  12
BRANCH   8  13
ATOM     13  C   UNL     1      -4.206   3.667  26.058  0.00  0.00    +0.124 C 
BRANCH  13  17
ATOM      3  O   UNL     1      -4.375   3.643  23.626  0.00  0.00    -0.251 OA
ATOM     17  C   UNL     1      -4.735   3.231  24.719  0.00  0.00    +0.305 C 
BRANCH  17   2
ATOM      2  O   UNL     1      -5.697   2.289  24.891  0.00  0.00    -0.481 OA
ATOM     30  H   UNL     1      -6.210   2.437  25.714  0.00  0.00    +0.295 HD
ENDBRANCH  17   2
ENDBRANCH  13  17
ENDBRANCH   8  13
TORSDOF 6
ENDMDL
MODEL 10
REMARK VINA RESULT:       3.1      2.077      5.660
REMARK  Name = 51136741
REMARK  9 active torsions:
REMARK  status: ('A' for Active; 'I' for Inactive)
REMARK    1  A    between atoms: O_2  and  C_17
REMARK    2  A    between atoms: N_6  and  C_22
REMARK    3  A    between atoms: C_7  and  C_12
REMARK    4  A    between atoms: C_8  and  C_13
REMARK    5  A    between atoms: C_12  and  C_14
REMARK    6  A    between atoms: C_13  and  C_17
REMARK    7  A    between atoms: C_22  and  C_26
REMARK    8  A    between atoms: C_22  and  C_27
REMARK    9  A    between atoms: C_24  and  C_28
REMARK                            x       y       z     vdW  Elec       q    Type
REMARK                         _______ _______ _______ _____ _____    ______ ____
ROOT
ATOM      1  O   UNL     1       0.183   4.355  25.423  0.00  0.00    -0.253 OA
ATOM      4  N   UNL     1       0.096   2.700  23.801  0.00  0.00    -0.285 N 
ATOM      6  N   UNL     1      -1.801   3.251  25.102  0.00  0.00    -0.297 N 
ATOM      7  C   UNL     1       0.092   0.293  23.208  0.00  0.00    +0.016 C 
ATOM      8  C   UNL     1       1.597   0.415  22.852  0.00  0.00    +0.006 C 
ATOM      9  C   UNL     1       2.272   1.572  23.611  0.00  0.00    +0.023 C 
ATOM     10  C   UNL     1      -0.593   1.658  23.025  0.00  0.00    +0.113 C 
ATOM     11  C   UNL     1       1.502   2.880  23.436  0.00  0.00    +0.109 C 
ATOM     15  C   UNL     1      -0.463   3.496  24.815  0.00  0.00    +0.302 C 
ATOM     29  H   UNL     1      -2.275   2.446  24.714  0.00  0.00    +0.150 HD
ENDROOT
BRANCH   6  22
ATOM     22  C   UNL     1      -2.514   3.983  26.124  0.00  0.00    +0.068 C 
ATOM     26  C   UNL     1      -3.862   3.329  26.399  0.00  0.00    +0.027 C 
ATOM     27  C   UNL     1      -2.680   5.442  25.720  0.00  0.00    +0.027 C 
ENDBRANCH   6  22
BRANCH   7  12
ATOM     12  C   UNL     1      -0.175  -0.256  24.613  0.00  0.00    +0.061 C 
BRANCH  12  14
ATOM      5  N   UNL     1      -1.269  -2.391  24.747  0.00  0.00    -0.287 NA
ATOM     14  C   UNL     1      -1.417  -1.115  24.603  0.00  0.00    +0.044 C 
ATOM     16  C   UNL     1      -2.738  -0.458  24.435  0.00  0.00    -0.001 A 
ATOM     18  C   UNL     1      -3.865  -1.201  24.812  0.00  0.00    -0.037 A 
ATOM     19  C   UNL     1      -3.664  -2.583  25.362  0.00  0.00    +0.059 C 
ATOM     20  C   UNL     1      -2.469  -3.230  24.677  0.00  0.00    +0.146 C 
ATOM     21  C   UNL     1      -2.879   0.841  23.944  0.00  0.00    +0.013 A 
ATOM     23  C   UNL     1      -5.135  -0.626  24.717  0.00  0.00    +0.004 A 
ATOM     24  C   UNL     1      -4.153   1.401  23.838  0.00  0.00    -0.050 A 
ATOM     25  C   UNL     1      -5.277   0.672  24.226  0.00  0.00    +0.003 A 
ATOM     28  C   UNL     1      -4.314   2.788  23.312  0.00  0.00    +0.044 C 
ENDBRANCH  12  14
ENDBRANCH   7  12
BRANCH   8  13
ATOM     13  C   UNL     1       2.370  -0.888  23.058  0.00  0.00    +0.124 C 
BRANCH  13  17
ATOM      3  O   UNL     1       4.503   0.212  22.630  0.00  0.00    -0.251 OA
ATOM     17  C   UNL     1       3.846  -0.641  23.209  0.00  0.00    +0.305 C 
BRANCH  17   2
ATOM      2  O   UNL     1       4.369  -1.518  24.104  0.00  0.00    -0.481 OA
ATOM     30  H   UNL     1       5.125  -2.016  23.728  0.00  0.00    +0.295 HD
ENDBRANCH  17   2
ENDBRANCH  13  17
ENDBRANCH   8  13
TORSDOF 6
ENDMDL
