MODEL 1
REMARK VINA RESULT:      -5.2      0.000      0.000
REMARK  Name = 56774050
REMARK  11 active torsions:
REMARK  status: ('A' for Active; 'I' for Inactive)
REMARK    1  A    between atoms: S_1  and  N_5
REMARK    2  A    between atoms: S_1  and  C_16
REMARK    3  A    between atoms: N_5  and  C_9
REMARK    4  A    between atoms: C_7  and  C_12
REMARK    5  A    between atoms: C_7  and  C_13
REMARK    6  A    between atoms: C_8  and  C_11
REMARK    7  A    between atoms: C_11  and  C_14
REMARK    8  A    between atoms: C_17  and  C_18
REMARK    9  A    between atoms: C_18  and  C_19
REMARK   10  A    between atoms: C_18  and  C_20
REMARK   11  A    between atoms: C_18  and  C_21
REMARK                            x       y       z     vdW  Elec       q    Type
REMARK                         _______ _______ _______ _____ _____    ______ ____
ROOT
ATOM      7  C   UNL     1      -1.332   4.076  24.780  0.00  0.00    -0.015 C 
ATOM      8  C   UNL     1      -0.630   3.198  25.837  0.00  0.00    +0.004 C 
ATOM      9  C   UNL     1      -2.594   3.997  25.663  0.00  0.00    +0.082 C 
ATOM     10  C   UNL     1      -2.030   2.672  26.218  0.00  0.00    +0.025 C 
ATOM     12  C   UNL     1      -0.717   5.450  24.633  0.00  0.00    +0.013 C 
ATOM     13  C   UNL     1      -1.522   3.441  23.414  0.00  0.00    +0.013 C 
ENDROOT
BRANCH   9   5
ATOM      5  N   UNL     1      -3.925   3.897  24.968  0.00  0.00    -0.191 NA
ATOM     22  H   UNL     1      -4.024   4.582  24.206  0.00  0.00    +0.148 HD
BRANCH   5   1
ATOM      1  S   UNL     1      -5.397   3.493  25.738  0.00  0.00    +0.027 S 
ATOM      3  O   UNL     1      -6.367   4.546  25.516  0.00  0.00    -0.158 OA
ATOM      4  O   UNL     1      -5.103   3.015  27.074  0.00  0.00    -0.158 OA
ATOM     16  C   UNL     1      -5.880   2.089  24.760  0.00  0.00    +0.214 C 
ENDBRANCH   5   1
ENDBRANCH   9   5
BRANCH   8  11
ATOM     11  C   UNL     1       0.345   2.128  25.330  0.00  0.00    +0.063 C 
BRANCH  11  14
ATOM      2  O   UNL     1      -0.788  -0.888  23.789  0.00  0.00    -0.359 OA
ATOM      6  N   UNL     1       0.115   0.160  23.922  0.00  0.00    -0.083 NA
ATOM     14  C   UNL     1      -0.372   0.912  24.913  0.00  0.00    +0.084 A 
ATOM     15  C   UNL     1      -1.568   0.394  25.438  0.00  0.00    +0.071 A 
ATOM     17  C   UNL     1      -1.785  -0.738  24.698  0.00  0.00    +0.143 A 
BRANCH  17  18
ATOM     18  C   UNL     1      -2.884  -1.815  24.696  0.00  0.00    +0.023 C 
ATOM     19  C   UNL     1      -3.369  -2.065  26.140  0.00  0.00    +0.019 C 
ATOM     20  C   UNL     1      -2.320  -3.130  24.115  0.00  0.00    +0.019 C 
ATOM     21  C   UNL     1      -4.125  -1.441  23.856  0.00  0.00    +0.019 C 
ENDBRANCH  17  18
ENDBRANCH  11  14
ENDBRANCH   8  11
TORSDOF 5
ENDMDL
MODEL 2
REMARK VINA RESULT:      -4.9     16.835     18.930
REMARK  Name = 56774050
REMARK  11 active torsions:
REMARK  status: ('A' for Active; 'I' for Inactive)
REMARK    1  A    between atoms: S_1  and  N_5
REMARK    2  A    between atoms: S_1  and  C_16
REMARK    3  A    between atoms: N_5  and  C_9
REMARK    4  A    between atoms: C_7  and  C_12
REMARK    5  A    between atoms: C_7  and  C_13
REMARK    6  A    between atoms: C_8  and  C_11
REMARK    7  A    between atoms: C_11  and  C_14
REMARK    8  A    between atoms: C_17  and  C_18
REMARK    9  A    between atoms: C_18  and  C_19
REMARK   10  A    between atoms: C_18  and  C_20
REMARK   11  A    between atoms: C_18  and  C_21
REMARK                            x       y       z     vdW  Elec       q    Type
REMARK                         _______ _______ _______ _____ _____    ______ ____
ROOT
ATOM      7  C   UNL     1      13.604  -6.024  31.700  0.00  0.00    -0.015 C 
ATOM      8  C   UNL     1      12.533  -7.103  31.440  0.00  0.00    +0.004 C 
ATOM      9  C   UNL     1      14.011  -6.178  30.220  0.00  0.00    +0.082 C 
ATOM     10  C   UNL     1      13.431  -7.606  30.289  0.00  0.00    +0.025 C 
ATOM     12  C   UNL     1      13.025  -4.681  32.087  0.00  0.00    +0.013 C 
ATOM     13  C   UNL     1      14.713  -6.411  32.663  0.00  0.00    +0.013 C 
ENDROOT
BRANCH   9   5
ATOM      5  N   UNL     1      15.475  -6.086  29.887  0.00  0.00    -0.191 NA
ATOM     22  H   UNL     1      15.921  -5.254  30.298  0.00  0.00    +0.148 HD
BRANCH   5   1
ATOM      1  S   UNL     1      16.170  -6.593  28.409  0.00  0.00    +0.027 S 
ATOM      3  O   UNL     1      17.401  -5.864  28.176  0.00  0.00    -0.158 OA
ATOM      4  O   UNL     1      15.128  -6.644  27.403  0.00  0.00    -0.158 OA
ATOM     16  C   UNL     1      16.596  -8.267  28.827  0.00  0.00    +0.214 C 
ENDBRANCH   5   1
ENDBRANCH   9   5
BRANCH   8  11
ATOM     11  C   UNL     1      12.279  -8.127  32.554  0.00  0.00    +0.063 C 
BRANCH  11  14
ATOM      2  O   UNL     1       9.234  -9.986  32.732  0.00  0.00    -0.359 OA
ATOM      6  N   UNL     1      10.613  -9.870  32.864  0.00  0.00    -0.083 NA
ATOM     14  C   UNL     1      10.888  -8.607  32.526  0.00  0.00    +0.084 A 
ATOM     15  C   UNL     1       9.733  -7.886  32.175  0.00  0.00    +0.071 A 
ATOM     17  C   UNL     1       8.722  -8.797  32.322  0.00  0.00    +0.143 A 
BRANCH  17  18
ATOM     18  C   UNL     1       7.198  -8.739  32.122  0.00  0.00    +0.023 C 
ATOM     19  C   UNL     1       6.531  -9.917  32.864  0.00  0.00    +0.019 C 
ATOM     20  C   UNL     1       6.869  -8.835  30.617  0.00  0.00    +0.019 C 
ATOM     21  C   UNL     1       6.547  -7.441  32.650  0.00  0.00    +0.019 C 
ENDBRANCH  17  18
ENDBRANCH  11  14
ENDBRANCH   8  11
TORSDOF 5
ENDMDL
MODEL 3
REMARK VINA RESULT:      -4.8     16.936     19.012
REMARK  Name = 56774050
REMARK  11 active torsions:
REMARK  status: ('A' for Active; 'I' for Inactive)
REMARK    1  A    between atoms: S_1  and  N_5
REMARK    2  A    between atoms: S_1  and  C_16
REMARK    3  A    between atoms: N_5  and  C_9
REMARK    4  A    between atoms: C_7  and  C_12
REMARK    5  A    between atoms: C_7  and  C_13
REMARK    6  A    between atoms: C_8  and  C_11
REMARK    7  A    between atoms: C_11  and  C_14
REMARK    8  A    between atoms: C_17  and  C_18
REMARK    9  A    between atoms: C_18  and  C_19
REMARK   10  A    between atoms: C_18  and  C_20
REMARK   11  A    between atoms: C_18  and  C_21
REMARK                            x       y       z     vdW  Elec       q    Type
REMARK                         _______ _______ _______ _____ _____    ______ ____
ROOT
ATOM      7  C   UNL     1      13.061  -6.881  31.568  0.00  0.00    -0.015 C 
ATOM      8  C   UNL     1      12.849  -8.404  31.682  0.00  0.00    +0.004 C 
ATOM      9  C   UNL     1      14.497  -7.192  31.096  0.00  0.00    +0.082 C 
ATOM     10  C   UNL     1      14.377  -8.526  31.863  0.00  0.00    +0.025 C 
ATOM     12  C   UNL     1      12.162  -6.221  30.546  0.00  0.00    +0.013 C 
ATOM     13  C   UNL     1      13.021  -6.107  32.873  0.00  0.00    +0.013 C 
ENDROOT
BRANCH   9   5
ATOM      5  N   UNL     1      15.596  -6.274  31.555  0.00  0.00    -0.191 NA
ATOM     22  H   UNL     1      15.685  -6.249  32.581  0.00  0.00    +0.148 HD
BRANCH   5   1
ATOM      1  S   UNL     1      16.030  -4.812  30.781  0.00  0.00    +0.027 S 
ATOM      3  O   UNL     1      14.900  -3.904  30.787  0.00  0.00    -0.158 OA
ATOM      4  O   UNL     1      16.728  -5.132  29.551  0.00  0.00    -0.158 OA
ATOM     16  C   UNL     1      17.232  -4.197  31.937  0.00  0.00    +0.214 C 
ENDBRANCH   5   1
ENDBRANCH   9   5
BRANCH   8  11
ATOM     11  C   UNL     1      12.017  -8.913  32.866  0.00  0.00    +0.063 C 
BRANCH  11  14
ATOM      2  O   UNL     1       9.226 -10.781  31.650  0.00  0.00    -0.359 OA
ATOM      6  N   UNL     1      10.570 -10.655  31.983  0.00  0.00    -0.083 NA
ATOM     14  C   UNL     1      10.701  -9.400  32.420  0.00  0.00    +0.084 A 
ATOM     15  C   UNL     1       9.487  -8.693  32.387  0.00  0.00    +0.071 A 
ATOM     17  C   UNL     1       8.592  -9.606  31.896  0.00  0.00    +0.143 A 
BRANCH  17  18
ATOM     18  C   UNL     1       7.086  -9.560  31.584  0.00  0.00    +0.023 C 
ATOM     19  C   UNL     1       6.795 -10.377  30.307  0.00  0.00    +0.019 C 
ATOM     20  C   UNL     1       6.647  -8.097  31.361  0.00  0.00    +0.019 C 
ATOM     21  C   UNL     1       6.197 -10.138  32.707  0.00  0.00    +0.019 C 
ENDBRANCH  17  18
ENDBRANCH  11  14
ENDBRANCH   8  11
TORSDOF 5
ENDMDL
MODEL 4
REMARK VINA RESULT:      -4.5      2.637      4.543
REMARK  Name = 56774050
REMARK  11 active torsions:
REMARK  status: ('A' for Active; 'I' for Inactive)
REMARK    1  A    between atoms: S_1  and  N_5
REMARK    2  A    between atoms: S_1  and  C_16
REMARK    3  A    between atoms: N_5  and  C_9
REMARK    4  A    between atoms: C_7  and  C_12
REMARK    5  A    between atoms: C_7  and  C_13
REMARK    6  A    between atoms: C_8  and  C_11
REMARK    7  A    between atoms: C_11  and  C_14
REMARK    8  A    between atoms: C_17  and  C_18
REMARK    9  A    between atoms: C_18  and  C_19
REMARK   10  A    between atoms: C_18  and  C_20
REMARK   11  A    between atoms: C_18  and  C_21
REMARK                            x       y       z     vdW  Elec       q    Type
REMARK                         _______ _______ _______ _____ _____    ______ ____
ROOT
ATOM      7  C   UNL     1      -0.867   3.455  24.824  0.00  0.00    -0.015 C 
ATOM      8  C   UNL     1      -2.223   3.247  24.118  0.00  0.00    +0.004 C 
ATOM      9  C   UNL     1      -0.209   2.810  23.587  0.00  0.00    +0.082 C 
ATOM     10  C   UNL     1      -1.554   2.093  23.342  0.00  0.00    +0.025 C 
ATOM     12  C   UNL     1      -0.530   4.910  25.065  0.00  0.00    +0.013 C 
ATOM     13  C   UNL     1      -0.653   2.654  26.095  0.00  0.00    +0.013 C 
ENDROOT
BRANCH   9   5
ATOM      5  N   UNL     1       0.975   1.911  23.816  0.00  0.00    -0.191 NA
ATOM     22  H   UNL     1       1.866   2.427  23.820  0.00  0.00    +0.148 HD
BRANCH   5   1
ATOM      1  S   UNL     1       1.101   0.304  23.248  0.00  0.00    +0.027 S 
ATOM      3  O   UNL     1       0.503   0.205  21.931  0.00  0.00    -0.158 OA
ATOM      4  O   UNL     1       0.712  -0.595  24.316  0.00  0.00    -0.158 OA
ATOM     16  C   UNL     1       2.864   0.182  23.058  0.00  0.00    +0.214 C 
ENDBRANCH   5   1
ENDBRANCH   9   5
BRANCH   8  11
ATOM     11  C   UNL     1      -3.415   2.832  24.990  0.00  0.00    +0.063 C 
BRANCH  11  14
ATOM      2  O   UNL     1      -4.843  -0.418  24.591  0.00  0.00    -0.359 OA
ATOM      6  N   UNL     1      -4.940   0.967  24.665  0.00  0.00    -0.083 NA
ATOM     14  C   UNL     1      -3.689   1.391  24.863  0.00  0.00    +0.084 A 
ATOM     15  C   UNL     1      -2.769   0.330  24.921  0.00  0.00    +0.071 A 
ATOM     17  C   UNL     1      -3.544  -0.784  24.743  0.00  0.00    +0.143 A 
BRANCH  17  18
ATOM     18  C   UNL     1      -3.246  -2.292  24.688  0.00  0.00    +0.023 C 
ATOM     19  C   UNL     1      -4.314  -3.002  23.829  0.00  0.00    +0.019 C 
ATOM     20  C   UNL     1      -3.272  -2.878  26.116  0.00  0.00    +0.019 C 
ATOM     21  C   UNL     1      -1.869  -2.636  24.078  0.00  0.00    +0.019 C 
ENDBRANCH  17  18
ENDBRANCH  11  14
ENDBRANCH   8  11
TORSDOF 5
ENDMDL
MODEL 5
REMARK VINA RESULT:      -4.4      2.282      6.164
REMARK  Name = 56774050
REMARK  11 active torsions:
REMARK  status: ('A' for Active; 'I' for Inactive)
REMARK    1  A    between atoms: S_1  and  N_5
REMARK    2  A    between atoms: S_1  and  C_16
REMARK    3  A    between atoms: N_5  and  C_9
REMARK    4  A    between atoms: C_7  and  C_12
REMARK    5  A    between atoms: C_7  and  C_13
REMARK    6  A    between atoms: C_8  and  C_11
REMARK    7  A    between atoms: C_11  and  C_14
REMARK    8  A    between atoms: C_17  and  C_18
REMARK    9  A    between atoms: C_18  and  C_19
REMARK   10  A    between atoms: C_18  and  C_20
REMARK   11  A    between atoms: C_18  and  C_21
REMARK                            x       y       z     vdW  Elec       q    Type
REMARK                         _______ _______ _______ _____ _____    ______ ____
ROOT
ATOM      7  C   UNL     1      -4.190  -1.467  24.018  0.00  0.00    -0.015 C 
ATOM      8  C   UNL     1      -4.820  -0.579  25.111  0.00  0.00    +0.004 C 
ATOM      9  C   UNL     1      -3.212  -1.972  25.099  0.00  0.00    +0.082 C 
ATOM     10  C   UNL     1      -3.458  -0.639  25.835  0.00  0.00    +0.025 C 
ATOM     12  C   UNL     1      -5.143  -2.501  23.459  0.00  0.00    +0.013 C 
ATOM     13  C   UNL     1      -3.496  -0.732  22.886  0.00  0.00    +0.013 C 
ENDROOT
BRANCH   9   5
ATOM      5  N   UNL     1      -1.790  -2.232  24.683  0.00  0.00    -0.191 NA
ATOM     22  H   UNL     1      -1.623  -3.220  24.445  0.00  0.00    +0.148 HD
BRANCH   5   1
ATOM      1  S   UNL     1      -0.424  -1.431  25.330  0.00  0.00    +0.027 S 
ATOM      3  O   UNL     1       0.598  -2.403  25.663  0.00  0.00    -0.158 OA
ATOM      4  O   UNL     1      -0.879  -0.458  26.303  0.00  0.00    -0.158 OA
ATOM     16  C   UNL     1       0.118  -0.538  23.892  0.00  0.00    +0.214 C 
ENDBRANCH   5   1
ENDBRANCH   9   5
BRANCH   8  11
ATOM     11  C   UNL     1      -5.271   0.829  24.701  0.00  0.00    +0.063 C 
BRANCH  11  14
ATOM      2  O   UNL     1      -3.306   3.625  25.741  0.00  0.00    -0.359 OA
ATOM      6  N   UNL     1      -4.501   2.918  25.678  0.00  0.00    -0.083 NA
ATOM     14  C   UNL     1      -4.218   1.822  24.968  0.00  0.00    +0.084 A 
ATOM     15  C   UNL     1      -2.873   1.783  24.561  0.00  0.00    +0.071 A 
ATOM     17  C   UNL     1      -2.343   2.938  25.073  0.00  0.00    +0.143 A 
BRANCH  17  18
ATOM     18  C   UNL     1      -0.944   3.575  25.039  0.00  0.00    +0.023 C 
ATOM     19  C   UNL     1      -0.107   3.056  26.227  0.00  0.00    +0.019 C 
ATOM     20  C   UNL     1      -1.071   5.111  25.141  0.00  0.00    +0.019 C 
ATOM     21  C   UNL     1      -0.148   3.268  23.751  0.00  0.00    +0.019 C 
ENDBRANCH  17  18
ENDBRANCH  11  14
ENDBRANCH   8  11
TORSDOF 5
ENDMDL
MODEL 6
REMARK VINA RESULT:      -4.2      3.587      6.310
REMARK  Name = 56774050
REMARK  11 active torsions:
REMARK  status: ('A' for Active; 'I' for Inactive)
REMARK    1  A    between atoms: S_1  and  N_5
REMARK    2  A    between atoms: S_1  and  C_16
REMARK    3  A    between atoms: N_5  and  C_9
REMARK    4  A    between atoms: C_7  and  C_12
REMARK    5  A    between atoms: C_7  and  C_13
REMARK    6  A    between atoms: C_8  and  C_11
REMARK    7  A    between atoms: C_11  and  C_14
REMARK    8  A    between atoms: C_17  and  C_18
REMARK    9  A    between atoms: C_18  and  C_19
REMARK   10  A    between atoms: C_18  and  C_20
REMARK   11  A    between atoms: C_18  and  C_21
REMARK                            x       y       z     vdW  Elec       q    Type
REMARK                         _______ _______ _______ _____ _____    ______ ____
ROOT
ATOM      7  C   UNL     1      -0.096   1.211  23.899  0.00  0.00    -0.015 C 
ATOM      8  C   UNL     1      -0.716  -0.193  23.744  0.00  0.00    +0.004 C 
ATOM      9  C   UNL     1       1.123   0.676  23.119  0.00  0.00    +0.082 C 
ATOM     10  C   UNL     1       0.725  -0.730  23.613  0.00  0.00    +0.025 C 
ATOM     12  C   UNL     1      -0.890   2.301  23.212  0.00  0.00    +0.013 C 
ATOM     13  C   UNL     1       0.246   1.630  25.317  0.00  0.00    +0.013 C 
ENDROOT
BRANCH   9   5
ATOM      5  N   UNL     1       2.485   1.153  23.542  0.00  0.00    -0.191 NA
ATOM     22  H   UNL     1       2.502   2.161  23.752  0.00  0.00    +0.148 HD
BRANCH   5   1
ATOM      1  S   UNL     1       3.962   0.541  22.936  0.00  0.00    +0.027 S 
ATOM      3  O   UNL     1       5.070   1.215  23.583  0.00  0.00    -0.158 OA
ATOM      4  O   UNL     1       3.872   0.467  21.491  0.00  0.00    -0.158 OA
ATOM     16  C   UNL     1       3.889  -1.119  23.564  0.00  0.00    +0.214 C 
ENDBRANCH   5   1
ENDBRANCH   9   5
BRANCH   8  11
ATOM     11  C   UNL     1      -1.506  -0.749  24.935  0.00  0.00    +0.063 C 
BRANCH  11  14
ATOM      2  O   UNL     1      -5.019  -0.171  24.645  0.00  0.00    -0.359 OA
ATOM      6  N   UNL     1      -3.884  -0.955  24.474  0.00  0.00    -0.083 NA
ATOM     14  C   UNL     1      -2.879  -0.219  24.956  0.00  0.00    +0.084 A 
ATOM     15  C   UNL     1      -3.315   1.027  25.440  0.00  0.00    +0.071 A 
ATOM     17  C   UNL     1      -4.667   1.006  25.223  0.00  0.00    +0.143 A 
BRANCH  17  18
ATOM     18  C   UNL     1      -5.804   2.007  25.490  0.00  0.00    +0.023 C 
ATOM     19  C   UNL     1      -6.891   1.861  24.403  0.00  0.00    +0.019 C 
ATOM     20  C   UNL     1      -5.246   3.446  25.460  0.00  0.00    +0.019 C 
ATOM     21  C   UNL     1      -6.498   1.814  26.857  0.00  0.00    +0.019 C 
ENDBRANCH  17  18
ENDBRANCH  11  14
ENDBRANCH   8  11
TORSDOF 5
ENDMDL
MODEL 7
REMARK VINA RESULT:      -4.1      2.425      4.341
REMARK  Name = 56774050
REMARK  11 active torsions:
REMARK  status: ('A' for Active; 'I' for Inactive)
REMARK    1  A    between atoms: S_1  and  N_5
REMARK    2  A    between atoms: S_1  and  C_16
REMARK    3  A    between atoms: N_5  and  C_9
REMARK    4  A    between atoms: C_7  and  C_12
REMARK    5  A    between atoms: C_7  and  C_13
REMARK    6  A    between atoms: C_8  and  C_11
REMARK    7  A    between atoms: C_11  and  C_14
REMARK    8  A    between atoms: C_17  and  C_18
REMARK    9  A    between atoms: C_18  and  C_19
REMARK   10  A    between atoms: C_18  and  C_20
REMARK   11  A    between atoms: C_18  and  C_21
REMARK                            x       y       z     vdW  Elec       q    Type
REMARK                         _______ _______ _______ _____ _____    ______ ____
ROOT
ATOM      7  C   UNL     1      -0.160   0.314  23.781  0.00  0.00    -0.015 C 
ATOM      8  C   UNL     1      -0.616  -0.588  24.947  0.00  0.00    +0.004 C 
ATOM      9  C   UNL     1       0.112   1.408  24.835  0.00  0.00    +0.082 C 
ATOM     10  C   UNL     1      -0.938   0.707  25.721  0.00  0.00    +0.025 C 
ATOM     12  C   UNL     1       1.056  -0.212  23.051  0.00  0.00    +0.013 C 
ATOM     13  C   UNL     1      -1.237   0.704  22.786  0.00  0.00    +0.013 C 
ENDROOT
BRANCH   9   5
ATOM      5  N   UNL     1      -0.200   2.831  24.458  0.00  0.00    -0.191 NA
ATOM     22  H   UNL     1       0.649   3.398  24.323  0.00  0.00    +0.148 HD
BRANCH   5   1
ATOM      1  S   UNL     1      -1.547   3.716  25.028  0.00  0.00    +0.027 S 
ATOM      3  O   UNL     1      -1.710   3.490  26.451  0.00  0.00    -0.158 OA
ATOM      4  O   UNL     1      -2.650   3.521  24.108  0.00  0.00    -0.158 OA
ATOM     16  C   UNL     1      -0.945   5.373  24.803  0.00  0.00    +0.214 C 
ENDBRANCH   5   1
ENDBRANCH   9   5
BRANCH   8  11
ATOM     11  C   UNL     1      -1.819  -1.507  24.697  0.00  0.00    +0.063 C 
BRANCH  11  14
ATOM      2  O   UNL     1      -5.088  -0.176  24.150  0.00  0.00    -0.359 OA
ATOM      6  N   UNL     1      -4.065  -1.077  23.874  0.00  0.00    -0.083 NA
ATOM     14  C   UNL     1      -3.079  -0.747  24.713  0.00  0.00    +0.084 A 
ATOM     15  C   UNL     1      -3.419   0.342  25.534  0.00  0.00    +0.071 A 
ATOM     17  C   UNL     1      -4.691   0.663  25.141  0.00  0.00    +0.143 A 
BRANCH  17  18
ATOM     18  C   UNL     1      -5.704   1.734  25.580  0.00  0.00    +0.023 C 
ATOM     19  C   UNL     1      -6.370   1.307  26.906  0.00  0.00    +0.019 C 
ATOM     20  C   UNL     1      -6.791   1.895  24.495  0.00  0.00    +0.019 C 
ATOM     21  C   UNL     1      -5.080   3.128  25.811  0.00  0.00    +0.019 C 
ENDBRANCH  17  18
ENDBRANCH  11  14
ENDBRANCH   8  11
TORSDOF 5
ENDMDL
MODEL 8
REMARK VINA RESULT:      -4.1      2.782      4.078
REMARK  Name = 56774050
REMARK  11 active torsions:
REMARK  status: ('A' for Active; 'I' for Inactive)
REMARK    1  A    between atoms: S_1  and  N_5
REMARK    2  A    between atoms: S_1  and  C_16
REMARK    3  A    between atoms: N_5  and  C_9
REMARK    4  A    between atoms: C_7  and  C_12
REMARK    5  A    between atoms: C_7  and  C_13
REMARK    6  A    between atoms: C_8  and  C_11
REMARK    7  A    between atoms: C_11  and  C_14
REMARK    8  A    between atoms: C_17  and  C_18
REMARK    9  A    between atoms: C_18  and  C_19
REMARK   10  A    between atoms: C_18  and  C_20
REMARK   11  A    between atoms: C_18  and  C_21
REMARK                            x       y       z     vdW  Elec       q    Type
REMARK                         _______ _______ _______ _____ _____    ______ ____
ROOT
ATOM      7  C   UNL     1      -4.875   3.614  25.347  0.00  0.00    -0.015 C 
ATOM      8  C   UNL     1      -5.195   2.458  24.377  0.00  0.00    +0.004 C 
ATOM      9  C   UNL     1      -3.799   4.063  24.337  0.00  0.00    +0.082 C 
ATOM     10  C   UNL     1      -3.749   2.598  23.856  0.00  0.00    +0.025 C 
ATOM     12  C   UNL     1      -6.029   4.571  25.547  0.00  0.00    +0.013 C 
ATOM     13  C   UNL     1      -4.295   3.209  26.691  0.00  0.00    +0.013 C 
ENDROOT
BRANCH   9   5
ATOM      5  N   UNL     1      -2.511   4.611  24.889  0.00  0.00    -0.191 NA
ATOM     22  H   UNL     1      -2.503   5.640  24.924  0.00  0.00    +0.148 HD
BRANCH   5   1
ATOM      1  S   UNL     1      -0.971   3.909  24.643  0.00  0.00    +0.027 S 
ATOM      3  O   UNL     1       0.039   4.949  24.621  0.00  0.00    -0.158 OA
ATOM      4  O   UNL     1      -1.071   2.940  23.570  0.00  0.00    -0.158 OA
ATOM     16  C   UNL     1      -0.796   3.009  26.165  0.00  0.00    +0.214 C 
ENDBRANCH   5   1
ENDBRANCH   9   5
BRANCH   8  11
ATOM     11  C   UNL     1      -5.529   1.093  24.993  0.00  0.00    +0.063 C 
BRANCH  11  14
ATOM      2  O   UNL     1      -3.514  -1.714  24.090  0.00  0.00    -0.359 OA
ATOM      6  N   UNL     1      -4.734  -1.054  24.177  0.00  0.00    -0.083 NA
ATOM     14  C   UNL     1      -4.452   0.121  24.746  0.00  0.00    +0.084 A 
ATOM     15  C   UNL     1      -3.083   0.258  25.037  0.00  0.00    +0.071 A 
ATOM     17  C   UNL     1      -2.539  -0.922  24.604  0.00  0.00    +0.143 A 
BRANCH  17  18
ATOM     18  C   UNL     1      -1.111  -1.495  24.591  0.00  0.00    +0.023 C 
ATOM     19  C   UNL     1      -0.186  -0.565  23.777  0.00  0.00    +0.019 C 
ATOM     20  C   UNL     1      -1.121  -2.896  23.942  0.00  0.00    +0.019 C 
ATOM     21  C   UNL     1      -0.485  -1.647  25.995  0.00  0.00    +0.019 C 
ENDBRANCH  17  18
ENDBRANCH  11  14
ENDBRANCH   8  11
TORSDOF 5
ENDMDL
MODEL 9
REMARK VINA RESULT:      -4.0     18.368     20.391
REMARK  Name = 56774050
REMARK  11 active torsions:
REMARK  status: ('A' for Active; 'I' for Inactive)
REMARK    1  A    between atoms: S_1  and  N_5
REMARK    2  A    between atoms: S_1  and  C_16
REMARK    3  A    between atoms: N_5  and  C_9
REMARK    4  A    between atoms: C_7  and  C_12
REMARK    5  A    between atoms: C_7  and  C_13
REMARK    6  A    between atoms: C_8  and  C_11
REMARK    7  A    between atoms: C_11  and  C_14
REMARK    8  A    between atoms: C_17  and  C_18
REMARK    9  A    between atoms: C_18  and  C_19
REMARK   10  A    between atoms: C_18  and  C_20
REMARK   11  A    between atoms: C_18  and  C_21
REMARK                            x       y       z     vdW  Elec       q    Type
REMARK                         _______ _______ _______ _____ _____    ______ ____
ROOT
ATOM      7  C   UNL     1      13.154  -6.171  31.735  0.00  0.00    -0.015 C 
ATOM      8  C   UNL     1      14.638  -6.249  31.322  0.00  0.00    +0.004 C 
ATOM      9  C   UNL     1      13.266  -7.655  32.140  0.00  0.00    +0.082 C 
ATOM     10  C   UNL     1      14.423  -7.765  31.125  0.00  0.00    +0.025 C 
ATOM     12  C   UNL     1      12.892  -5.199  32.864  0.00  0.00    +0.013 C 
ATOM     13  C   UNL     1      12.165  -5.937  30.607  0.00  0.00    +0.013 C 
ENDROOT
BRANCH   9   5
ATOM      5  N   UNL     1      12.080  -8.542  31.873  0.00  0.00    -0.191 NA
ATOM     22  H   UNL     1      11.186  -8.077  32.083  0.00  0.00    +0.148 HD
BRANCH   5   1
ATOM      1  S   UNL     1      12.059 -10.235  32.108  0.00  0.00    +0.027 S 
ATOM      3  O   UNL     1      10.733 -10.653  32.517  0.00  0.00    -0.158 OA
ATOM      4  O   UNL     1      13.232 -10.610  32.873  0.00  0.00    -0.158 OA
ATOM     16  C   UNL     1      12.312 -10.781  30.436  0.00  0.00    +0.214 C 
ENDBRANCH   5   1
ENDBRANCH   9   5
BRANCH   8  11
ATOM     11  C   UNL     1      15.060  -5.488  30.059  0.00  0.00    +0.063 C 
BRANCH  11  14
ATOM      2  O   UNL     1      17.305  -7.605  28.261  0.00  0.00    -0.359 OA
ATOM      6  N   UNL     1      16.981  -6.792  29.342  0.00  0.00    -0.083 NA
ATOM     14  C   UNL     1      15.733  -6.380  29.101  0.00  0.00    +0.084 A 
ATOM     15  C   UNL     1      15.223  -6.894  27.897  0.00  0.00    +0.071 A 
ATOM     17  C   UNL     1      16.250  -7.658  27.408  0.00  0.00    +0.143 A 
BRANCH  17  18
ATOM     18  C   UNL     1      16.430  -8.518  26.146  0.00  0.00    +0.023 C 
ATOM     19  C   UNL     1      17.404  -9.679  26.443  0.00  0.00    +0.019 C 
ATOM     20  C   UNL     1      17.007  -7.652  25.006  0.00  0.00    +0.019 C 
ATOM     21  C   UNL     1      15.118  -9.145  25.624  0.00  0.00    +0.019 C 
ENDBRANCH  17  18
ENDBRANCH  11  14
ENDBRANCH   8  11
TORSDOF 5
ENDMDL
MODEL 10
REMARK VINA RESULT:      -3.7      2.611      4.109
REMARK  Name = 56774050
REMARK  11 active torsions:
REMARK  status: ('A' for Active; 'I' for Inactive)
REMARK    1  A    between atoms: S_1  and  N_5
REMARK    2  A    between atoms: S_1  and  C_16
REMARK    3  A    between atoms: N_5  and  C_9
REMARK    4  A    between atoms: C_7  and  C_12
REMARK    5  A    between atoms: C_7  and  C_13
REMARK    6  A    between atoms: C_8  and  C_11
REMARK    7  A    between atoms: C_11  and  C_14
REMARK    8  A    between atoms: C_17  and  C_18
REMARK    9  A    between atoms: C_18  and  C_19
REMARK   10  A    between atoms: C_18  and  C_20
REMARK   11  A    between atoms: C_18  and  C_21
REMARK                            x       y       z     vdW  Elec       q    Type
REMARK                         _______ _______ _______ _____ _____    ______ ____
ROOT
ATOM      7  C   UNL     1      -2.069   4.235  25.083  0.00  0.00    -0.015 C 
ATOM      8  C   UNL     1      -3.332   3.703  24.374  0.00  0.00    +0.004 C 
ATOM      9  C   UNL     1      -1.274   3.787  23.839  0.00  0.00    +0.082 C 
ATOM     10  C   UNL     1      -2.398   2.761  23.586  0.00  0.00    +0.025 C 
ATOM     12  C   UNL     1      -2.105   5.726  25.340  0.00  0.00    +0.013 C 
ATOM     13  C   UNL     1      -1.659   3.499  26.346  0.00  0.00    +0.013 C 
ENDROOT
BRANCH   9   5
ATOM      5  N   UNL     1       0.097   3.210  24.060  0.00  0.00    -0.191 NA
ATOM     22  H   UNL     1       0.838   3.773  23.619  0.00  0.00    +0.148 HD
BRANCH   5   1
ATOM      1  S   UNL     1       0.447   1.538  24.143  0.00  0.00    +0.027 S 
ATOM      3  O   UNL     1      -0.065   0.995  25.385  0.00  0.00    -0.158 OA
ATOM      4  O   UNL     1       1.828   1.336  23.750  0.00  0.00    -0.158 OA
ATOM     16  C   UNL     1      -0.580   0.942  22.821  0.00  0.00    +0.214 C 
ENDBRANCH   5   1
ENDBRANCH   9   5
BRANCH   8  11
ATOM     11  C   UNL     1      -4.381   2.994  25.241  0.00  0.00    +0.063 C 
BRANCH  11  14
ATOM      2  O   UNL     1      -5.104  -0.412  24.445  0.00  0.00    -0.359 OA
ATOM      6  N   UNL     1      -5.458   0.929  24.545  0.00  0.00    -0.083 NA
ATOM     14  C   UNL     1      -4.365   1.540  25.010  0.00  0.00    +0.084 A 
ATOM     15  C   UNL     1      -3.301   0.646  25.220  0.00  0.00    +0.071 A 
ATOM     17  C   UNL     1      -3.817  -0.567  24.848  0.00  0.00    +0.143 A 
BRANCH  17  18
ATOM     18  C   UNL     1      -3.252  -1.997  24.804  0.00  0.00    +0.023 C 
ATOM     19  C   UNL     1      -1.807  -1.968  24.261  0.00  0.00    +0.019 C 
ATOM     20  C   UNL     1      -4.125  -2.871  23.877  0.00  0.00    +0.019 C 
ATOM     21  C   UNL     1      -3.209  -2.695  26.182  0.00  0.00    +0.019 C 
ENDBRANCH  17  18
ENDBRANCH  11  14
ENDBRANCH   8  11
TORSDOF 5
ENDMDL
