MODEL 1
REMARK VINA RESULT:      -4.9      0.000      0.000
REMARK  Name = 26743856
REMARK  6 active torsions:
REMARK  status: ('A' for Active; 'I' for Inactive)
REMARK    1  A    between atoms: O_1  and  C_9
REMARK    2  A    between atoms: N_3  and  C_11
REMARK    3  A    between atoms: C_7  and  C_12
REMARK    4  A    between atoms: C_11  and  C_13
REMARK    5  A    between atoms: C_14  and  C_17
REMARK    6  A    between atoms: C_22  and  C_25
REMARK                            x       y       z     vdW  Elec       q    Type
REMARK                         _______ _______ _______ _____ _____    ______ ____
ROOT
ATOM      3  N   UNL     1      -4.706   1.551  25.190  0.00  0.00    -0.285 NA
ATOM      7  C   UNL     1      -3.955   2.379  24.226  0.00  0.00    +0.149 C 
ATOM      8  C   UNL     1      -4.240   3.832  24.647  0.00  0.00    +0.061 C 
ATOM      9  C   UNL     1      -5.197   3.719  25.828  0.00  0.00    +0.130 C 
ATOM     10  C   UNL     1      -5.840   2.359  25.634  0.00  0.00    +0.116 C 
ENDROOT
BRANCH   7  12
ATOM      2  O   UNL     1      -1.747   2.487  25.270  0.00  0.00    -0.336 OA
ATOM      4  N   UNL     1      -1.778   1.412  23.305  0.00  0.00    -0.190 NA
ATOM      5  N   UNL     1      -0.429   2.077  25.029  0.00  0.00    -0.056 NA
ATOM     12  C   UNL     1      -2.475   2.055  24.207  0.00  0.00    +0.245 A 
ATOM     14  C   UNL     1      -0.529   1.450  23.854  0.00  0.00    +0.202 A 
BRANCH  14  17
ATOM     17  C   UNL     1       0.599   0.851  23.201  0.00  0.00    +0.023 A 
ATOM     19  C   UNL     1       1.893   1.249  23.537  0.00  0.00    +0.015 A 
ATOM     21  C   UNL     1       0.402  -0.132  22.230  0.00  0.00    +0.012 A 
ATOM     22  C   UNL     1       2.990   0.666  22.903  0.00  0.00    -0.050 A 
ATOM     23  C   UNL     1       1.498  -0.714  21.595  0.00  0.00    +0.001 A 
ATOM     24  C   UNL     1       2.793  -0.316  21.932  0.00  0.00    +0.003 A 
ATOM     25  C   UNL     1       4.373   1.092  23.262  0.00  0.00    +0.044 C 
ENDBRANCH  14  17
ENDBRANCH   7  12
BRANCH   9   1
ATOM      1  O   UNL     1      -6.154   4.761  25.800  0.00  0.00    -0.390 OA
ATOM     26  H   UNL     1      -6.764   4.617  26.543  0.00  0.00    +0.210 HD
ENDBRANCH   9   1
BRANCH   3  11
ATOM     11  C   UNL     1      -5.127   0.269  24.640  0.00  0.00    +0.122 C 
BRANCH  11  13
ATOM      6  N   UNL     1      -2.034  -1.555  25.837  0.00  0.00    -0.263 NA
ATOM     13  C   UNL     1      -4.044  -0.771  24.746  0.00  0.00    -0.015 A 
ATOM     15  C   UNL     1      -4.022  -1.872  23.898  0.00  0.00    +0.008 A 
ATOM     16  C   UNL     1      -3.036  -0.659  25.690  0.00  0.00    +0.115 A 
ATOM     18  C   UNL     1      -3.008  -2.815  24.018  0.00  0.00    +0.020 A 
ATOM     20  C   UNL     1      -2.046  -2.613  24.995  0.00  0.00    +0.111 A 
ENDBRANCH  11  13
ENDBRANCH   3  11
TORSDOF 5
ENDMDL
MODEL 2
REMARK VINA RESULT:      -3.3      1.977      6.290
REMARK  Name = 26743856
REMARK  6 active torsions:
REMARK  status: ('A' for Active; 'I' for Inactive)
REMARK    1  A    between atoms: O_1  and  C_9
REMARK    2  A    between atoms: N_3  and  C_11
REMARK    3  A    between atoms: C_7  and  C_12
REMARK    4  A    between atoms: C_11  and  C_13
REMARK    5  A    between atoms: C_14  and  C_17
REMARK    6  A    between atoms: C_22  and  C_25
REMARK                            x       y       z     vdW  Elec       q    Type
REMARK                         _______ _______ _______ _____ _____    ______ ____
ROOT
ATOM      3  N   UNL     1       0.515  -0.366  23.798  0.00  0.00    -0.285 NA
ATOM      7  C   UNL     1       0.982   0.953  24.270  0.00  0.00    +0.149 C 
ATOM      8  C   UNL     1       1.950   1.443  23.177  0.00  0.00    +0.061 C 
ATOM      9  C   UNL     1       1.995   0.312  22.156  0.00  0.00    +0.130 C 
ATOM     10  C   UNL     1       1.582  -0.907  22.958  0.00  0.00    +0.116 C 
ENDROOT
BRANCH   7  12
ATOM      2  O   UNL     1       0.170   3.239  24.575  0.00  0.00    -0.336 OA
ATOM      4  N   UNL     1      -1.430   1.675  24.694  0.00  0.00    -0.190 NA
ATOM      5  N   UNL     1      -1.029   3.925  24.813  0.00  0.00    -0.056 NA
ATOM     12  C   UNL     1      -0.156   1.920  24.520  0.00  0.00    +0.245 A 
ATOM     14  C   UNL     1      -1.924   2.935  24.870  0.00  0.00    +0.202 A 
BRANCH  14  17
ATOM     17  C   UNL     1      -3.321   3.171  25.101  0.00  0.00    +0.023 A 
ATOM     19  C   UNL     1      -4.249   2.159  24.856  0.00  0.00    +0.015 A 
ATOM     21  C   UNL     1      -3.749   4.413  25.571  0.00  0.00    +0.012 A 
ATOM     22  C   UNL     1      -5.607   2.389  25.082  0.00  0.00    -0.050 A 
ATOM     23  C   UNL     1      -5.106   4.643  25.795  0.00  0.00    +0.001 A 
ATOM     24  C   UNL     1      -6.035   3.630  25.552  0.00  0.00    +0.003 A 
ATOM     25  C   UNL     1      -6.599   1.307  24.821  0.00  0.00    +0.044 C 
ENDBRANCH  14  17
ENDBRANCH   7  12
BRANCH   9   1
ATOM      1  O   UNL     1       3.298   0.171  21.622  0.00  0.00    -0.390 OA
ATOM     26  H   UNL     1       3.705  -0.604  22.045  0.00  0.00    +0.210 HD
ENDBRANCH   9   1
BRANCH   3  11
ATOM     11  C   UNL     1       0.159  -1.270  24.883  0.00  0.00    +0.122 C 
BRANCH  11  13
ATOM      6  N   UNL     1      -3.193  -2.802  24.017  0.00  0.00    -0.263 NA
ATOM     13  C   UNL     1      -1.318  -1.563  24.908  0.00  0.00    -0.015 A 
ATOM     15  C   UNL     1      -2.164  -0.907  25.795  0.00  0.00    +0.008 A 
ATOM     16  C   UNL     1      -1.877  -2.494  24.047  0.00  0.00    +0.115 A 
ATOM     18  C   UNL     1      -3.524  -1.198  25.794  0.00  0.00    +0.020 A 
ATOM     20  C   UNL     1      -3.984  -2.144  24.893  0.00  0.00    +0.111 A 
ENDBRANCH  11  13
ENDBRANCH   3  11
TORSDOF 5
ENDMDL
MODEL 3
REMARK VINA RESULT:      -2.8      3.237      4.064
REMARK  Name = 26743856
REMARK  6 active torsions:
REMARK  status: ('A' for Active; 'I' for Inactive)
REMARK    1  A    between atoms: O_1  and  C_9
REMARK    2  A    between atoms: N_3  and  C_11
REMARK    3  A    between atoms: C_7  and  C_12
REMARK    4  A    between atoms: C_11  and  C_13
REMARK    5  A    between atoms: C_14  and  C_17
REMARK    6  A    between atoms: C_22  and  C_25
REMARK                            x       y       z     vdW  Elec       q    Type
REMARK                         _______ _______ _______ _____ _____    ______ ____
ROOT
ATOM      3  N   UNL     1      -3.915   1.774  24.706  0.00  0.00    -0.285 NA
ATOM      7  C   UNL     1      -3.108   3.010  24.691  0.00  0.00    +0.149 C 
ATOM      8  C   UNL     1      -3.959   4.047  25.446  0.00  0.00    +0.061 C 
ATOM      9  C   UNL     1      -5.245   3.312  25.807  0.00  0.00    +0.130 C 
ATOM     10  C   UNL     1      -5.313   2.193  24.786  0.00  0.00    +0.116 C 
ENDROOT
BRANCH   7  12
ATOM      2  O   UNL     1      -0.745   2.426  24.463  0.00  0.00    -0.336 OA
ATOM      4  N   UNL     1      -1.354   2.977  26.547  0.00  0.00    -0.190 NA
ATOM      5  N   UNL     1       0.410   2.317  25.249  0.00  0.00    -0.056 NA
ATOM     12  C   UNL     1      -1.736   2.819  25.305  0.00  0.00    +0.245 A 
ATOM     14  C   UNL     1      -0.030   2.659  26.463  0.00  0.00    +0.202 A 
BRANCH  14  17
ATOM     17  C   UNL     1       0.827   2.691  27.613  0.00  0.00    +0.023 A 
ATOM     19  C   UNL     1       0.294   2.493  28.887  0.00  0.00    +0.015 A 
ATOM     21  C   UNL     1       2.194   2.920  27.457  0.00  0.00    +0.012 A 
ATOM     22  C   UNL     1       1.128   2.523  30.005  0.00  0.00    -0.050 A 
ATOM     23  C   UNL     1       3.028   2.952  28.575  0.00  0.00    +0.001 A 
ATOM     24  C   UNL     1       2.495   2.752  29.849  0.00  0.00    +0.003 A 
ATOM     25  C   UNL     1       0.558   2.311  31.366  0.00  0.00    +0.044 C 
ENDBRANCH  14  17
ENDBRANCH   7  12
BRANCH   9   1
ATOM      1  O   UNL     1      -6.360   4.178  25.713  0.00  0.00    -0.390 OA
ATOM     26  H   UNL     1      -7.159   3.640  25.841  0.00  0.00    +0.210 HD
ENDBRANCH   9   1
BRANCH   3  11
ATOM     11  C   UNL     1      -3.665   0.911  23.559  0.00  0.00    +0.122 C 
BRANCH  11  13
ATOM      6  N   UNL     1      -1.571  -1.992  24.791  0.00  0.00    -0.263 NA
ATOM     13  C   UNL     1      -3.275  -0.481  23.979  0.00  0.00    -0.015 A 
ATOM     15  C   UNL     1      -4.195  -1.523  23.952  0.00  0.00    +0.008 A 
ATOM     16  C   UNL     1      -1.987  -0.765  24.403  0.00  0.00    +0.115 A 
ATOM     18  C   UNL     1      -3.805  -2.798  24.344  0.00  0.00    +0.020 A 
ATOM     20  C   UNL     1      -2.493  -2.979  24.751  0.00  0.00    +0.111 A 
ENDBRANCH  11  13
ENDBRANCH   3  11
TORSDOF 5
ENDMDL
MODEL 4
REMARK VINA RESULT:      -1.2      1.920      4.055
REMARK  Name = 26743856
REMARK  6 active torsions:
REMARK  status: ('A' for Active; 'I' for Inactive)
REMARK    1  A    between atoms: O_1  and  C_9
REMARK    2  A    between atoms: N_3  and  C_11
REMARK    3  A    between atoms: C_7  and  C_12
REMARK    4  A    between atoms: C_11  and  C_13
REMARK    5  A    between atoms: C_14  and  C_17
REMARK    6  A    between atoms: C_22  and  C_25
REMARK                            x       y       z     vdW  Elec       q    Type
REMARK                         _______ _______ _______ _____ _____    ______ ____
ROOT
ATOM      3  N   UNL     1      -3.027  -0.131  23.463  0.00  0.00    -0.285 NA
ATOM      7  C   UNL     1      -2.213   0.085  24.676  0.00  0.00    +0.149 C 
ATOM      8  C   UNL     1      -2.216  -1.274  25.399  0.00  0.00    +0.061 C 
ATOM      9  C   UNL     1      -3.094  -2.176  24.540  0.00  0.00    +0.130 C 
ATOM     10  C   UNL     1      -3.972  -1.198  23.783  0.00  0.00    +0.116 C 
ENDROOT
BRANCH   7  12
ATOM      2  O   UNL     1      -0.613   1.919  24.450  0.00  0.00    -0.336 OA
ATOM      4  N   UNL     1       0.245  -0.103  24.010  0.00  0.00    -0.190 NA
ATOM      5  N   UNL     1       0.732   2.130  24.118  0.00  0.00    -0.056 NA
ATOM     12  C   UNL     1      -0.816   0.578  24.362  0.00  0.00    +0.245 A 
ATOM     14  C   UNL     1       1.169   0.892  23.873  0.00  0.00    +0.202 A 
BRANCH  14  17
ATOM     17  C   UNL     1       2.523   0.614  23.488  0.00  0.00    +0.023 A 
ATOM     19  C   UNL     1       3.122  -0.590  23.861  0.00  0.00    +0.015 A 
ATOM     21  C   UNL     1       3.240   1.546  22.738  0.00  0.00    +0.012 A 
ATOM     22  C   UNL     1       4.438  -0.860  23.486  0.00  0.00    -0.050 A 
ATOM     23  C   UNL     1       4.556   1.277  22.363  0.00  0.00    +0.001 A 
ATOM     24  C   UNL     1       5.155   0.073  22.736  0.00  0.00    +0.003 A 
ATOM     25  C   UNL     1       5.079  -2.146  23.885  0.00  0.00    +0.044 C 
ENDBRANCH  14  17
ENDBRANCH   7  12
BRANCH   9   1
ATOM      1  O   UNL     1      -3.857  -3.050  25.348  0.00  0.00    -0.390 OA
ATOM     26  H   UNL     1      -3.312  -3.835  25.525  0.00  0.00    +0.210 HD
ENDBRANCH   9   1
BRANCH   3  11
ATOM     11  C   UNL     1      -3.699   1.077  23.000  0.00  0.00    +0.122 C 
BRANCH  11  13
ATOM      6  N   UNL     1      -4.165   3.862  25.522  0.00  0.00    -0.263 NA
ATOM     13  C   UNL     1      -4.263   1.878  24.144  0.00  0.00    -0.015 A 
ATOM     15  C   UNL     1      -5.357   1.420  24.868  0.00  0.00    +0.008 A 
ATOM     16  C   UNL     1      -3.708   3.094  24.506  0.00  0.00    +0.115 A 
ATOM     18  C   UNL     1      -5.856   2.181  25.920  0.00  0.00    +0.020 A 
ATOM     20  C   UNL     1      -5.229   3.384  26.204  0.00  0.00    +0.111 A 
ENDBRANCH  11  13
ENDBRANCH   3  11
TORSDOF 5
ENDMDL
MODEL 5
REMARK VINA RESULT:      -1.0      2.263      4.428
REMARK  Name = 26743856
REMARK  6 active torsions:
REMARK  status: ('A' for Active; 'I' for Inactive)
REMARK    1  A    between atoms: O_1  and  C_9
REMARK    2  A    between atoms: N_3  and  C_11
REMARK    3  A    between atoms: C_7  and  C_12
REMARK    4  A    between atoms: C_11  and  C_13
REMARK    5  A    between atoms: C_14  and  C_17
REMARK    6  A    between atoms: C_22  and  C_25
REMARK                            x       y       z     vdW  Elec       q    Type
REMARK                         _______ _______ _______ _____ _____    ______ ____
ROOT
ATOM      3  N   UNL     1      -3.229  -0.202  24.695  0.00  0.00    -0.285 NA
ATOM      7  C   UNL     1      -2.063  -1.106  24.746  0.00  0.00    +0.149 C 
ATOM      8  C   UNL     1      -2.529  -2.391  24.039  0.00  0.00    +0.061 C 
ATOM      9  C   UNL     1      -3.984  -2.131  23.667  0.00  0.00    +0.130 C 
ATOM     10  C   UNL     1      -4.414  -1.057  24.648  0.00  0.00    +0.116 C 
ENDROOT
BRANCH   7  12
ATOM      2  O   UNL     1      -1.039   0.494  23.206  0.00  0.00    -0.336 OA
ATOM      4  N   UNL     1       0.432  -0.798  24.296  0.00  0.00    -0.190 NA
ATOM      5  N   UNL     1       0.231   0.885  22.760  0.00  0.00    -0.056 NA
ATOM     12  C   UNL     1      -0.829  -0.501  24.108  0.00  0.00    +0.245 A 
ATOM     14  C   UNL     1       1.043   0.079  23.448  0.00  0.00    +0.202 A 
BRANCH  14  17
ATOM     17  C   UNL     1       2.471   0.124  23.311  0.00  0.00    +0.023 A 
ATOM     19  C   UNL     1       3.247  -0.958  23.727  0.00  0.00    +0.015 A 
ATOM     21  C   UNL     1       3.083   1.250  22.762  0.00  0.00    +0.012 A 
ATOM     22  C   UNL     1       4.634  -0.915  23.593  0.00  0.00    -0.050 A 
ATOM     23  C   UNL     1       4.471   1.295  22.629  0.00  0.00    +0.001 A 
ATOM     24  C   UNL     1       5.247   0.212  23.043  0.00  0.00    +0.003 A 
ATOM     25  C   UNL     1       5.463  -2.071  24.038  0.00  0.00    +0.044 C 
ENDBRANCH  14  17
ENDBRANCH   7  12
BRANCH   9   1
ATOM      1  O   UNL     1      -4.756  -3.308  23.807  0.00  0.00    -0.390 OA
ATOM     26  H   UNL     1      -5.692  -3.052  23.751  0.00  0.00    +0.210 HD
ENDBRANCH   9   1
BRANCH   3  11
ATOM     11  C   UNL     1      -3.276   0.739  25.807  0.00  0.00    +0.122 C 
BRANCH  11  13
ATOM      6  N   UNL     1      -3.633   4.155  24.215  0.00  0.00    -0.263 NA
ATOM     13  C   UNL     1      -2.952   2.143  25.368  0.00  0.00    -0.015 A 
ATOM     15  C   UNL     1      -1.730   2.727  25.681  0.00  0.00    +0.008 A 
ATOM     16  C   UNL     1      -3.862   2.892  24.640  0.00  0.00    +0.115 A 
ATOM     18  C   UNL     1      -1.458   4.025  25.262  0.00  0.00    +0.020 A 
ATOM     20  C   UNL     1      -2.434   4.690  24.538  0.00  0.00    +0.111 A 
ENDBRANCH  11  13
ENDBRANCH   3  11
TORSDOF 5
ENDMDL
