MODEL 1
REMARK VINA RESULT:       0.6      0.000      0.000
REMARK  Name = 11886013
REMARK  7 active torsions:
REMARK  status: ('A' for Active; 'I' for Inactive)
REMARK    1  A    between atoms: S_1  and  C_18
REMARK    2  A    between atoms: S_1  and  C_20
REMARK    3  A    between atoms: O_4  and  C_15
REMARK    4  A    between atoms: O_4  and  C_19
REMARK    5  A    between atoms: N_7  and  C_14
REMARK    6  A    between atoms: N_11  and  C_21
REMARK    7  A    between atoms: C_20  and  C_23
REMARK                            x       y       z     vdW  Elec       q    Type
REMARK                         _______ _______ _______ _____ _____    ______ ____
ROOT
ATOM      2  O   UNL     1      -2.280  -0.063  24.276  0.00  0.00    -0.368 OA
ATOM      3  O   UNL     1      -4.615  -2.072  24.018  0.00  0.00    -0.368 OA
ATOM     12  C   UNL     1      -4.400  -0.944  24.893  0.00  0.00    +0.177 C 
ATOM     13  C   UNL     1      -2.921  -0.926  25.228  0.00  0.00    +0.192 C 
ATOM     14  C   UNL     1      -4.630   0.344  24.126  0.00  0.00    +0.168 C 
ATOM     15  C   UNL     1      -2.520  -2.369  25.034  0.00  0.00    +0.235 C 
ATOM     16  C   UNL     1      -3.272   0.597  23.478  0.00  0.00    +0.190 C 
ATOM     17  C   UNL     1      -3.379  -2.783  23.863  0.00  0.00    +0.207 C 
ENDROOT
BRANCH  14   7
ATOM      7  N   UNL     1      -5.128   1.424  24.981  0.00  0.00    -0.212 N 
ATOM      8  N   UNL     1      -5.879   1.141  26.051  0.00  0.00    -0.043 NA
ATOM      9  N   UNL     1      -5.585   3.344  25.869  0.00  0.00    -0.101 NA
ATOM     10  N   UNL     1      -6.156   2.321  26.592  0.00  0.00    -0.022 NA
ATOM     18  C   UNL     1      -4.952   2.763  24.875  0.00  0.00    +0.210 A 
BRANCH  18   1
ATOM      1  S   UNL     1      -4.042   3.519  23.628  0.00  0.00    -0.077 S 
BRANCH   1  20
ATOM     20  C   UNL     1      -3.017   4.682  24.578  0.00  0.00    +0.151 C 
BRANCH  20  23
ATOM      6  O   UNL     1      -2.049   2.873  25.829  0.00  0.00    -0.467 OA
ATOM     23  C   UNL     1      -1.802   4.001  25.140  0.00  0.00    +0.115 A 
ATOM     29  C   UNL     1      -0.484   4.305  25.087  0.00  0.00    +0.045 A 
ATOM     33  C   UNL     1       0.163   3.275  25.811  0.00  0.00    +0.041 A 
ATOM     34  C   UNL     1      -0.832   2.428  26.240  0.00  0.00    +0.195 A 
ENDBRANCH  20  23
ENDBRANCH   1  20
ENDBRANCH  18   1
ENDBRANCH  14   7
BRANCH  15   4
ATOM      4  O   UNL     1      -1.146  -2.541  24.772  0.00  0.00    -0.442 OA
BRANCH   4  19
ATOM      5  O   UNL     1      -0.280  -0.811  25.991  0.00  0.00    -0.226 OA
ATOM     11  N   UNL     1       0.359  -1.191  23.771  0.00  0.00    -0.251 N 
ATOM     19  C   UNL     1      -0.335  -1.438  24.940  0.00  0.00    +0.405 C 
ATOM     35  H   UNL     1       0.158  -1.843  23.023  0.00  0.00    +0.158 HD
BRANCH  11  21
ATOM     21  C   UNL     1       1.293  -0.162  23.514  0.00  0.00    +0.044 A 
ATOM     22  C   UNL     1       2.669  -0.407  23.534  0.00  0.00    +0.003 A 
ATOM     24  C   UNL     1       0.782   1.100  23.241  0.00  0.00    +0.024 A 
ATOM     25  C   UNL     1       3.557   0.663  23.268  0.00  0.00    -0.016 A 
ATOM     26  C   UNL     1       3.192  -1.681  23.810  0.00  0.00    +0.010 A 
ATOM     27  C   UNL     1       1.655   2.153  22.979  0.00  0.00    +0.002 A 
ATOM     28  C   UNL     1       3.032   1.937  22.993  0.00  0.00    +0.008 A 
ATOM     30  C   UNL     1       4.941   0.428  23.286  0.00  0.00    +0.008 A 
ATOM     31  C   UNL     1       4.570  -1.896  23.823  0.00  0.00    +0.001 A 
ATOM     32  C   UNL     1       5.443  -0.844  23.562  0.00  0.00    +0.001 A 
ENDBRANCH  11  21
ENDBRANCH   4  19
ENDBRANCH  15   4
TORSDOF 7
ENDMDL
MODEL 2
REMARK VINA RESULT:       2.4      2.428      6.074
REMARK  Name = 11886013
REMARK  7 active torsions:
REMARK  status: ('A' for Active; 'I' for Inactive)
REMARK    1  A    between atoms: S_1  and  C_18
REMARK    2  A    between atoms: S_1  and  C_20
REMARK    3  A    between atoms: O_4  and  C_15
REMARK    4  A    between atoms: O_4  and  C_19
REMARK    5  A    between atoms: N_7  and  C_14
REMARK    6  A    between atoms: N_11  and  C_21
REMARK    7  A    between atoms: C_20  and  C_23
REMARK                            x       y       z     vdW  Elec       q    Type
REMARK                         _______ _______ _______ _____ _____    ______ ____
ROOT
ATOM      2  O   UNL     1      -3.792   1.866  24.549  0.00  0.00    -0.368 OA
ATOM      3  O   UNL     1      -3.895   4.818  25.461  0.00  0.00    -0.368 OA
ATOM     12  C   UNL     1      -3.012   3.727  25.805  0.00  0.00    +0.177 C 
ATOM     13  C   UNL     1      -3.862   2.473  25.849  0.00  0.00    +0.192 C 
ATOM     14  C   UNL     1      -2.039   3.486  24.666  0.00  0.00    +0.168 C 
ATOM     15  C   UNL     1      -5.241   3.017  26.137  0.00  0.00    +0.235 C 
ATOM     16  C   UNL     1      -2.821   2.553  23.748  0.00  0.00    +0.190 C 
ATOM     17  C   UNL     1      -5.236   4.318  25.370  0.00  0.00    +0.207 C 
ENDROOT
BRANCH  14   7
ATOM      7  N   UNL     1      -0.749   2.972  25.132  0.00  0.00    -0.212 N 
ATOM      8  N   UNL     1      -0.281   3.322  26.335  0.00  0.00    -0.043 NA
ATOM      9  N   UNL     1       1.152   1.953  25.314  0.00  0.00    -0.101 NA
ATOM     10  N   UNL     1       0.884   2.695  26.442  0.00  0.00    -0.022 NA
ATOM     18  C   UNL     1       0.125   2.140  24.516  0.00  0.00    +0.210 A 
BRANCH  18   1
ATOM      1  S   UNL     1      -0.123   1.470  22.952  0.00  0.00    -0.077 S 
BRANCH   1  20
ATOM     20  C   UNL     1       0.798  -0.092  23.075  0.00  0.00    +0.151 C 
BRANCH  20  23
ATOM      6  O   UNL     1       3.039  -0.899  23.396  0.00  0.00    -0.467 OA
ATOM     23  C   UNL     1       2.280   0.144  23.013  0.00  0.00    +0.115 A 
ATOM     29  C   UNL     1       3.014   1.218  22.641  0.00  0.00    +0.045 A 
ATOM     33  C   UNL     1       4.363   0.819  22.805  0.00  0.00    +0.041 A 
ATOM     34  C   UNL     1       4.324  -0.476  23.264  0.00  0.00    +0.195 A 
ENDBRANCH  20  23
ENDBRANCH   1  20
ENDBRANCH  18   1
ENDBRANCH  14   7
BRANCH  15   4
ATOM      4  O   UNL     1      -6.282   2.161  25.725  0.00  0.00    -0.442 OA
BRANCH   4  19
ATOM      5  O   UNL     1      -6.456   1.017  23.753  0.00  0.00    -0.226 OA
ATOM     11  N   UNL     1      -4.983   0.338  25.440  0.00  0.00    -0.251 N 
ATOM     19  C   UNL     1      -5.946   1.141  24.859  0.00  0.00    +0.405 C 
ATOM     35  H   UNL     1      -4.703   0.631  26.369  0.00  0.00    +0.158 HD
BRANCH  11  21
ATOM     21  C   UNL     1      -4.364  -0.810  24.898  0.00  0.00    +0.044 A 
ATOM     22  C   UNL     1      -3.034  -1.126  25.190  0.00  0.00    +0.003 A 
ATOM     24  C   UNL     1      -5.136  -1.609  24.063  0.00  0.00    +0.024 A 
ATOM     25  C   UNL     1      -2.468  -2.290  24.618  0.00  0.00    -0.016 A 
ATOM     26  C   UNL     1      -2.249  -0.323  26.033  0.00  0.00    +0.010 A 
ATOM     27  C   UNL     1      -4.578  -2.754  23.501  0.00  0.00    +0.002 A 
ATOM     28  C   UNL     1      -3.254  -3.093  23.775  0.00  0.00    +0.008 A 
ATOM     30  C   UNL     1      -1.132  -2.616  24.905  0.00  0.00    +0.008 A 
ATOM     31  C   UNL     1      -0.924  -0.662  26.307  0.00  0.00    +0.001 A 
ATOM     32  C   UNL     1      -0.366  -1.807  25.744  0.00  0.00    +0.001 A 
ENDBRANCH  11  21
ENDBRANCH   4  19
ENDBRANCH  15   4
TORSDOF 7
ENDMDL
MODEL 3
REMARK VINA RESULT:       2.5      2.233      6.575
REMARK  Name = 11886013
REMARK  7 active torsions:
REMARK  status: ('A' for Active; 'I' for Inactive)
REMARK    1  A    between atoms: S_1  and  C_18
REMARK    2  A    between atoms: S_1  and  C_20
REMARK    3  A    between atoms: O_4  and  C_15
REMARK    4  A    between atoms: O_4  and  C_19
REMARK    5  A    between atoms: N_7  and  C_14
REMARK    6  A    between atoms: N_11  and  C_21
REMARK    7  A    between atoms: C_20  and  C_23
REMARK                            x       y       z     vdW  Elec       q    Type
REMARK                         _______ _______ _______ _____ _____    ______ ____
ROOT
ATOM      2  O   UNL     1      -2.489  -0.187  25.560  0.00  0.00    -0.368 OA
ATOM      3  O   UNL     1      -1.462  -2.488  23.769  0.00  0.00    -0.368 OA
ATOM     12  C   UNL     1      -1.251  -1.059  23.728  0.00  0.00    +0.177 C 
ATOM     13  C   UNL     1      -2.558  -0.412  24.143  0.00  0.00    +0.192 C 
ATOM     14  C   UNL     1      -0.269  -0.660  24.813  0.00  0.00    +0.168 C 
ATOM     15  C   UNL     1      -3.577  -1.471  23.795  0.00  0.00    +0.235 C 
ATOM     16  C   UNL     1      -1.168  -0.485  26.033  0.00  0.00    +0.190 C 
ATOM     17  C   UNL     1      -2.831  -2.746  24.108  0.00  0.00    +0.207 C 
ENDROOT
BRANCH  14   7
ATOM      7  N   UNL     1       0.525   0.514  24.444  0.00  0.00    -0.212 N 
ATOM      8  N   UNL     1       0.526   1.598  25.228  0.00  0.00    -0.043 NA
ATOM      9  N   UNL     1       1.836   1.922  23.454  0.00  0.00    -0.101 NA
ATOM     10  N   UNL     1       1.331   2.458  24.616  0.00  0.00    -0.022 NA
ATOM     18  C   UNL     1       1.323   0.716  23.368  0.00  0.00    +0.210 A 
BRANCH  18   1
ATOM      1  S   UNL     1       1.584  -0.449  22.131  0.00  0.00    -0.077 S 
BRANCH   1  20
ATOM     20  C   UNL     1       3.262  -0.021  21.576  0.00  0.00    +0.151 C 
BRANCH  20  23
ATOM      6  O   UNL     1       4.280  -1.256  23.368  0.00  0.00    -0.467 OA
ATOM     23  C   UNL     1       4.242  -0.083  22.712  0.00  0.00    +0.115 A 
ATOM     29  C   UNL     1       5.111   0.826  23.213  0.00  0.00    +0.045 A 
ATOM     33  C   UNL     1       5.757   0.168  24.286  0.00  0.00    +0.041 A 
ATOM     34  C   UNL     1       5.218  -1.096  24.339  0.00  0.00    +0.195 A 
ENDBRANCH  20  23
ENDBRANCH   1  20
ENDBRANCH  18   1
ENDBRANCH  14   7
BRANCH  15   4
ATOM      4  O   UNL     1      -4.775  -1.362  24.529  0.00  0.00    -0.442 OA
BRANCH   4  19
ATOM      5  O   UNL     1      -5.105  -0.292  26.522  0.00  0.00    -0.226 OA
ATOM     11  N   UNL     1      -4.848   0.892  24.520  0.00  0.00    -0.251 N 
ATOM     19  C   UNL     1      -4.929  -0.237  25.311  0.00  0.00    +0.405 C 
ATOM     35  H   UNL     1      -4.695   0.700  23.537  0.00  0.00    +0.158 HD
BRANCH  11  21
ATOM     21  C   UNL     1      -4.951   2.244  24.918  0.00  0.00    +0.044 A 
ATOM     22  C   UNL     1      -3.838   3.089  24.916  0.00  0.00    +0.003 A 
ATOM     24  C   UNL     1      -6.206   2.693  25.309  0.00  0.00    +0.024 A 
ATOM     25  C   UNL     1      -4.001   4.435  25.324  0.00  0.00    -0.016 A 
ATOM     26  C   UNL     1      -2.567   2.641  24.521  0.00  0.00    +0.010 A 
ATOM     27  C   UNL     1      -6.367   4.017  25.711  0.00  0.00    +0.002 A 
ATOM     28  C   UNL     1      -5.273   4.882  25.719  0.00  0.00    +0.008 A 
ATOM     30  C   UNL     1      -2.889   5.292  25.327  0.00  0.00    +0.008 A 
ATOM     31  C   UNL     1      -1.473   3.507  24.530  0.00  0.00    +0.001 A 
ATOM     32  C   UNL     1      -1.634   4.830  24.932  0.00  0.00    +0.001 A 
ENDBRANCH  11  21
ENDBRANCH   4  19
ENDBRANCH  15   4
TORSDOF 7
ENDMDL
MODEL 4
REMARK VINA RESULT:       2.9      2.687      4.646
REMARK  Name = 11886013
REMARK  7 active torsions:
REMARK  status: ('A' for Active; 'I' for Inactive)
REMARK    1  A    between atoms: S_1  and  C_18
REMARK    2  A    between atoms: S_1  and  C_20
REMARK    3  A    between atoms: O_4  and  C_15
REMARK    4  A    between atoms: O_4  and  C_19
REMARK    5  A    between atoms: N_7  and  C_14
REMARK    6  A    between atoms: N_11  and  C_21
REMARK    7  A    between atoms: C_20  and  C_23
REMARK                            x       y       z     vdW  Elec       q    Type
REMARK                         _______ _______ _______ _____ _____    ______ ____
ROOT
ATOM      2  O   UNL     1      -4.028   2.148  23.583  0.00  0.00    -0.368 OA
ATOM      3  O   UNL     1      -5.578   3.354  25.970  0.00  0.00    -0.368 OA
ATOM     12  C   UNL     1      -4.167   3.274  25.671  0.00  0.00    +0.177 C 
ATOM     13  C   UNL     1      -3.937   1.934  25.000  0.00  0.00    +0.192 C 
ATOM     14  C   UNL     1      -3.815   4.296  24.608  0.00  0.00    +0.168 C 
ATOM     15  C   UNL     1      -5.090   1.104  25.514  0.00  0.00    +0.235 C 
ATOM     16  C   UNL     1      -4.123   3.554  23.312  0.00  0.00    +0.190 C 
ATOM     17  C   UNL     1      -6.204   2.120  25.592  0.00  0.00    +0.207 C 
ENDROOT
BRANCH  14   7
ATOM      7  N   UNL     1      -2.442   4.789  24.738  0.00  0.00    -0.212 N 
ATOM      8  N   UNL     1      -2.070   5.915  24.120  0.00  0.00    -0.043 NA
ATOM      9  N   UNL     1      -0.357   5.051  25.254  0.00  0.00    -0.101 NA
ATOM     10  N   UNL     1      -0.792   6.072  24.440  0.00  0.00    -0.022 NA
ATOM     18  C   UNL     1      -1.397   4.267  25.426  0.00  0.00    +0.210 A 
BRANCH  18   1
ATOM      1  S   UNL     1      -1.479   2.821  26.352  0.00  0.00    -0.077 S 
BRANCH   1  20
ATOM     20  C   UNL     1       0.269   2.326  26.408  0.00  0.00    +0.151 C 
BRANCH  20  23
ATOM      6  O   UNL     1       2.141   2.785  27.844  0.00  0.00    -0.467 OA
ATOM     23  C   UNL     1       0.833   2.476  27.793  0.00  0.00    +0.115 A 
ATOM     29  C   UNL     1       0.272   2.360  29.019  0.00  0.00    +0.045 A 
ATOM     33  C   UNL     1       1.323   2.618  29.932  0.00  0.00    +0.041 A 
ATOM     34  C   UNL     1       2.438   2.872  29.168  0.00  0.00    +0.195 A 
ENDBRANCH  20  23
ENDBRANCH   1  20
ENDBRANCH  18   1
ENDBRANCH  14   7
BRANCH  15   4
ATOM      4  O   UNL     1      -5.418   0.018  24.678  0.00  0.00    -0.442 OA
BRANCH   4  19
ATOM      5  O   UNL     1      -4.586  -1.876  23.705  0.00  0.00    -0.226 OA
ATOM     11  N   UNL     1      -3.230  -0.447  24.968  0.00  0.00    -0.251 N 
ATOM     19  C   UNL     1      -4.408  -0.874  24.385  0.00  0.00    +0.405 C 
ATOM     35  H   UNL     1      -3.315   0.418  25.490  0.00  0.00    +0.158 HD
BRANCH  11  21
ATOM     21  C   UNL     1      -1.959  -1.063  24.917  0.00  0.00    +0.044 A 
ATOM     22  C   UNL     1      -0.879  -0.449  24.278  0.00  0.00    +0.003 A 
ATOM     24  C   UNL     1      -1.835  -2.303  25.530  0.00  0.00    +0.024 A 
ATOM     25  C   UNL     1       0.370  -1.115  24.260  0.00  0.00    -0.016 A 
ATOM     26  C   UNL     1      -0.999   0.804  23.657  0.00  0.00    +0.010 A 
ATOM     27  C   UNL     1      -0.606  -2.958  25.512  0.00  0.00    +0.002 A 
ATOM     28  C   UNL     1       0.489  -2.369  24.881  0.00  0.00    +0.008 A 
ATOM     30  C   UNL     1       1.463  -0.507  23.620  0.00  0.00    +0.008 A 
ATOM     31  C   UNL     1       0.098   1.393  23.026  0.00  0.00    +0.001 A 
ATOM     32  C   UNL     1       1.326   0.739  23.007  0.00  0.00    +0.001 A 
ENDBRANCH  11  21
ENDBRANCH   4  19
ENDBRANCH  15   4
TORSDOF 7
ENDMDL
MODEL 5
REMARK VINA RESULT:       3.0      2.085      6.852
REMARK  Name = 11886013
REMARK  7 active torsions:
REMARK  status: ('A' for Active; 'I' for Inactive)
REMARK    1  A    between atoms: S_1  and  C_18
REMARK    2  A    between atoms: S_1  and  C_20
REMARK    3  A    between atoms: O_4  and  C_15
REMARK    4  A    between atoms: O_4  and  C_19
REMARK    5  A    between atoms: N_7  and  C_14
REMARK    6  A    between atoms: N_11  and  C_21
REMARK    7  A    between atoms: C_20  and  C_23
REMARK                            x       y       z     vdW  Elec       q    Type
REMARK                         _______ _______ _______ _____ _____    ______ ____
ROOT
ATOM      2  O   UNL     1      -2.374  -0.381  23.587  0.00  0.00    -0.368 OA
ATOM      3  O   UNL     1      -0.522  -0.822  26.023  0.00  0.00    -0.368 OA
ATOM     12  C   UNL     1      -0.375  -1.145  24.622  0.00  0.00    +0.177 C 
ATOM     13  C   UNL     1      -1.746  -1.556  24.122  0.00  0.00    +0.192 C 
ATOM     14  C   UNL     1      -0.050   0.114  23.843  0.00  0.00    +0.168 C 
ATOM     15  C   UNL     1      -2.431  -2.030  25.383  0.00  0.00    +0.235 C 
ATOM     16  C   UNL     1      -1.429   0.698  23.556  0.00  0.00    +0.190 C 
ATOM     17  C   UNL     1      -1.874  -1.084  26.421  0.00  0.00    +0.207 C 
ENDROOT
BRANCH  14   7
ATOM      7  N   UNL     1       0.776  -0.155  22.663  0.00  0.00    -0.212 N 
ATOM      8  N   UNL     1       0.401  -1.085  21.779  0.00  0.00    -0.043 NA
ATOM      9  N   UNL     1       2.321  -0.144  21.149  0.00  0.00    -0.101 NA
ATOM     10  N   UNL     1       1.352  -1.075  20.853  0.00  0.00    -0.022 NA
ATOM     18  C   UNL     1       1.943   0.415  22.276  0.00  0.00    +0.210 A 
BRANCH  18   1
ATOM      1  S   UNL     1       2.746   1.657  23.151  0.00  0.00    -0.077 S 
BRANCH   1  20
ATOM     20  C   UNL     1       4.477   1.382  22.669  0.00  0.00    +0.151 C 
BRANCH  20  23
ATOM      6  O   UNL     1       4.215  -0.883  23.425  0.00  0.00    -0.467 OA
ATOM     23  C   UNL     1       5.046   0.172  23.351  0.00  0.00    +0.115 A 
ATOM     29  C   UNL     1       6.252  -0.069  23.916  0.00  0.00    +0.045 A 
ATOM     33  C   UNL     1       6.178  -1.400  24.393  0.00  0.00    +0.041 A 
ATOM     34  C   UNL     1       4.920  -1.852  24.069  0.00  0.00    +0.195 A 
ENDBRANCH  20  23
ENDBRANCH   1  20
ENDBRANCH  18   1
ENDBRANCH  14   7
BRANCH  15   4
ATOM      4  O   UNL     1      -3.837  -1.976  25.314  0.00  0.00    -0.442 OA
BRANCH   4  19
ATOM      5  O   UNL     1      -5.045  -0.757  23.803  0.00  0.00    -0.226 OA
ATOM     11  N   UNL     1      -4.102   0.230  25.704  0.00  0.00    -0.251 N 
ATOM     19  C   UNL     1      -4.395  -0.807  24.841  0.00  0.00    +0.405 C 
ATOM     35  H   UNL     1      -3.547  -0.043  26.508  0.00  0.00    +0.158 HD
BRANCH  11  21
ATOM     21  C   UNL     1      -4.480   1.588  25.596  0.00  0.00    +0.044 A 
ATOM     22  C   UNL     1      -3.524   2.607  25.562  0.00  0.00    +0.003 A 
ATOM     24  C   UNL     1      -5.840   1.860  25.525  0.00  0.00    +0.024 A 
ATOM     25  C   UNL     1      -3.963   3.949  25.452  0.00  0.00    -0.016 A 
ATOM     26  C   UNL     1      -2.148   2.338  25.634  0.00  0.00    +0.010 A 
ATOM     27  C   UNL     1      -6.271   3.179  25.416  0.00  0.00    +0.002 A 
ATOM     28  C   UNL     1      -5.340   4.217  25.380  0.00  0.00    +0.008 A 
ATOM     30  C   UNL     1      -3.012   4.982  25.417  0.00  0.00    +0.008 A 
ATOM     31  C   UNL     1      -1.218   3.377  25.598  0.00  0.00    +0.001 A 
ATOM     32  C   UNL     1      -1.648   4.696  25.490  0.00  0.00    +0.001 A 
ENDBRANCH  11  21
ENDBRANCH   4  19
ENDBRANCH  15   4
TORSDOF 7
ENDMDL
MODEL 6
REMARK VINA RESULT:       3.1      2.977      5.958
REMARK  Name = 11886013
REMARK  7 active torsions:
REMARK  status: ('A' for Active; 'I' for Inactive)
REMARK    1  A    between atoms: S_1  and  C_18
REMARK    2  A    between atoms: S_1  and  C_20
REMARK    3  A    between atoms: O_4  and  C_15
REMARK    4  A    between atoms: O_4  and  C_19
REMARK    5  A    between atoms: N_7  and  C_14
REMARK    6  A    between atoms: N_11  and  C_21
REMARK    7  A    between atoms: C_20  and  C_23
REMARK                            x       y       z     vdW  Elec       q    Type
REMARK                         _______ _______ _______ _____ _____    ______ ____
ROOT
ATOM      2  O   UNL     1      -3.804   1.901  23.817  0.00  0.00    -0.368 OA
ATOM      3  O   UNL     1      -2.999   4.747  24.717  0.00  0.00    -0.368 OA
ATOM     12  C   UNL     1      -2.330   3.471  24.823  0.00  0.00    +0.177 C 
ATOM     13  C   UNL     1      -3.404   2.434  25.089  0.00  0.00    +0.192 C 
ATOM     14  C   UNL     1      -1.757   3.085  23.473  0.00  0.00    +0.168 C 
ATOM     15  C   UNL     1      -4.505   3.252  25.723  0.00  0.00    +0.235 C 
ATOM     16  C   UNL     1      -2.937   2.401  22.790  0.00  0.00    +0.190 C 
ATOM     17  C   UNL     1      -4.397   4.561  24.977  0.00  0.00    +0.207 C 
ENDROOT
BRANCH  14   7
ATOM      7  N   UNL     1      -0.543   2.274  23.591  0.00  0.00    -0.212 N 
ATOM      8  N   UNL     1      -0.300   1.296  22.711  0.00  0.00    -0.043 NA
ATOM      9  N   UNL     1       1.341   1.413  24.215  0.00  0.00    -0.101 NA
ATOM     10  N   UNL     1       0.856   0.772  23.098  0.00  0.00    -0.022 NA
ATOM     18  C   UNL     1       0.457   2.341  24.502  0.00  0.00    +0.210 A 
BRANCH  18   1
ATOM      1  S   UNL     1       0.508   3.473  25.795  0.00  0.00    -0.077 S 
BRANCH   1  20
ATOM     20  C   UNL     1      -0.035   2.451  27.196  0.00  0.00    +0.151 C 
BRANCH  20  23
ATOM      6  O   UNL     1       2.196   2.902  27.967  0.00  0.00    -0.467 OA
ATOM     23  C   UNL     1       0.965   2.489  28.317  0.00  0.00    +0.115 A 
ATOM     29  C   UNL     1       0.867   2.185  29.632  0.00  0.00    +0.045 A 
ATOM     33  C   UNL     1       2.156   2.425  30.164  0.00  0.00    +0.041 A 
ATOM     34  C   UNL     1       2.928   2.861  29.112  0.00  0.00    +0.195 A 
ENDBRANCH  20  23
ENDBRANCH   1  20
ENDBRANCH  18   1
ENDBRANCH  14   7
BRANCH  15   4
ATOM      4  O   UNL     1      -5.782   2.672  25.595  0.00  0.00    -0.442 OA
BRANCH   4  19
ATOM      5  O   UNL     1      -6.837   1.015  24.425  0.00  0.00    -0.226 OA
ATOM     11  N   UNL     1      -4.651   0.756  25.220  0.00  0.00    -0.251 N 
ATOM     19  C   UNL     1      -5.845   1.421  25.018  0.00  0.00    +0.405 C 
ATOM     35  H   UNL     1      -3.963   1.288  25.740  0.00  0.00    +0.158 HD
BRANCH  11  21
ATOM     21  C   UNL     1      -4.294  -0.543  24.794  0.00  0.00    +0.044 A 
ATOM     22  C   UNL     1      -3.014  -1.055  25.019  0.00  0.00    +0.003 A 
ATOM     24  C   UNL     1      -5.273  -1.285  24.145  0.00  0.00    +0.024 A 
ATOM     25  C   UNL     1      -2.714  -2.364  24.570  0.00  0.00    -0.016 A 
ATOM     26  C   UNL     1      -2.021  -0.310  25.674  0.00  0.00    +0.010 A 
ATOM     27  C   UNL     1      -4.979  -2.573  23.704  0.00  0.00    +0.002 A 
ATOM     28  C   UNL     1      -3.708  -3.109  23.914  0.00  0.00    +0.008 A 
ATOM     30  C   UNL     1      -1.430  -2.889  24.789  0.00  0.00    +0.008 A 
ATOM     31  C   UNL     1      -0.750  -0.848  25.883  0.00  0.00    +0.001 A 
ATOM     32  C   UNL     1      -0.455  -2.134  25.442  0.00  0.00    +0.001 A 
ENDBRANCH  11  21
ENDBRANCH   4  19
ENDBRANCH  15   4
TORSDOF 7
ENDMDL
MODEL 7
REMARK VINA RESULT:       3.5      2.206      6.196
REMARK  Name = 11886013
REMARK  7 active torsions:
REMARK  status: ('A' for Active; 'I' for Inactive)
REMARK    1  A    between atoms: S_1  and  C_18
REMARK    2  A    between atoms: S_1  and  C_20
REMARK    3  A    between atoms: O_4  and  C_15
REMARK    4  A    between atoms: O_4  and  C_19
REMARK    5  A    between atoms: N_7  and  C_14
REMARK    6  A    between atoms: N_11  and  C_21
REMARK    7  A    between atoms: C_20  and  C_23
REMARK                            x       y       z     vdW  Elec       q    Type
REMARK                         _______ _______ _______ _____ _____    ______ ____
ROOT
ATOM      2  O   UNL     1      -1.032  -1.527  25.588  0.00  0.00    -0.368 OA
ATOM      3  O   UNL     1      -0.926  -3.373  23.111  0.00  0.00    -0.368 OA
ATOM     12  C   UNL     1      -0.637  -1.969  23.286  0.00  0.00    +0.177 C 
ATOM     13  C   UNL     1      -1.641  -1.437  24.290  0.00  0.00    +0.192 C 
ATOM     14  C   UNL     1       0.706  -1.810  23.973  0.00  0.00    +0.168 C 
ATOM     15  C   UNL     1      -2.795  -2.401  24.147  0.00  0.00    +0.235 C 
ATOM     16  C   UNL     1       0.343  -1.912  25.451  0.00  0.00    +0.190 C 
ATOM     17  C   UNL     1      -2.086  -3.709  23.884  0.00  0.00    +0.207 C 
ENDROOT
BRANCH  14   7
ATOM      7  N   UNL     1       1.394  -0.578  23.579  0.00  0.00    -0.212 N 
ATOM      8  N   UNL     1       2.636  -0.630  23.086  0.00  0.00    -0.043 NA
ATOM      9  N   UNL     1       1.922   1.480  23.169  0.00  0.00    -0.101 NA
ATOM     10  N   UNL     1       2.955   0.634  22.837  0.00  0.00    -0.022 NA
ATOM     18  C   UNL     1       0.964   0.706  23.627  0.00  0.00    +0.210 A 
BRANCH  18   1
ATOM      1  S   UNL     1      -0.585   1.183  24.199  0.00  0.00    -0.077 S 
BRANCH   1  20
ATOM     20  C   UNL     1      -0.143   2.254  25.599  0.00  0.00    +0.151 C 
BRANCH  20  23
ATOM      6  O   UNL     1      -1.928   3.722  26.259  0.00  0.00    -0.467 OA
ATOM     23  C   UNL     1      -0.825   3.589  25.500  0.00  0.00    +0.115 A 
ATOM     29  C   UNL     1      -0.543   4.702  24.784  0.00  0.00    +0.045 A 
ATOM     33  C   UNL     1      -1.561   5.626  25.120  0.00  0.00    +0.041 A 
ATOM     34  C   UNL     1      -2.378   4.983  26.021  0.00  0.00    +0.195 A 
ENDBRANCH  20  23
ENDBRANCH   1  20
ENDBRANCH  18   1
ENDBRANCH  14   7
BRANCH  15   4
ATOM      4  O   UNL     1      -3.621  -2.464  25.287  0.00  0.00    -0.442 OA
BRANCH   4  19
ATOM      5  O   UNL     1      -3.753  -1.069  27.094  0.00  0.00    -0.226 OA
ATOM     11  N   UNL     1      -4.455  -0.393  24.965  0.00  0.00    -0.251 N 
ATOM     19  C   UNL     1      -3.934  -1.268  25.899  0.00  0.00    +0.405 C 
ATOM     35  H   UNL     1      -4.512  -0.772  24.027  0.00  0.00    +0.158 HD
BRANCH  11  21
ATOM     21  C   UNL     1      -4.901   0.933  25.168  0.00  0.00    +0.044 A 
ATOM     22  C   UNL     1      -4.468   1.979  24.348  0.00  0.00    +0.003 A 
ATOM     24  C   UNL     1      -5.787   1.147  26.216  0.00  0.00    +0.024 A 
ATOM     25  C   UNL     1      -4.949   3.286  24.599  0.00  0.00    -0.016 A 
ATOM     26  C   UNL     1      -3.572   1.768  23.288  0.00  0.00    +0.010 A 
ATOM     27  C   UNL     1      -6.261   2.433  26.462  0.00  0.00    +0.002 A 
ATOM     28  C   UNL     1      -5.845   3.495  25.661  0.00  0.00    +0.008 A 
ATOM     30  C   UNL     1      -4.520   4.345  23.783  0.00  0.00    +0.008 A 
ATOM     31  C   UNL     1      -3.156   2.832  22.487  0.00  0.00    +0.001 A 
ATOM     32  C   UNL     1      -3.629   4.118  22.733  0.00  0.00    +0.001 A 
ENDBRANCH  11  21
ENDBRANCH   4  19
ENDBRANCH  15   4
TORSDOF 7
ENDMDL
MODEL 8
REMARK VINA RESULT:       3.5      2.448      6.058
REMARK  Name = 11886013
REMARK  7 active torsions:
REMARK  status: ('A' for Active; 'I' for Inactive)
REMARK    1  A    between atoms: S_1  and  C_18
REMARK    2  A    between atoms: S_1  and  C_20
REMARK    3  A    between atoms: O_4  and  C_15
REMARK    4  A    between atoms: O_4  and  C_19
REMARK    5  A    between atoms: N_7  and  C_14
REMARK    6  A    between atoms: N_11  and  C_21
REMARK    7  A    between atoms: C_20  and  C_23
REMARK                            x       y       z     vdW  Elec       q    Type
REMARK                         _______ _______ _______ _____ _____    ______ ____
ROOT
ATOM      2  O   UNL     1      -2.411  -0.543  25.274  0.00  0.00    -0.368 OA
ATOM      3  O   UNL     1      -1.559  -3.097  23.756  0.00  0.00    -0.368 OA
ATOM     12  C   UNL     1      -1.238  -1.702  23.563  0.00  0.00    +0.177 C 
ATOM     13  C   UNL     1      -2.491  -0.915  23.890  0.00  0.00    +0.192 C 
ATOM     14  C   UNL     1      -0.232  -1.264  24.611  0.00  0.00    +0.168 C 
ATOM     15  C   UNL     1      -3.589  -1.924  23.645  0.00  0.00    +0.235 C 
ATOM     16  C   UNL     1      -1.119  -0.889  25.793  0.00  0.00    +0.190 C 
ATOM     17  C   UNL     1      -2.946  -3.211  24.103  0.00  0.00    +0.207 C 
ENDROOT
BRANCH  14   7
ATOM      7  N   UNL     1       0.653  -0.202  24.128  0.00  0.00    -0.212 N 
ATOM      8  N   UNL     1       1.522  -0.448  23.141  0.00  0.00    -0.043 NA
ATOM      9  N   UNL     1       1.690   1.671  23.812  0.00  0.00    -0.101 NA
ATOM     10  N   UNL     1       2.154   0.703  22.951  0.00  0.00    -0.022 NA
ATOM     18  C   UNL     1       0.759   1.087  24.532  0.00  0.00    +0.210 A 
BRANCH  18   1
ATOM      1  S   UNL     1      -0.193   1.785  25.782  0.00  0.00    -0.077 S 
BRANCH   1  20
ATOM     20  C   UNL     1       0.941   3.044  26.443  0.00  0.00    +0.151 C 
BRANCH  20  23
ATOM      6  O   UNL     1       2.575   2.968  28.202  0.00  0.00    -0.467 OA
ATOM     23  C   UNL     1       1.286   2.765  27.877  0.00  0.00    +0.115 A 
ATOM     29  C   UNL     1       0.542   2.342  28.925  0.00  0.00    +0.045 A 
ATOM     33  C   UNL     1       1.443   2.269  30.014  0.00  0.00    +0.041 A 
ATOM     34  C   UNL     1       2.667   2.661  29.523  0.00  0.00    +0.195 A 
ENDBRANCH  20  23
ENDBRANCH   1  20
ENDBRANCH  18   1
ENDBRANCH  14   7
BRANCH  15   4
ATOM      4  O   UNL     1      -4.778  -1.644  24.348  0.00  0.00    -0.442 OA
BRANCH   4  19
ATOM      5  O   UNL     1      -4.675  -0.597  26.378  0.00  0.00    -0.226 OA
ATOM     11  N   UNL     1      -4.900   0.608  24.384  0.00  0.00    -0.251 N 
ATOM     19  C   UNL     1      -4.776  -0.528  25.159  0.00  0.00    +0.405 C 
ATOM     35  H   UNL     1      -4.968   0.427  23.389  0.00  0.00    +0.158 HD
BRANCH  11  21
ATOM     21  C   UNL     1      -4.940   1.955  24.812  0.00  0.00    +0.044 A 
ATOM     22  C   UNL     1      -3.868   2.822  24.586  0.00  0.00    +0.003 A 
ATOM     24  C   UNL     1      -6.092   2.375  25.466  0.00  0.00    +0.024 A 
ATOM     25  C   UNL     1      -3.965   4.160  25.038  0.00  0.00    -0.016 A 
ATOM     26  C   UNL     1      -2.701   2.403  23.926  0.00  0.00    +0.010 A 
ATOM     27  C   UNL     1      -6.188   3.691  25.910  0.00  0.00    +0.002 A 
ATOM     28  C   UNL     1      -5.132   4.577  25.698  0.00  0.00    +0.008 A 
ATOM     30  C   UNL     1      -2.893   5.039  24.817  0.00  0.00    +0.008 A 
ATOM     31  C   UNL     1      -1.646   3.291  23.715  0.00  0.00    +0.001 A 
ATOM     32  C   UNL     1      -1.742   4.606  24.159  0.00  0.00    +0.001 A 
ENDBRANCH  11  21
ENDBRANCH   4  19
ENDBRANCH  15   4
TORSDOF 7
ENDMDL
