MODEL 1
REMARK VINA RESULT:       1.8      0.000      0.000
REMARK  Name = 71693271
REMARK  8 active torsions:
REMARK  status: ('A' for Active; 'I' for Inactive)
REMARK    1  A    between atoms: O_2  and  C_11
REMARK    2  A    between atoms: N_6  and  C_13
REMARK    3  A    between atoms: N_7  and  C_21
REMARK    4  A    between atoms: C_9  and  C_11
REMARK    5  A    between atoms: C_10  and  C_12
REMARK    6  A    between atoms: C_13  and  C_16
REMARK    7  A    between atoms: C_27  and  C_28
REMARK    8  A    between atoms: C_30  and  C_31
REMARK                            x       y       z     vdW  Elec       q    Type
REMARK                         _______ _______ _______ _____ _____    ______ ____
ROOT
ATOM      1  O   UNL     1      -4.584   0.065  24.738  0.00  0.00    -0.361 OA
ATOM      3  O   UNL     1      -6.139   1.995  27.099  0.00  0.00    -0.273 OA
ATOM      6  N   UNL     1      -4.692   2.687  25.403  0.00  0.00    -0.287 N 
ATOM      9  C   UNL     1      -4.220   2.437  24.037  0.00  0.00    +0.135 C 
ATOM     10  C   UNL     1      -3.956   0.929  23.785  0.00  0.00    +0.171 C 
ATOM     14  C   UNL     1      -5.577   1.808  26.021  0.00  0.00    +0.242 C 
ATOM     15  C   UNL     1      -5.820   0.552  25.219  0.00  0.00    +0.256 C 
ENDROOT
BRANCH  10  12
ATOM     12  C   UNL     1      -2.471   0.619  23.813  0.00  0.00    -0.017 A 
ATOM     17  C   UNL     1      -2.015  -0.559  24.404  0.00  0.00    +0.008 A 
ATOM     18  C   UNL     1      -1.562   1.514  23.247  0.00  0.00    +0.008 A 
ATOM     19  C   UNL     1      -0.649  -0.843  24.429  0.00  0.00    +0.023 A 
ATOM     20  C   UNL     1      -0.196   1.230  23.273  0.00  0.00    +0.023 A 
ATOM     21  C   UNL     1       0.260   0.051  23.863  0.00  0.00    +0.034 A 
BRANCH  21   7
ATOM      4  O   UNL     1       2.281   0.067  21.649  0.00  0.00    -0.268 OA
ATOM      7  N   UNL     1       1.625  -0.233  23.888  0.00  0.00    -0.280 N 
ATOM     27  C   UNL     1       2.530  -0.210  22.818  0.00  0.00    +0.270 C 
ATOM     33  H   UNL     1       2.003  -0.483  24.799  0.00  0.00    +0.155 HD
BRANCH  27  28
ATOM      5  O   UNL     1       5.597  -1.650  23.992  0.00  0.00    -0.359 OA
ATOM      8  N   UNL     1       4.216  -1.658  23.837  0.00  0.00    -0.073 NA
ATOM     28  C   UNL     1       3.938  -0.536  23.166  0.00  0.00    +0.168 A 
ATOM     29  C   UNL     1       5.092   0.211  22.874  0.00  0.00    +0.080 A 
ATOM     30  C   UNL     1       6.107  -0.533  23.414  0.00  0.00    +0.135 A 
ATOM     31  C   UNL     1       7.564  -0.363  23.487  0.00  0.00    +0.089 C 
ENDBRANCH  27  28
ENDBRANCH  21   7
ENDBRANCH  10  12
BRANCH   9  11
ATOM     11  C   UNL     1      -5.208   3.006  23.009  0.00  0.00    +0.181 C 
BRANCH  11   2
ATOM      2  O   UNL     1      -4.467   3.671  22.007  0.00  0.00    -0.393 OA
ATOM     32  H   UNL     1      -3.673   3.137  21.833  0.00  0.00    +0.209 HD
ENDBRANCH  11   2
ENDBRANCH   9  11
BRANCH   6  13
ATOM     13  C   UNL     1      -4.317   3.942  26.037  0.00  0.00    +0.143 C 
BRANCH  13  16
ATOM     16  C   UNL     1      -2.908   4.341  25.705  0.00  0.00    -0.030 A 
ATOM     22  C   UNL     1      -2.657   5.563  25.084  0.00  0.00    +0.005 A 
ATOM     23  C   UNL     1      -1.851   3.487  26.019  0.00  0.00    +0.005 A 
ATOM     24  C   UNL     1      -1.347   5.934  24.776  0.00  0.00    +0.000 A 
ATOM     25  C   UNL     1      -0.542   3.856  25.711  0.00  0.00    +0.000 A 
ATOM     26  C   UNL     1      -0.290   5.079  25.089  0.00  0.00    +0.000 A 
ENDBRANCH  13  16
ENDBRANCH   6  13
TORSDOF 7
ENDMDL
MODEL 2
REMARK VINA RESULT:       2.5      1.527      3.743
REMARK  Name = 71693271
REMARK  8 active torsions:
REMARK  status: ('A' for Active; 'I' for Inactive)
REMARK    1  A    between atoms: O_2  and  C_11
REMARK    2  A    between atoms: N_6  and  C_13
REMARK    3  A    between atoms: N_7  and  C_21
REMARK    4  A    between atoms: C_9  and  C_11
REMARK    5  A    between atoms: C_10  and  C_12
REMARK    6  A    between atoms: C_13  and  C_16
REMARK    7  A    between atoms: C_27  and  C_28
REMARK    8  A    between atoms: C_30  and  C_31
REMARK                            x       y       z     vdW  Elec       q    Type
REMARK                         _______ _______ _______ _____ _____    ______ ____
ROOT
ATOM      1  O   UNL     1      -3.750   3.417  23.302  0.00  0.00    -0.361 OA
ATOM      3  O   UNL     1      -6.635   1.599  23.579  0.00  0.00    -0.273 OA
ATOM      6  N   UNL     1      -4.962   1.890  25.180  0.00  0.00    -0.287 N 
ATOM      9  C   UNL     1      -3.946   2.801  25.718  0.00  0.00    +0.135 C 
ATOM     10  C   UNL     1      -3.125   3.480  24.589  0.00  0.00    +0.171 C 
ATOM     14  C   UNL     1      -5.674   2.219  24.029  0.00  0.00    +0.242 C 
ATOM     15  C   UNL     1      -5.160   3.467  23.352  0.00  0.00    +0.256 C 
ENDROOT
BRANCH  10  12
ATOM     12  C   UNL     1      -1.754   2.844  24.450  0.00  0.00    -0.017 A 
ATOM     17  C   UNL     1      -0.616   3.647  24.382  0.00  0.00    +0.008 A 
ATOM     18  C   UNL     1      -1.633   1.455  24.392  0.00  0.00    +0.008 A 
ATOM     19  C   UNL     1       0.644   3.061  24.256  0.00  0.00    +0.023 A 
ATOM     20  C   UNL     1      -0.373   0.869  24.265  0.00  0.00    +0.023 A 
ATOM     21  C   UNL     1       0.765   1.673  24.198  0.00  0.00    +0.034 A 
BRANCH  21   7
ATOM      4  O   UNL     1       1.880  -0.077  22.034  0.00  0.00    -0.268 OA
ATOM      7  N   UNL     1       2.025   1.087  24.072  0.00  0.00    -0.280 N 
ATOM     27  C   UNL     1       2.497   0.273  23.034  0.00  0.00    +0.270 C 
ATOM     33  H   UNL     1       2.675   1.283  24.830  0.00  0.00    +0.155 HD
BRANCH  27  28
ATOM      5  O   UNL     1       5.557  -1.497  23.639  0.00  0.00    -0.359 OA
ATOM      8  N   UNL     1       4.171  -1.403  23.643  0.00  0.00    -0.073 NA
ATOM     28  C   UNL     1       3.907  -0.181  23.170  0.00  0.00    +0.168 A 
ATOM     29  C   UNL     1       5.075   0.532  22.854  0.00  0.00    +0.080 A 
ATOM     30  C   UNL     1       6.084  -0.339  23.167  0.00  0.00    +0.135 A 
ATOM     31  C   UNL     1       7.549  -0.267  23.094  0.00  0.00    +0.089 C 
ENDBRANCH  27  28
ENDBRANCH  21   7
ENDBRANCH  10  12
BRANCH   9  11
ATOM     11  C   UNL     1      -4.588   3.847  26.640  0.00  0.00    +0.181 C 
BRANCH  11   2
ATOM      2  O   UNL     1      -5.901   4.091  26.181  0.00  0.00    -0.393 OA
ATOM     32  H   UNL     1      -5.842   4.295  25.232  0.00  0.00    +0.209 HD
ENDBRANCH  11   2
ENDBRANCH   9  11
BRANCH   6  13
ATOM     13  C   UNL     1      -5.298   0.705  25.955  0.00  0.00    +0.143 C 
BRANCH  13  16
ATOM     16  C   UNL     1      -4.516  -0.497  25.510  0.00  0.00    -0.030 A 
ATOM     22  C   UNL     1      -4.754  -1.058  24.255  0.00  0.00    +0.005 A 
ATOM     23  C   UNL     1      -3.553  -1.053  26.351  0.00  0.00    +0.005 A 
ATOM     24  C   UNL     1      -4.028  -2.175  23.841  0.00  0.00    +0.000 A 
ATOM     25  C   UNL     1      -2.827  -2.170  25.938  0.00  0.00    +0.000 A 
ATOM     26  C   UNL     1      -3.065  -2.731  24.683  0.00  0.00    +0.000 A 
ENDBRANCH  13  16
ENDBRANCH   6  13
TORSDOF 7
ENDMDL
