MODEL 1
REMARK VINA RESULT:      -4.3      0.000      0.000
REMARK  Name = 56774034
REMARK  12 active torsions:
REMARK  status: ('A' for Active; 'I' for Inactive)
REMARK    1  A    between atoms: N_3  and  C_9
REMARK    2  A    between atoms: N_5  and  C_18
REMARK    3  A    between atoms: N_6  and  C_19
REMARK    4  A    between atoms: N_6  and  C_22
REMARK    5  A    between atoms: N_6  and  C_23
REMARK    6  A    between atoms: C_7  and  C_12
REMARK    7  A    between atoms: C_7  and  C_13
REMARK    8  A    between atoms: C_8  and  C_11
REMARK    9  A    between atoms: C_11  and  C_14
REMARK   10  A    between atoms: C_17  and  C_19
REMARK   11  A    between atoms: C_18  and  C_20
REMARK   12  A    between atoms: C_18  and  C_21
REMARK                            x       y       z     vdW  Elec       q    Type
REMARK                         _______ _______ _______ _____ _____    ______ ____
ROOT
ATOM      7  C   UNL     1      -4.399   3.801  24.981  0.00  0.00    -0.013 C 
ATOM      8  C   UNL     1      -3.245   4.209  25.922  0.00  0.00    +0.004 C 
ATOM      9  C   UNL     1      -4.627   2.591  25.912  0.00  0.00    +0.081 C 
ATOM     10  C   UNL     1      -3.144   2.721  26.317  0.00  0.00    +0.027 C 
ATOM     12  C   UNL     1      -5.517   4.818  24.921  0.00  0.00    +0.013 C 
ATOM     13  C   UNL     1      -3.993   3.392  23.578  0.00  0.00    +0.013 C 
ENDROOT
BRANCH   9   3
ATOM      2  O   UNL     1      -2.832   0.386  25.408  0.00  0.00    -0.253 OA
ATOM      3  N   UNL     1      -4.947   1.321  25.241  0.00  0.00    -0.296 N 
ATOM      5  N   UNL     1      -4.561  -0.783  24.389  0.00  0.00    -0.297 N 
ATOM     15  C   UNL     1      -4.006   0.312  25.045  0.00  0.00    +0.300 C 
ATOM     24  H   UNL     1      -5.887   1.153  24.891  0.00  0.00    +0.151 HD
ATOM     25  H   UNL     1      -5.559  -0.777  24.199  0.00  0.00    +0.150 HD
BRANCH   5  18
ATOM     18  C   UNL     1      -3.799  -1.965  24.062  0.00  0.00    +0.068 C 
ATOM     20  C   UNL     1      -3.228  -2.597  25.325  0.00  0.00    +0.027 C 
ATOM     21  C   UNL     1      -4.662  -2.954  23.290  0.00  0.00    +0.027 C 
ENDBRANCH   5  18
ENDBRANCH   9   3
BRANCH   8  11
ATOM     11  C   UNL     1      -2.001   4.782  25.282  0.00  0.00    +0.063 C 
BRANCH  11  14
ATOM      1  O   UNL     1       0.587   2.318  25.783  0.00  0.00    -0.358 OA
ATOM      4  N   UNL     1      -0.307   3.274  26.248  0.00  0.00    -0.083 NA
ATOM     14  C   UNL     1      -0.938   3.717  25.157  0.00  0.00    +0.084 A 
ATOM     16  C   UNL     1      -0.488   3.082  23.986  0.00  0.00    +0.072 A 
ATOM     17  C   UNL     1       0.470   2.212  24.435  0.00  0.00    +0.151 A 
BRANCH  17  19
ATOM     19  C   UNL     1       1.349   1.239  23.776  0.00  0.00    +0.161 C 
BRANCH  19   6
ATOM      6  N   UNL     1       0.613   0.216  23.012  0.00  0.00    -0.301 NA
ATOM     22  C   UNL     1       0.034  -0.766  23.922  0.00  0.00    +0.105 C 
ATOM     23  C   UNL     1       1.502  -0.427  22.050  0.00  0.00    +0.105 C 
ENDBRANCH  19   6
ENDBRANCH  17  19
ENDBRANCH  11  14
ENDBRANCH   8  11
TORSDOF 6
ENDMDL
MODEL 2
REMARK VINA RESULT:      -3.9      1.802      5.684
REMARK  Name = 56774034
REMARK  12 active torsions:
REMARK  status: ('A' for Active; 'I' for Inactive)
REMARK    1  A    between atoms: N_3  and  C_9
REMARK    2  A    between atoms: N_5  and  C_18
REMARK    3  A    between atoms: N_6  and  C_19
REMARK    4  A    between atoms: N_6  and  C_22
REMARK    5  A    between atoms: N_6  and  C_23
REMARK    6  A    between atoms: C_7  and  C_12
REMARK    7  A    between atoms: C_7  and  C_13
REMARK    8  A    between atoms: C_8  and  C_11
REMARK    9  A    between atoms: C_11  and  C_14
REMARK   10  A    between atoms: C_17  and  C_19
REMARK   11  A    between atoms: C_18  and  C_20
REMARK   12  A    between atoms: C_18  and  C_21
REMARK                            x       y       z     vdW  Elec       q    Type
REMARK                         _______ _______ _______ _____ _____    ______ ____
ROOT
ATOM      7  C   UNL     1      -2.784  -1.940  25.090  0.00  0.00    -0.013 C 
ATOM      8  C   UNL     1      -3.647  -0.788  25.649  0.00  0.00    +0.004 C 
ATOM      9  C   UNL     1      -1.597  -1.320  25.857  0.00  0.00    +0.081 C 
ATOM     10  C   UNL     1      -2.342   0.028  25.767  0.00  0.00    +0.027 C 
ATOM     12  C   UNL     1      -3.234  -3.309  25.550  0.00  0.00    +0.013 C 
ATOM     13  C   UNL     1      -2.575  -1.939  23.588  0.00  0.00    +0.013 C 
ENDROOT
BRANCH   9   3
ATOM      2  O   UNL     1      -0.707   0.531  23.828  0.00  0.00    -0.253 OA
ATOM      3  N   UNL     1      -0.305  -1.329  25.151  0.00  0.00    -0.296 N 
ATOM      5  N   UNL     1       1.306  -0.616  23.669  0.00  0.00    -0.297 N 
ATOM     15  C   UNL     1       0.033  -0.386  24.182  0.00  0.00    +0.300 C 
ATOM     24  H   UNL     1       0.382  -2.050  25.358  0.00  0.00    +0.151 HD
ATOM     25  H   UNL     1       1.867  -1.355  24.082  0.00  0.00    +0.150 HD
BRANCH   5  18
ATOM     18  C   UNL     1       1.898   0.217  22.650  0.00  0.00    +0.068 C 
ATOM     20  C   UNL     1       3.386   0.410  22.916  0.00  0.00    +0.027 C 
ATOM     21  C   UNL     1       1.657  -0.381  21.271  0.00  0.00    +0.027 C 
ENDBRANCH   5  18
ENDBRANCH   9   3
BRANCH   8  11
ATOM     11  C   UNL     1      -4.686  -0.193  24.727  0.00  0.00    +0.063 C 
BRANCH  11  14
ATOM      1  O   UNL     1      -5.178   3.368  25.040  0.00  0.00    -0.358 OA
ATOM      4  N   UNL     1      -5.596   2.051  25.186  0.00  0.00    -0.083 NA
ATOM     14  C   UNL     1      -4.583   1.314  24.723  0.00  0.00    +0.084 A 
ATOM     16  C   UNL     1      -3.509   2.103  24.276  0.00  0.00    +0.072 A 
ATOM     17  C   UNL     1      -3.933   3.387  24.499  0.00  0.00    +0.151 A 
BRANCH  17  19
ATOM     19  C   UNL     1      -3.335   4.708  24.276  0.00  0.00    +0.161 C 
BRANCH  19   6
ATOM      6  N   UNL     1      -2.320   5.063  25.282  0.00  0.00    -0.301 NA
ATOM     22  C   UNL     1      -0.984   4.801  24.759  0.00  0.00    +0.105 C 
ATOM     23  C   UNL     1      -2.553   4.315  26.514  0.00  0.00    +0.105 C 
ENDBRANCH  19   6
ENDBRANCH  17  19
ENDBRANCH  11  14
ENDBRANCH   8  11
TORSDOF 6
ENDMDL
MODEL 3
REMARK VINA RESULT:      -3.6      2.548      5.655
REMARK  Name = 56774034
REMARK  12 active torsions:
REMARK  status: ('A' for Active; 'I' for Inactive)
REMARK    1  A    between atoms: N_3  and  C_9
REMARK    2  A    between atoms: N_5  and  C_18
REMARK    3  A    between atoms: N_6  and  C_19
REMARK    4  A    between atoms: N_6  and  C_22
REMARK    5  A    between atoms: N_6  and  C_23
REMARK    6  A    between atoms: C_7  and  C_12
REMARK    7  A    between atoms: C_7  and  C_13
REMARK    8  A    between atoms: C_8  and  C_11
REMARK    9  A    between atoms: C_11  and  C_14
REMARK   10  A    between atoms: C_17  and  C_19
REMARK   11  A    between atoms: C_18  and  C_20
REMARK   12  A    between atoms: C_18  and  C_21
REMARK                            x       y       z     vdW  Elec       q    Type
REMARK                         _______ _______ _______ _____ _____    ______ ____
ROOT
ATOM      7  C   UNL     1      -1.637   3.845  25.114  0.00  0.00    -0.013 C 
ATOM      8  C   UNL     1      -1.936   3.214  23.737  0.00  0.00    +0.004 C 
ATOM      9  C   UNL     1      -0.479   2.833  25.240  0.00  0.00    +0.081 C 
ATOM     10  C   UNL     1      -1.263   1.930  24.266  0.00  0.00    +0.027 C 
ATOM     12  C   UNL     1      -1.244   5.304  25.037  0.00  0.00    +0.013 C 
ATOM     13  C   UNL     1      -2.704   3.650  26.175  0.00  0.00    +0.013 C 
ENDROOT
BRANCH   9   3
ATOM      2  O   UNL     1       1.592   3.463  27.150  0.00  0.00    -0.253 OA
ATOM      3  N   UNL     1      -0.291   2.241  26.574  0.00  0.00    -0.296 N 
ATOM      5  N   UNL     1       0.699   1.908  28.626  0.00  0.00    -0.297 N 
ATOM     15  C   UNL     1       0.745   2.615  27.428  0.00  0.00    +0.300 C 
ATOM     24  H   UNL     1      -0.929   1.521  26.906  0.00  0.00    +0.151 HD
ATOM     25  H   UNL     1      -0.085   1.283  28.789  0.00  0.00    +0.150 HD
BRANCH   5  18
ATOM     18  C   UNL     1       1.661   2.104  29.685  0.00  0.00    +0.068 C 
ATOM     20  C   UNL     1       2.836   2.938  29.190  0.00  0.00    +0.027 C 
ATOM     21  C   UNL     1       0.995   2.751  30.892  0.00  0.00    +0.027 C 
ENDBRANCH   5  18
ENDBRANCH   9   3
BRANCH   8  11
ATOM     11  C   UNL     1      -3.388   3.057  23.349  0.00  0.00    +0.063 C 
BRANCH  11  14
ATOM      1  O   UNL     1      -5.138   0.234  24.759  0.00  0.00    -0.358 OA
ATOM      4  N   UNL     1      -4.936   1.599  24.594  0.00  0.00    -0.083 NA
ATOM     14  C   UNL     1      -3.896   1.697  23.761  0.00  0.00    +0.084 A 
ATOM     16  C   UNL     1      -3.405   0.438  23.371  0.00  0.00    +0.072 A 
ATOM     17  C   UNL     1      -4.221  -0.447  24.025  0.00  0.00    +0.151 A 
BRANCH  17  19
ATOM     19  C   UNL     1      -4.291  -1.912  24.085  0.00  0.00    +0.161 C 
BRANCH  19   6
ATOM      6  N   UNL     1      -3.319  -2.502  25.021  0.00  0.00    -0.301 NA
ATOM     22  C   UNL     1      -3.222  -1.683  26.224  0.00  0.00    +0.105 C 
ATOM     23  C   UNL     1      -2.017  -2.632  24.374  0.00  0.00    +0.105 C 
ENDBRANCH  19   6
ENDBRANCH  17  19
ENDBRANCH  11  14
ENDBRANCH   8  11
TORSDOF 6
ENDMDL
MODEL 4
REMARK VINA RESULT:      -3.3      1.431      4.983
REMARK  Name = 56774034
REMARK  12 active torsions:
REMARK  status: ('A' for Active; 'I' for Inactive)
REMARK    1  A    between atoms: N_3  and  C_9
REMARK    2  A    between atoms: N_5  and  C_18
REMARK    3  A    between atoms: N_6  and  C_19
REMARK    4  A    between atoms: N_6  and  C_22
REMARK    5  A    between atoms: N_6  and  C_23
REMARK    6  A    between atoms: C_7  and  C_12
REMARK    7  A    between atoms: C_7  and  C_13
REMARK    8  A    between atoms: C_8  and  C_11
REMARK    9  A    between atoms: C_11  and  C_14
REMARK   10  A    between atoms: C_17  and  C_19
REMARK   11  A    between atoms: C_18  and  C_20
REMARK   12  A    between atoms: C_18  and  C_21
REMARK                            x       y       z     vdW  Elec       q    Type
REMARK                         _______ _______ _______ _____ _____    ______ ____
ROOT
ATOM      7  C   UNL     1      -3.205  -2.144  24.953  0.00  0.00    -0.013 C 
ATOM      8  C   UNL     1      -1.921  -2.015  24.105  0.00  0.00    +0.004 C 
ATOM      9  C   UNL     1      -3.937  -1.395  23.820  0.00  0.00    +0.081 C 
ATOM     10  C   UNL     1      -2.572  -0.779  23.450  0.00  0.00    +0.027 C 
ATOM     12  C   UNL     1      -3.630  -3.577  25.191  0.00  0.00    +0.013 C 
ATOM     13  C   UNL     1      -3.211  -1.378  26.262  0.00  0.00    +0.013 C 
ENDROOT
BRANCH   9   3
ATOM      2  O   UNL     1      -3.514   1.427  24.256  0.00  0.00    -0.253 OA
ATOM      3  N   UNL     1      -4.936  -0.404  24.252  0.00  0.00    -0.296 N 
ATOM      5  N   UNL     1      -5.748   1.668  24.843  0.00  0.00    -0.297 N 
ATOM     15  C   UNL     1      -4.632   0.944  24.435  0.00  0.00    +0.300 C 
ATOM     24  H   UNL     1      -5.893  -0.693  24.437  0.00  0.00    +0.151 HD
ATOM     25  H   UNL     1      -6.644   1.190  24.888  0.00  0.00    +0.150 HD
BRANCH   5  18
ATOM     18  C   UNL     1      -5.705   3.087  25.104  0.00  0.00    +0.068 C 
ATOM     20  C   UNL     1      -5.383   3.350  26.569  0.00  0.00    +0.027 C 
ATOM     21  C   UNL     1      -4.697   3.764  24.186  0.00  0.00    +0.027 C 
ENDBRANCH   5  18
ENDBRANCH   9   3
BRANCH   8  11
ATOM     11  C   UNL     1      -0.631  -1.738  24.841  0.00  0.00    +0.063 C 
BRANCH  11  14
ATOM      1  O   UNL     1       0.626   1.504  23.881  0.00  0.00    -0.358 OA
ATOM      4  N   UNL     1       0.475   0.137  23.686  0.00  0.00    -0.083 NA
ATOM     14  C   UNL     1      -0.261  -0.280  24.721  0.00  0.00    +0.084 A 
ATOM     16  C   UNL     1      -0.600   0.770  25.592  0.00  0.00    +0.072 A 
ATOM     17  C   UNL     1      -0.019   1.870  25.018  0.00  0.00    +0.151 A 
BRANCH  17  19
ATOM     19  C   UNL     1       0.040   3.292  25.376  0.00  0.00    +0.161 C 
BRANCH  19   6
ATOM      6  N   UNL     1      -1.219   4.010  25.111  0.00  0.00    -0.301 NA
ATOM     22  C   UNL     1      -0.942   5.412  24.817  0.00  0.00    +0.105 C 
ATOM     23  C   UNL     1      -2.117   3.886  26.254  0.00  0.00    +0.105 C 
ENDBRANCH  19   6
ENDBRANCH  17  19
ENDBRANCH  11  14
ENDBRANCH   8  11
TORSDOF 6
ENDMDL
MODEL 5
REMARK VINA RESULT:      -3.3      2.336      6.635
REMARK  Name = 56774034
REMARK  12 active torsions:
REMARK  status: ('A' for Active; 'I' for Inactive)
REMARK    1  A    between atoms: N_3  and  C_9
REMARK    2  A    between atoms: N_5  and  C_18
REMARK    3  A    between atoms: N_6  and  C_19
REMARK    4  A    between atoms: N_6  and  C_22
REMARK    5  A    between atoms: N_6  and  C_23
REMARK    6  A    between atoms: C_7  and  C_12
REMARK    7  A    between atoms: C_7  and  C_13
REMARK    8  A    between atoms: C_8  and  C_11
REMARK    9  A    between atoms: C_11  and  C_14
REMARK   10  A    between atoms: C_17  and  C_19
REMARK   11  A    between atoms: C_18  and  C_20
REMARK   12  A    between atoms: C_18  and  C_21
REMARK                            x       y       z     vdW  Elec       q    Type
REMARK                         _______ _______ _______ _____ _____    ______ ____
ROOT
ATOM      7  C   UNL     1      -1.519   0.057  23.890  0.00  0.00    -0.013 C 
ATOM      8  C   UNL     1      -2.513  -1.095  24.151  0.00  0.00    +0.004 C 
ATOM      9  C   UNL     1      -0.517  -1.017  23.419  0.00  0.00    +0.081 C 
ATOM     10  C   UNL     1      -1.284  -2.015  24.310  0.00  0.00    +0.027 C 
ATOM     12  C   UNL     1      -1.993   1.036  22.839  0.00  0.00    +0.013 C 
ATOM     13  C   UNL     1      -1.041   0.807  25.119  0.00  0.00    +0.013 C 
ENDROOT
BRANCH   9   3
ATOM      2  O   UNL     1       1.693  -0.212  21.744  0.00  0.00    -0.253 OA
ATOM      3  N   UNL     1       0.881  -0.809  23.831  0.00  0.00    -0.296 N 
ATOM      5  N   UNL     1       3.110  -0.291  23.581  0.00  0.00    -0.297 N 
ATOM     15  C   UNL     1       1.881  -0.417  22.942  0.00  0.00    +0.300 C 
ATOM     24  H   UNL     1       1.153  -0.959  24.800  0.00  0.00    +0.151 HD
ATOM     25  H   UNL     1       3.146  -0.410  24.590  0.00  0.00    +0.150 HD
BRANCH   5  18
ATOM     18  C   UNL     1       4.313   0.102  22.887  0.00  0.00    +0.068 C 
ATOM     20  C   UNL     1       4.238   1.568  22.477  0.00  0.00    +0.027 C 
ATOM     21  C   UNL     1       5.537  -0.166  23.753  0.00  0.00    +0.027 C 
ENDBRANCH   5  18
ENDBRANCH   9   3
BRANCH   8  11
ATOM     11  C   UNL     1      -3.389  -0.989  25.378  0.00  0.00    +0.063 C 
BRANCH  11  14
ATOM      1  O   UNL     1      -5.995   1.446  24.833  0.00  0.00    -0.358 OA
ATOM      4  N   UNL     1      -5.477   0.160  24.749  0.00  0.00    -0.083 NA
ATOM     14  C   UNL     1      -4.260   0.241  25.295  0.00  0.00    +0.084 A 
ATOM     16  C   UNL     1      -3.960   1.542  25.737  0.00  0.00    +0.072 A 
ATOM     17  C   UNL     1      -5.084   2.260  25.424  0.00  0.00    +0.151 A 
BRANCH  17  19
ATOM     19  C   UNL     1      -5.472   3.665  25.593  0.00  0.00    +0.161 C 
BRANCH  19   6
ATOM      6  N   UNL     1      -4.389   4.610  25.270  0.00  0.00    -0.301 NA
ATOM     22  C   UNL     1      -3.851   4.320  23.946  0.00  0.00    +0.105 C 
ATOM     23  C   UNL     1      -3.343   4.538  26.285  0.00  0.00    +0.105 C 
ENDBRANCH  19   6
ENDBRANCH  17  19
ENDBRANCH  11  14
ENDBRANCH   8  11
TORSDOF 6
ENDMDL
MODEL 6
REMARK VINA RESULT:      -3.2      1.808      4.948
REMARK  Name = 56774034
REMARK  12 active torsions:
REMARK  status: ('A' for Active; 'I' for Inactive)
REMARK    1  A    between atoms: N_3  and  C_9
REMARK    2  A    between atoms: N_5  and  C_18
REMARK    3  A    between atoms: N_6  and  C_19
REMARK    4  A    between atoms: N_6  and  C_22
REMARK    5  A    between atoms: N_6  and  C_23
REMARK    6  A    between atoms: C_7  and  C_12
REMARK    7  A    between atoms: C_7  and  C_13
REMARK    8  A    between atoms: C_8  and  C_11
REMARK    9  A    between atoms: C_11  and  C_14
REMARK   10  A    between atoms: C_17  and  C_19
REMARK   11  A    between atoms: C_18  and  C_20
REMARK   12  A    between atoms: C_18  and  C_21
REMARK                            x       y       z     vdW  Elec       q    Type
REMARK                         _______ _______ _______ _____ _____    ______ ____
ROOT
ATOM      7  C   UNL     1      -1.939   3.823  25.057  0.00  0.00    -0.013 C 
ATOM      8  C   UNL     1      -3.248   3.224  24.500  0.00  0.00    +0.004 C 
ATOM      9  C   UNL     1      -1.276   3.419  23.724  0.00  0.00    +0.081 C 
ATOM     10  C   UNL     1      -2.365   2.333  23.599  0.00  0.00    +0.027 C 
ATOM     12  C   UNL     1      -2.026   5.307  25.338  0.00  0.00    +0.013 C 
ATOM     13  C   UNL     1      -1.339   3.104  26.251  0.00  0.00    +0.013 C 
ENDROOT
BRANCH   9   3
ATOM      2  O   UNL     1      -0.360   0.823  22.853  0.00  0.00    -0.253 OA
ATOM      3  N   UNL     1       0.089   2.877  23.827  0.00  0.00    -0.296 N 
ATOM      5  N   UNL     1       1.782   1.336  23.588  0.00  0.00    -0.297 N 
ATOM     15  C   UNL     1       0.433   1.605  23.374  0.00  0.00    +0.300 C 
ATOM     24  H   UNL     1       0.827   3.435  24.251  0.00  0.00    +0.151 HD
ATOM     25  H   UNL     1       2.370   2.077  23.957  0.00  0.00    +0.150 HD
BRANCH   5  18
ATOM     18  C   UNL     1       2.396   0.085  23.210  0.00  0.00    +0.068 C 
ATOM     20  C   UNL     1       1.847  -0.398  21.874  0.00  0.00    +0.027 C 
ATOM     21  C   UNL     1       3.911   0.232  23.164  0.00  0.00    +0.027 C 
ENDBRANCH   5  18
ENDBRANCH   9   3
BRANCH   8  11
ATOM     11  C   UNL     1      -4.131   2.470  25.468  0.00  0.00    +0.063 C 
BRANCH  11  14
ATOM      1  O   UNL     1      -4.563  -0.917  24.303  0.00  0.00    -0.358 OA
ATOM      4  N   UNL     1      -4.892   0.432  24.309  0.00  0.00    -0.083 NA
ATOM     14  C   UNL     1      -4.060   0.987  25.196  0.00  0.00    +0.084 A 
ATOM     16  C   UNL     1      -3.192   0.044  25.775  0.00  0.00    +0.072 A 
ATOM     17  C   UNL     1      -3.549  -1.137  25.178  0.00  0.00    +0.151 A 
BRANCH  17  19
ATOM     19  C   UNL     1      -3.073  -2.519  25.297  0.00  0.00    +0.161 C 
BRANCH  19   6
ATOM      6  N   UNL     1      -1.645  -2.673  24.968  0.00  0.00    -0.301 NA
ATOM     22  C   UNL     1      -0.900  -1.503  25.417  0.00  0.00    +0.105 C 
ATOM     23  C   UNL     1      -1.482  -2.874  23.532  0.00  0.00    +0.105 C 
ENDBRANCH  19   6
ENDBRANCH  17  19
ENDBRANCH  11  14
ENDBRANCH   8  11
TORSDOF 6
ENDMDL
MODEL 7
REMARK VINA RESULT:      -3.2      2.200      5.843
REMARK  Name = 56774034
REMARK  12 active torsions:
REMARK  status: ('A' for Active; 'I' for Inactive)
REMARK    1  A    between atoms: N_3  and  C_9
REMARK    2  A    between atoms: N_5  and  C_18
REMARK    3  A    between atoms: N_6  and  C_19
REMARK    4  A    between atoms: N_6  and  C_22
REMARK    5  A    between atoms: N_6  and  C_23
REMARK    6  A    between atoms: C_7  and  C_12
REMARK    7  A    between atoms: C_7  and  C_13
REMARK    8  A    between atoms: C_8  and  C_11
REMARK    9  A    between atoms: C_11  and  C_14
REMARK   10  A    between atoms: C_17  and  C_19
REMARK   11  A    between atoms: C_18  and  C_20
REMARK   12  A    between atoms: C_18  and  C_21
REMARK                            x       y       z     vdW  Elec       q    Type
REMARK                         _______ _______ _______ _____ _____    ______ ____
ROOT
ATOM      7  C   UNL     1      -0.417   3.361  24.406  0.00  0.00    -0.013 C 
ATOM      8  C   UNL     1      -1.774   2.718  24.048  0.00  0.00    +0.004 C 
ATOM      9  C   UNL     1       0.234   2.326  23.464  0.00  0.00    +0.081 C 
ATOM     10  C   UNL     1      -0.991   1.427  23.730  0.00  0.00    +0.027 C 
ATOM     12  C   UNL     1      -0.306   4.810  23.987  0.00  0.00    +0.013 C 
ATOM     13  C   UNL     1       0.028   3.202  25.848  0.00  0.00    +0.013 C 
ENDROOT
BRANCH   9   3
ATOM      2  O   UNL     1       1.941   0.486  22.038  0.00  0.00    -0.253 OA
ATOM      3  N   UNL     1       1.505   1.748  23.932  0.00  0.00    -0.296 N 
ATOM      5  N   UNL     1       3.413   0.465  23.833  0.00  0.00    -0.297 N 
ATOM     15  C   UNL     1       2.260   0.863  23.164  0.00  0.00    +0.300 C 
ATOM     24  H   UNL     1       1.862   1.984  24.855  0.00  0.00    +0.151 HD
ATOM     25  H   UNL     1       3.625   0.894  24.730  0.00  0.00    +0.150 HD
BRANCH   5  18
ATOM     18  C   UNL     1       4.371  -0.450  23.259  0.00  0.00    +0.068 C 
ATOM     20  C   UNL     1       5.782   0.110  23.377  0.00  0.00    +0.027 C 
ATOM     21  C   UNL     1       4.262  -1.816  23.923  0.00  0.00    +0.027 C 
ENDBRANCH   5  18
ENDBRANCH   9   3
BRANCH   8  11
ATOM     11  C   UNL     1      -2.792   2.586  25.157  0.00  0.00    +0.063 C 
BRANCH  11  14
ATOM      1  O   UNL     1      -4.705  -0.472  25.100  0.00  0.00    -0.358 OA
ATOM      4  N   UNL     1      -4.574   0.900  24.926  0.00  0.00    -0.083 NA
ATOM     14  C   UNL     1      -3.302   1.167  25.235  0.00  0.00    +0.084 A 
ATOM     16  C   UNL     1      -2.589   0.014  25.607  0.00  0.00    +0.072 A 
ATOM     17  C   UNL     1      -3.517  -0.989  25.504  0.00  0.00    +0.151 A 
BRANCH  17  19
ATOM     19  C   UNL     1      -3.477  -2.438  25.736  0.00  0.00    +0.161 C 
BRANCH  19   6
ATOM      6  N   UNL     1      -3.122  -3.209  24.532  0.00  0.00    -0.301 NA
ATOM     22  C   UNL     1      -1.781  -2.850  24.086  0.00  0.00    +0.105 C 
ATOM     23  C   UNL     1      -4.102  -2.970  23.477  0.00  0.00    +0.105 C 
ENDBRANCH  19   6
ENDBRANCH  17  19
ENDBRANCH  11  14
ENDBRANCH   8  11
TORSDOF 6
ENDMDL
MODEL 8
REMARK VINA RESULT:      -2.5      1.931      4.815
REMARK  Name = 56774034
REMARK  12 active torsions:
REMARK  status: ('A' for Active; 'I' for Inactive)
REMARK    1  A    between atoms: N_3  and  C_9
REMARK    2  A    between atoms: N_5  and  C_18
REMARK    3  A    between atoms: N_6  and  C_19
REMARK    4  A    between atoms: N_6  and  C_22
REMARK    5  A    between atoms: N_6  and  C_23
REMARK    6  A    between atoms: C_7  and  C_12
REMARK    7  A    between atoms: C_7  and  C_13
REMARK    8  A    between atoms: C_8  and  C_11
REMARK    9  A    between atoms: C_11  and  C_14
REMARK   10  A    between atoms: C_17  and  C_19
REMARK   11  A    between atoms: C_18  and  C_20
REMARK   12  A    between atoms: C_18  and  C_21
REMARK                            x       y       z     vdW  Elec       q    Type
REMARK                         _______ _______ _______ _____ _____    ______ ____
ROOT
ATOM      7  C   UNL     1       0.085   2.671  26.149  0.00  0.00    -0.013 C 
ATOM      8  C   UNL     1       0.100   3.705  25.002  0.00  0.00    +0.004 C 
ATOM      9  C   UNL     1       0.318   1.589  25.074  0.00  0.00    +0.081 C 
ATOM     10  C   UNL     1      -0.336   2.558  24.066  0.00  0.00    +0.027 C 
ATOM     12  C   UNL     1       1.199   2.866  27.153  0.00  0.00    +0.013 C 
ATOM     13  C   UNL     1      -1.240   2.505  26.870  0.00  0.00    +0.013 C 
ENDROOT
BRANCH   9   3
ATOM      2  O   UNL     1      -1.913   0.644  23.504  0.00  0.00    -0.253 OA
ATOM      3  N   UNL     1      -0.430   0.334  25.258  0.00  0.00    -0.296 N 
ATOM      5  N   UNL     1      -2.031  -1.262  24.825  0.00  0.00    -0.297 N 
ATOM     15  C   UNL     1      -1.498  -0.035  24.442  0.00  0.00    +0.300 C 
ATOM     24  H   UNL     1      -0.178  -0.302  26.010  0.00  0.00    +0.151 HD
ATOM     25  H   UNL     1      -1.568  -1.780  25.566  0.00  0.00    +0.150 HD
BRANCH   5  18
ATOM     18  C   UNL     1      -3.147  -1.874  24.144  0.00  0.00    +0.068 C 
ATOM     20  C   UNL     1      -3.409  -3.269  24.697  0.00  0.00    +0.027 C 
ATOM     21  C   UNL     1      -4.384  -0.994  24.258  0.00  0.00    +0.027 C 
ENDBRANCH   5  18
ENDBRANCH   9   3
BRANCH   8  11
ATOM     11  C   UNL     1      -0.875   4.855  25.095  0.00  0.00    +0.063 C 
BRANCH  11  14
ATOM      1  O   UNL     1      -4.056   3.539  24.013  0.00  0.00    -0.358 OA
ATOM      4  N   UNL     1      -2.741   3.924  23.781  0.00  0.00    -0.083 NA
ATOM     14  C   UNL     1      -2.293   4.352  24.964  0.00  0.00    +0.084 A 
ATOM     16  C   UNL     1      -3.271   4.262  25.970  0.00  0.00    +0.072 A 
ATOM     17  C   UNL     1      -4.360   3.744  25.320  0.00  0.00    +0.151 A 
BRANCH  17  19
ATOM     19  C   UNL     1      -5.720   3.388  25.739  0.00  0.00    +0.161 C 
BRANCH  19   6
ATOM      6  N   UNL     1      -5.965   1.935  25.744  0.00  0.00    -0.301 NA
ATOM     22  C   UNL     1      -6.779   1.562  24.593  0.00  0.00    +0.105 C 
ATOM     23  C   UNL     1      -6.614   1.541  26.991  0.00  0.00    +0.105 C 
ENDBRANCH  19   6
ENDBRANCH  17  19
ENDBRANCH  11  14
ENDBRANCH   8  11
TORSDOF 6
ENDMDL
MODEL 9
REMARK VINA RESULT:      -2.4     14.550     16.522
REMARK  Name = 56774034
REMARK  12 active torsions:
REMARK  status: ('A' for Active; 'I' for Inactive)
REMARK    1  A    between atoms: N_3  and  C_9
REMARK    2  A    between atoms: N_5  and  C_18
REMARK    3  A    between atoms: N_6  and  C_19
REMARK    4  A    between atoms: N_6  and  C_22
REMARK    5  A    between atoms: N_6  and  C_23
REMARK    6  A    between atoms: C_7  and  C_12
REMARK    7  A    between atoms: C_7  and  C_13
REMARK    8  A    between atoms: C_8  and  C_11
REMARK    9  A    between atoms: C_11  and  C_14
REMARK   10  A    between atoms: C_17  and  C_19
REMARK   11  A    between atoms: C_18  and  C_20
REMARK   12  A    between atoms: C_18  and  C_21
REMARK                            x       y       z     vdW  Elec       q    Type
REMARK                         _______ _______ _______ _____ _____    ______ ____
ROOT
ATOM      7  C   UNL     1      -9.396  -9.756  16.096  0.00  0.00    -0.013 C 
ATOM      8  C   UNL     1      -8.081 -10.537  16.308  0.00  0.00    +0.004 C 
ATOM      9  C   UNL     1      -9.491 -10.443  14.717  0.00  0.00    +0.081 C 
ATOM     10  C   UNL     1      -7.956 -10.591  14.770  0.00  0.00    +0.027 C 
ATOM     12  C   UNL     1     -10.476 -10.110  17.095  0.00  0.00    +0.013 C 
ATOM     13  C   UNL     1      -9.259  -8.249  15.992  0.00  0.00    +0.013 C 
ENDROOT
BRANCH   9   3
ATOM      2  O   UNL     1      -8.930 -10.770  11.904  0.00  0.00    -0.253 OA
ATOM      3  N   UNL     1      -9.964  -9.593  13.612  0.00  0.00    -0.296 N 
ATOM      5  N   UNL     1     -10.210  -8.890  11.434  0.00  0.00    -0.297 N 
ATOM     15  C   UNL     1      -9.638  -9.836  12.279  0.00  0.00    +0.300 C 
ATOM     24  H   UNL     1     -10.550  -8.785  13.807  0.00  0.00    +0.151 HD
ATOM     25  H   UNL     1     -10.840  -8.202  11.835  0.00  0.00    +0.150 HD
BRANCH   5  18
ATOM     18  C   UNL     1     -10.027  -8.912  10.002  0.00  0.00    +0.068 C 
ATOM     20  C   UNL     1     -10.661  -7.682   9.365  0.00  0.00    +0.027 C 
ATOM     21  C   UNL     1      -8.547  -9.011   9.658  0.00  0.00    +0.027 C 
ENDBRANCH   5  18
ENDBRANCH   9   3
BRANCH   8  11
ATOM     11  C   UNL     1      -6.954  -9.815  17.011  0.00  0.00    +0.063 C 
BRANCH  11  14
ATOM      1  O   UNL     1      -4.243 -10.710  14.805  0.00  0.00    -0.358 OA
ATOM      4  N   UNL     1      -5.584 -10.457  15.066  0.00  0.00    -0.083 NA
ATOM     14  C   UNL     1      -5.632 -10.154  16.366  0.00  0.00    +0.084 A 
ATOM     16  C   UNL     1      -4.364 -10.198  16.971  0.00  0.00    +0.072 A 
ATOM     17  C   UNL     1      -3.525 -10.552  15.947  0.00  0.00    +0.151 A 
BRANCH  17  19
ATOM     19  C   UNL     1      -2.080 -10.781  15.850  0.00  0.00    +0.161 C 
BRANCH  19   6
ATOM      6  N   UNL     1      -1.345  -9.632  15.292  0.00  0.00    -0.301 NA
ATOM     22  C   UNL     1      -1.217  -9.776  13.846  0.00  0.00    +0.105 C 
ATOM     23  C   UNL     1      -0.034  -9.523  15.923  0.00  0.00    +0.105 C 
ENDBRANCH  19   6
ENDBRANCH  17  19
ENDBRANCH  11  14
ENDBRANCH   8  11
TORSDOF 6
ENDMDL
MODEL 10
REMARK VINA RESULT:      -2.1      2.531      6.931
REMARK  Name = 56774034
REMARK  12 active torsions:
REMARK  status: ('A' for Active; 'I' for Inactive)
REMARK    1  A    between atoms: N_3  and  C_9
REMARK    2  A    between atoms: N_5  and  C_18
REMARK    3  A    between atoms: N_6  and  C_19
REMARK    4  A    between atoms: N_6  and  C_22
REMARK    5  A    between atoms: N_6  and  C_23
REMARK    6  A    between atoms: C_7  and  C_12
REMARK    7  A    between atoms: C_7  and  C_13
REMARK    8  A    between atoms: C_8  and  C_11
REMARK    9  A    between atoms: C_11  and  C_14
REMARK   10  A    between atoms: C_17  and  C_19
REMARK   11  A    between atoms: C_18  and  C_20
REMARK   12  A    between atoms: C_18  and  C_21
REMARK                            x       y       z     vdW  Elec       q    Type
REMARK                         _______ _______ _______ _____ _____    ______ ____
ROOT
ATOM      7  C   UNL     1      -0.631   1.438  24.065  0.00  0.00    -0.013 C 
ATOM      8  C   UNL     1      -1.426   0.302  23.387  0.00  0.00    +0.004 C 
ATOM      9  C   UNL     1       0.496   1.151  23.051  0.00  0.00    +0.081 C 
ATOM     10  C   UNL     1      -0.067  -0.282  22.948  0.00  0.00    +0.027 C 
ATOM     12  C   UNL     1      -1.299   2.791  23.955  0.00  0.00    +0.013 C 
ATOM     13  C   UNL     1      -0.208   1.183  25.499  0.00  0.00    +0.013 C 
ENDROOT
BRANCH   9   3
ATOM      2  O   UNL     1       2.805  -0.291  22.089  0.00  0.00    -0.253 OA
ATOM      3  N   UNL     1       1.866   1.210  23.585  0.00  0.00    -0.296 N 
ATOM      5  N   UNL     1       4.108   0.708  23.732  0.00  0.00    -0.297 N 
ATOM     15  C   UNL     1       2.919   0.472  23.048  0.00  0.00    +0.300 C 
ATOM     24  H   UNL     1       2.075   1.804  24.385  0.00  0.00    +0.151 HD
ATOM     25  H   UNL     1       4.114   1.414  24.462  0.00  0.00    +0.150 HD
BRANCH   5  18
ATOM     18  C   UNL     1       5.352   0.066  23.378  0.00  0.00    +0.068 C 
ATOM     20  C   UNL     1       6.533   0.846  23.942  0.00  0.00    +0.027 C 
ATOM     21  C   UNL     1       5.361  -1.377  23.863  0.00  0.00    +0.027 C 
ENDBRANCH   5  18
ENDBRANCH   9   3
BRANCH   8  11
ATOM     11  C   UNL     1      -2.245  -0.599  24.282  0.00  0.00    +0.063 C 
BRANCH  11  14
ATOM      1  O   UNL     1      -5.247   0.503  25.953  0.00  0.00    -0.358 OA
ATOM      4  N   UNL     1      -4.216  -0.406  25.749  0.00  0.00    -0.083 NA
ATOM     14  C   UNL     1      -3.474   0.127  24.774  0.00  0.00    +0.084 A 
ATOM     16  C   UNL     1      -3.984   1.359  24.328  0.00  0.00    +0.072 A 
ATOM     17  C   UNL     1      -5.098   1.550  25.102  0.00  0.00    +0.151 A 
BRANCH  17  19
ATOM     19  C   UNL     1      -6.108   2.611  25.185  0.00  0.00    +0.161 C 
BRANCH  19   6
ATOM      6  N   UNL     1      -5.666   3.774  25.973  0.00  0.00    -0.301 NA
ATOM     22  C   UNL     1      -6.229   4.998  25.416  0.00  0.00    +0.105 C 
ATOM     23  C   UNL     1      -4.208   3.836  25.999  0.00  0.00    +0.105 C 
ENDBRANCH  19   6
ENDBRANCH  17  19
ENDBRANCH  11  14
ENDBRANCH   8  11
TORSDOF 6
ENDMDL
