MODEL 1
REMARK VINA RESULT:       1.7      0.000      0.000
REMARK  Name = 45783583
REMARK  6 active torsions:
REMARK  status: ('A' for Active; 'I' for Inactive)
REMARK    1  A    between atoms: O_1  and  C_13
REMARK    2  A    between atoms: O_1  and  C_26
REMARK    3  A    between atoms: N_3  and  C_12
REMARK    4  A    between atoms: C_8  and  C_14
REMARK    5  A    between atoms: C_12  and  C_20
REMARK    6  A    between atoms: C_24  and  C_27
REMARK                            x       y       z     vdW  Elec       q    Type
REMARK                         _______ _______ _______ _____ _____    ______ ____
ROOT
ATOM      2  O   UNL     1      -2.285   3.188  25.367  0.00  0.00    -0.336 OA
ATOM      4  N   UNL     1      -2.322   1.554  23.835  0.00  0.00    -0.190 NA
ATOM      6  N   UNL     1      -0.949   2.946  25.023  0.00  0.00    -0.056 NA
ATOM     14  C   UNL     1      -3.027   2.326  24.624  0.00  0.00    +0.245 A 
ATOM     24  C   UNL     1      -1.053   1.971  24.115  0.00  0.00    +0.204 A 
ENDROOT
BRANCH  24  27
ATOM      7  N   UNL     1       2.451   1.500  22.968  0.00  0.00    -0.221 NA
ATOM     26  C   UNL     1       2.308   0.348  22.274  0.00  0.00    +0.215 A 
ATOM     27  C   UNL     1       0.089   1.392  23.472  0.00  0.00    +0.041 A 
ATOM     30  C   UNL     1       1.107  -0.331  22.137  0.00  0.00    +0.068 A 
ATOM     31  C   UNL     1      -0.018   0.207  22.751  0.00  0.00    +0.018 A 
ATOM     33  C   UNL     1       1.335   1.993  23.550  0.00  0.00    +0.126 A 
BRANCH  26   1
ATOM      1  O   UNL     1       3.431  -0.163  21.679  0.00  0.00    -0.473 OA
BRANCH   1  13
ATOM     13  C   UNL     1       4.579  -0.319  22.507  0.00  0.00    +0.175 C 
ATOM     15  C   UNL     1       4.917   1.016  23.170  0.00  0.00    +0.044 C 
ATOM     16  C   UNL     1       4.319  -1.411  23.542  0.00  0.00    +0.044 C 
ATOM     17  C   UNL     1       6.083   0.879  24.145  0.00  0.00    +0.004 C 
ATOM     18  C   UNL     1       5.484  -1.549  24.517  0.00  0.00    +0.004 C 
ATOM     19  C   UNL     1       5.825  -0.215  25.177  0.00  0.00    +0.000 C 
ENDBRANCH   1  13
ENDBRANCH  26   1
ENDBRANCH  24  27
BRANCH  14   8
ATOM      3  N   UNL     1      -5.091   1.116  25.308  0.00  0.00    -0.287 NA
ATOM      8  C   UNL     1      -4.527   2.389  24.814  0.00  0.00    +0.146 C 
ATOM      9  C   UNL     1      -4.952   3.435  25.861  0.00  0.00    +0.030 C 
ATOM     10  C   UNL     1      -6.278   1.465  26.089  0.00  0.00    +0.085 C 
ATOM     11  C   UNL     1      -5.798   2.671  26.869  0.00  0.00    +0.017 C 
BRANCH   3  12
ATOM     12  C   UNL     1      -5.394   0.170  24.241  0.00  0.00    +0.122 C 
BRANCH  12  20
ATOM      5  N   UNL     1      -3.514  -2.959  23.783  0.00  0.00    -0.360 N 
ATOM     20  C   UNL     1      -4.434  -0.989  24.231  0.00  0.00    -0.008 A 
ATOM     21  C   UNL     1      -3.200  -1.074  24.934  0.00  0.00    +0.004 A 
ATOM     22  C   UNL     1      -4.600  -2.163  23.532  0.00  0.00    +0.088 A 
ATOM     23  C   UNL     1      -2.643  -2.320  24.634  0.00  0.00    +0.047 A 
ATOM     25  C   UNL     1      -2.500  -0.209  25.797  0.00  0.00    +0.010 A 
ATOM     28  C   UNL     1      -1.417  -2.745  25.159  0.00  0.00    +0.026 A 
ATOM     29  C   UNL     1      -1.273  -0.620  26.329  0.00  0.00    +0.001 A 
ATOM     32  C   UNL     1      -0.741  -1.869  26.014  0.00  0.00    +0.002 A 
ATOM     34  H   UNL     1      -3.372  -3.882  23.396  0.00  0.00    +0.165 HD
ENDBRANCH  12  20
ENDBRANCH   3  12
ENDBRANCH  14   8
TORSDOF 6
ENDMDL
MODEL 2
REMARK VINA RESULT:       2.0      1.112      1.886
REMARK  Name = 45783583
REMARK  6 active torsions:
REMARK  status: ('A' for Active; 'I' for Inactive)
REMARK    1  A    between atoms: O_1  and  C_13
REMARK    2  A    between atoms: O_1  and  C_26
REMARK    3  A    between atoms: N_3  and  C_12
REMARK    4  A    between atoms: C_8  and  C_14
REMARK    5  A    between atoms: C_12  and  C_20
REMARK    6  A    between atoms: C_24  and  C_27
REMARK                            x       y       z     vdW  Elec       q    Type
REMARK                         _______ _______ _______ _____ _____    ______ ____
ROOT
ATOM      2  O   UNL     1      -2.274   3.683  24.911  0.00  0.00    -0.336 OA
ATOM      4  N   UNL     1      -2.346   1.822  23.667  0.00  0.00    -0.190 NA
ATOM      6  N   UNL     1      -0.942   3.338  24.649  0.00  0.00    -0.056 NA
ATOM     14  C   UNL     1      -3.035   2.739  24.297  0.00  0.00    +0.245 A 
ATOM     24  C   UNL     1      -1.067   2.231  23.910  0.00  0.00    +0.204 A 
ENDROOT
BRANCH  24  27
ATOM      7  N   UNL     1       0.927  -0.419  22.232  0.00  0.00    -0.221 NA
ATOM     26  C   UNL     1       2.169   0.085  22.413  0.00  0.00    +0.215 A 
ATOM     27  C   UNL     1       0.064   1.511  23.404  0.00  0.00    +0.041 A 
ATOM     30  C   UNL     1       2.434   1.277  23.068  0.00  0.00    +0.068 A 
ATOM     31  C   UNL     1       1.356   1.998  23.570  0.00  0.00    +0.018 A 
ATOM     33  C   UNL     1      -0.096   0.309  22.734  0.00  0.00    +0.126 A 
BRANCH  26   1
ATOM      1  O   UNL     1       3.214  -0.644  21.910  0.00  0.00    -0.473 OA
BRANCH   1  13
ATOM     13  C   UNL     1       4.453  -0.550  22.605  0.00  0.00    +0.175 C 
ATOM     15  C   UNL     1       4.681   0.893  23.053  0.00  0.00    +0.044 C 
ATOM     16  C   UNL     1       4.449  -1.513  23.791  0.00  0.00    +0.044 C 
ATOM     17  C   UNL     1       5.951   1.027  23.889  0.00  0.00    +0.004 C 
ATOM     18  C   UNL     1       5.718  -1.380  24.626  0.00  0.00    +0.004 C 
ATOM     19  C   UNL     1       5.948   0.063  25.072  0.00  0.00    +0.000 C 
ENDBRANCH   1  13
ENDBRANCH  26   1
ENDBRANCH  24  27
BRANCH  14   8
ATOM      3  N   UNL     1      -5.068   2.212  25.632  0.00  0.00    -0.287 NA
ATOM      8  C   UNL     1      -4.535   2.889  24.433  0.00  0.00    +0.146 C 
ATOM      9  C   UNL     1      -4.976   4.357  24.585  0.00  0.00    +0.030 C 
ATOM     10  C   UNL     1      -6.258   2.961  26.036  0.00  0.00    +0.085 C 
ATOM     11  C   UNL     1      -5.799   4.395  25.865  0.00  0.00    +0.017 C 
BRANCH   3  12
ATOM     12  C   UNL     1      -5.356   0.800  25.413  0.00  0.00    +0.122 C 
BRANCH  12  20
ATOM      5  N   UNL     1      -2.065  -0.764  25.920  0.00  0.00    -0.360 N 
ATOM     20  C   UNL     1      -4.106  -0.038  25.437  0.00  0.00    -0.008 A 
ATOM     21  C   UNL     1      -3.881  -1.244  24.716  0.00  0.00    +0.004 A 
ATOM     22  C   UNL     1      -2.973   0.231  26.169  0.00  0.00    +0.088 A 
ATOM     23  C   UNL     1      -2.592  -1.679  25.037  0.00  0.00    +0.047 A 
ATOM     25  C   UNL     1      -4.651  -2.010  23.819  0.00  0.00    +0.010 A 
ATOM     28  C   UNL     1      -2.034  -2.845  24.503  0.00  0.00    +0.026 A 
ATOM     29  C   UNL     1      -4.105  -3.179  23.276  0.00  0.00    +0.001 A 
ATOM     32  C   UNL     1      -2.817  -3.589  23.615  0.00  0.00    +0.002 A 
ATOM     34  H   UNL     1      -1.142  -0.821  26.328  0.00  0.00    +0.165 HD
ENDBRANCH  12  20
ENDBRANCH   3  12
ENDBRANCH  14   8
TORSDOF 6
ENDMDL
MODEL 3
REMARK VINA RESULT:       2.9      1.142      1.645
REMARK  Name = 45783583
REMARK  6 active torsions:
REMARK  status: ('A' for Active; 'I' for Inactive)
REMARK    1  A    between atoms: O_1  and  C_13
REMARK    2  A    between atoms: O_1  and  C_26
REMARK    3  A    between atoms: N_3  and  C_12
REMARK    4  A    between atoms: C_8  and  C_14
REMARK    5  A    between atoms: C_12  and  C_20
REMARK    6  A    between atoms: C_24  and  C_27
REMARK                            x       y       z     vdW  Elec       q    Type
REMARK                         _______ _______ _______ _____ _____    ______ ____
ROOT
ATOM      2  O   UNL     1      -3.575   2.738  22.376  0.00  0.00    -0.336 OA
ATOM      4  N   UNL     1      -2.610   1.484  23.961  0.00  0.00    -0.190 NA
ATOM      6  N   UNL     1      -2.323   2.367  21.870  0.00  0.00    -0.056 NA
ATOM     14  C   UNL     1      -3.664   2.177  23.610  0.00  0.00    +0.245 A 
ATOM     24  C   UNL     1      -1.815   1.628  22.862  0.00  0.00    +0.204 A 
ENDROOT
BRANCH  24  27
ATOM      7  N   UNL     1       0.947  -0.602  21.761  0.00  0.00    -0.221 NA
ATOM     26  C   UNL     1       1.928  -0.171  22.586  0.00  0.00    +0.215 A 
ATOM     27  C   UNL     1      -0.517   1.025  22.786  0.00  0.00    +0.041 A 
ATOM     30  C   UNL     1       1.765   0.838  23.522  0.00  0.00    +0.068 A 
ATOM     31  C   UNL     1       0.517   1.443  23.617  0.00  0.00    +0.018 A 
ATOM     33  C   UNL     1      -0.253   0.008  21.883  0.00  0.00    +0.126 A 
BRANCH  26   1
ATOM      1  O   UNL     1       3.148  -0.781  22.472  0.00  0.00    -0.473 OA
BRANCH   1  13
ATOM     13  C   UNL     1       4.123  -0.451  23.457  0.00  0.00    +0.175 C 
ATOM     15  C   UNL     1       5.002  -1.670  23.735  0.00  0.00    +0.044 C 
ATOM     16  C   UNL     1       4.949   0.742  22.980  0.00  0.00    +0.044 C 
ATOM     17  C   UNL     1       6.126  -1.340  24.713  0.00  0.00    +0.004 C 
ATOM     18  C   UNL     1       6.072   1.073  23.958  0.00  0.00    +0.004 C 
ATOM     19  C   UNL     1       6.950  -0.146  24.238  0.00  0.00    +0.000 C 
ENDBRANCH   1  13
ENDBRANCH  26   1
ENDBRANCH  24  27
BRANCH  14   8
ATOM      3  N   UNL     1      -5.104   1.528  25.533  0.00  0.00    -0.287 NA
ATOM      8  C   UNL     1      -4.943   2.434  24.378  0.00  0.00    +0.146 C 
ATOM      9  C   UNL     1      -5.003   3.849  24.980  0.00  0.00    +0.030 C 
ATOM     10  C   UNL     1      -5.886   2.262  26.528  0.00  0.00    +0.085 C 
ATOM     11  C   UNL     1      -5.259   3.640  26.466  0.00  0.00    +0.017 C 
BRANCH   3  12
ATOM     12  C   UNL     1      -5.719   0.254  25.183  0.00  0.00    +0.122 C 
BRANCH  12  20
ATOM      5  N   UNL     1      -3.757  -2.397  23.552  0.00  0.00    -0.360 N 
ATOM     20  C   UNL     1      -4.705  -0.742  24.687  0.00  0.00    -0.008 A 
ATOM     21  C   UNL     1      -3.359  -0.873  25.133  0.00  0.00    +0.004 A 
ATOM     22  C   UNL     1      -4.919  -1.692  23.716  0.00  0.00    +0.088 A 
ATOM     23  C   UNL     1      -2.787  -1.919  24.403  0.00  0.00    +0.047 A 
ATOM     25  C   UNL     1      -2.570  -0.201  26.087  0.00  0.00    +0.010 A 
ATOM     28  C   UNL     1      -1.461  -2.328  24.584  0.00  0.00    +0.026 A 
ATOM     29  C   UNL     1      -1.243  -0.600  26.278  0.00  0.00    +0.001 A 
ATOM     32  C   UNL     1      -0.698  -1.646  25.536  0.00  0.00    +0.002 A 
ATOM     34  H   UNL     1      -3.628  -3.157  22.899  0.00  0.00    +0.165 HD
ENDBRANCH  12  20
ENDBRANCH   3  12
ENDBRANCH  14   8
TORSDOF 6
ENDMDL
