MODEL 1
REMARK VINA RESULT:       9.2      0.000      0.000
REMARK  Name = 11941407
REMARK  7 active torsions:
REMARK  status: ('A' for Active; 'I' for Inactive)
REMARK    1  A    between atoms: S_1  and  C_21
REMARK    2  A    between atoms: S_1  and  C_28
REMARK    3  A    between atoms: S_2  and  C_29
REMARK    4  A    between atoms: S_2  and  C_30
REMARK    5  A    between atoms: N_7  and  C_9
REMARK    6  A    between atoms: C_17  and  C_21
REMARK    7  A    between atoms: C_20  and  C_23
REMARK                            x       y       z     vdW  Elec       q    Type
REMARK                         _______ _______ _______ _____ _____    ______ ____
ROOT
ATOM      3  O   UNL     1      -5.490  -0.091  25.217  0.00  0.00    -0.273 OA
ATOM      4  O   UNL     1      -1.938   1.692  21.759  0.00  0.00    -0.270 OA
ATOM      6  N   UNL     1      -3.459   1.834  23.478  0.00  0.00    -0.284 N 
ATOM      8  N   UNL     1      -3.355  -0.778  24.827  0.00  0.00    -0.283 N 
ATOM      9  C   UNL     1      -4.946   2.673  25.115  0.00  0.00    +0.104 C 
ATOM     10  C   UNL     1      -3.844   1.634  24.863  0.00  0.00    +0.183 C 
ATOM     11  C   UNL     1      -5.549   2.897  23.728  0.00  0.00    +0.043 C 
ATOM     12  C   UNL     1      -4.353   2.762  22.799  0.00  0.00    +0.111 C 
ATOM     13  C   UNL     1      -4.323   0.197  24.950  0.00  0.00    +0.240 C 
ATOM     14  C   UNL     1      -2.306   1.364  22.887  0.00  0.00    +0.249 C 
ATOM     15  C   UNL     1      -1.477   0.391  23.646  0.00  0.00    +0.059 A 
ATOM     16  C   UNL     1      -2.000  -0.631  24.455  0.00  0.00    +0.046 A 
ATOM     18  C   UNL     1      -0.097   0.424  23.378  0.00  0.00    +0.023 A 
ATOM     19  C   UNL     1      -1.133  -1.635  24.922  0.00  0.00    +0.024 A 
ATOM     20  C   UNL     1       0.754  -0.555  23.890  0.00  0.00    -0.017 A 
ATOM     22  C   UNL     1       0.234  -1.592  24.653  0.00  0.00    +0.010 A 
ATOM     32  H   UNL     1      -3.636  -1.711  25.120  0.00  0.00    +0.155 HD
ENDROOT
BRANCH  20  23
ATOM     23  C   UNL     1       2.172  -0.502  23.609  0.00  0.00    -0.018 A 
ATOM     24  C   UNL     1       2.716   0.613  22.971  0.00  0.00    +0.009 A 
ATOM     25  C   UNL     1       2.996  -1.566  23.976  0.00  0.00    +0.009 A 
ATOM     26  C   UNL     1       4.082   0.664  22.700  0.00  0.00    +0.015 A 
ATOM     27  C   UNL     1       4.364  -1.515  23.704  0.00  0.00    +0.015 A 
ATOM     29  C   UNL     1       4.907  -0.399  23.066  0.00  0.00    +0.008 A 
BRANCH  29   2
ATOM      2  S   UNL     1       6.654  -0.334  22.718  0.00  0.00    -0.129 S 
ATOM     30  C   UNL     1       7.224   0.900  23.921  0.00  0.00    +0.090 C 
ENDBRANCH  29   2
ENDBRANCH  20  23
BRANCH   9   7
ATOM      5  O   UNL     1      -2.257   3.093  26.099  0.00  0.00    -0.275 OA
ATOM      7  N   UNL     1      -4.391   3.896  25.649  0.00  0.00    -0.309 N 
ATOM     17  C   UNL     1      -3.086   4.002  26.099  0.00  0.00    +0.223 C 
ATOM     31  H   UNL     1      -5.016   4.690  25.751  0.00  0.00    +0.149 HD
BRANCH  17  21
ATOM     21  C   UNL     1      -2.755   5.379  26.626  0.00  0.00    +0.164 C 
BRANCH  21   1
ATOM      1  S   UNL     1      -1.968   6.338  25.309  0.00  0.00    -0.155 S 
ATOM     28  C   UNL     1      -0.765   5.105  24.760  0.00  0.00    +0.085 C 
ENDBRANCH  21   1
ENDBRANCH  17  21
ENDBRANCH   9   7
TORSDOF 5
ENDMDL
