MODEL 1
REMARK VINA RESULT:      -5.6      0.000      0.000
REMARK  Name = 7049274
REMARK  8 active torsions:
REMARK  status: ('A' for Active; 'I' for Inactive)
REMARK    1  A    between atoms: O_2  and  C_10
REMARK    2  A    between atoms: O_3  and  C_12
REMARK    3  A    between atoms: N_7  and  C_11
REMARK    4  A    between atoms: N_8  and  C_18
REMARK    5  A    between atoms: C_14  and  C_16
REMARK    6  A    between atoms: C_17  and  C_19
REMARK    7  A    between atoms: C_18  and  C_20
REMARK    8  A    between atoms: C_18  and  C_21
REMARK                            x       y       z     vdW  Elec       q    Type
REMARK                         _______ _______ _______ _____ _____    ______ ____
ROOT
ATOM     10  C   UNL     1      -1.040  -1.810  24.952  0.00  0.00    +0.167 C 
ATOM     11  C   UNL     1      -0.516  -0.964  23.776  0.00  0.00    +0.128 C 
ATOM     12  C   UNL     1      -2.573  -1.809  25.006  0.00  0.00    +0.149 C 
ATOM     13  C   UNL     1      -3.147  -0.383  25.078  0.00  0.00    +0.074 C 
ATOM     14  C   UNL     1      -2.402   0.603  24.225  0.00  0.00    +0.015 C 
ATOM     15  C   UNL     1      -1.227   0.354  23.629  0.00  0.00    +0.006 C 
ENDROOT
BRANCH  14  16
ATOM      4  O   UNL     1      -3.122   2.386  22.874  0.00  0.00    -0.271 OA
ATOM      8  N   UNL     1      -3.398   2.537  25.184  0.00  0.00    -0.301 N 
ATOM     16  C   UNL     1      -3.005   1.922  24.008  0.00  0.00    +0.240 C 
ATOM     28  H   UNL     1      -3.210   2.103  26.081  0.00  0.00    +0.150 HD
BRANCH   8  18
ATOM     18  C   UNL     1      -4.015   3.843  25.224  0.00  0.00    +0.156 C 
ATOM     20  C   UNL     1      -3.276   4.768  26.180  0.00  0.00    +0.038 C 
BRANCH  18  21
ATOM      6  O   UNL     1      -6.255   4.605  25.772  0.00  0.00    -0.274 OA
ATOM      9  N   UNL     1      -5.820   2.351  25.821  0.00  0.00    -0.328 N 
ATOM     21  C   UNL     1      -5.467   3.671  25.644  0.00  0.00    +0.231 C 
ATOM     29  H   UNL     1      -6.764   2.096  26.089  0.00  0.00    +0.145 HD
ATOM     30  H   UNL     1      -5.163   1.587  25.690  0.00  0.00    +0.145 HD
ENDBRANCH  18  21
ENDBRANCH   8  18
ENDBRANCH  14  16
BRANCH  11   7
ATOM      5  O   UNL     1       1.221  -0.331  21.646  0.00  0.00    -0.270 OA
ATOM      7  N   UNL     1       0.901  -0.719  23.888  0.00  0.00    -0.302 N 
ATOM     17  C   UNL     1       1.692  -0.411  22.781  0.00  0.00    +0.251 C 
ATOM     25  H   UNL     1       1.319  -0.814  24.808  0.00  0.00    +0.150 HD
BRANCH  17  19
ATOM      1  S   UNL     1       4.017  -1.401  23.762  0.00  0.00    -0.092 S 
ATOM     19  C   UNL     1       3.113  -0.155  23.061  0.00  0.00    +0.074 A 
ATOM     22  C   UNL     1       3.805   0.980  22.823  0.00  0.00    +0.021 A 
ATOM     23  C   UNL     1       5.162   0.837  23.234  0.00  0.00    +0.008 A 
ATOM     24  C   UNL     1       5.413  -0.411  23.763  0.00  0.00    +0.046 A 
ENDBRANCH  17  19
ENDBRANCH  11   7
BRANCH  10   2
ATOM      2  O   UNL     1      -0.536  -1.287  26.182  0.00  0.00    -0.387 OA
ATOM     26  H   UNL     1       0.374  -0.987  26.021  0.00  0.00    +0.210 HD
ENDBRANCH  10   2
BRANCH  12   3
ATOM      3  O   UNL     1      -3.106  -2.494  23.876  0.00  0.00    -0.389 OA
ATOM     27  H   UNL     1      -3.919  -2.032  23.610  0.00  0.00    +0.210 HD
ENDBRANCH  12   3
TORSDOF 7
ENDMDL
MODEL 2
REMARK VINA RESULT:      -4.7      1.468      1.950
REMARK  Name = 7049274
REMARK  8 active torsions:
REMARK  status: ('A' for Active; 'I' for Inactive)
REMARK    1  A    between atoms: O_2  and  C_10
REMARK    2  A    between atoms: O_3  and  C_12
REMARK    3  A    between atoms: N_7  and  C_11
REMARK    4  A    between atoms: N_8  and  C_18
REMARK    5  A    between atoms: C_14  and  C_16
REMARK    6  A    between atoms: C_17  and  C_19
REMARK    7  A    between atoms: C_18  and  C_20
REMARK    8  A    between atoms: C_18  and  C_21
REMARK                            x       y       z     vdW  Elec       q    Type
REMARK                         _______ _______ _______ _____ _____    ______ ____
ROOT
ATOM     10  C   UNL     1      -1.009  -2.170  24.836  0.00  0.00    +0.167 C 
ATOM     11  C   UNL     1      -0.652  -1.016  23.879  0.00  0.00    +0.128 C 
ATOM     12  C   UNL     1      -2.527  -2.298  25.020  0.00  0.00    +0.149 C 
ATOM     13  C   UNL     1      -3.163  -0.985  25.508  0.00  0.00    +0.074 C 
ATOM     14  C   UNL     1      -2.561   0.239  24.878  0.00  0.00    +0.015 C 
ATOM     15  C   UNL     1      -1.441   0.238  24.139  0.00  0.00    +0.006 C 
ENDROOT
BRANCH  14  16
ATOM      4  O   UNL     1      -4.476   1.575  25.135  0.00  0.00    -0.271 OA
ATOM      8  N   UNL     1      -2.381   2.595  25.136  0.00  0.00    -0.301 N 
ATOM     16  C   UNL     1      -3.249   1.519  25.062  0.00  0.00    +0.240 C 
ATOM     28  H   UNL     1      -1.383   2.462  25.008  0.00  0.00    +0.150 HD
BRANCH   8  18
ATOM     18  C   UNL     1      -2.825   3.959  25.313  0.00  0.00    +0.156 C 
ATOM     20  C   UNL     1      -3.935   4.304  24.332  0.00  0.00    +0.038 C 
BRANCH  18  21
ATOM      6  O   UNL     1      -1.698   6.104  25.151  0.00  0.00    -0.274 OA
ATOM      9  N   UNL     1      -0.443   4.189  24.980  0.00  0.00    -0.328 N 
ATOM     21  C   UNL     1      -1.627   4.877  25.129  0.00  0.00    +0.231 C 
ATOM     29  H   UNL     1       0.435   4.683  24.861  0.00  0.00    +0.145 HD
ATOM     30  H   UNL     1      -0.396   3.174  24.985  0.00  0.00    +0.145 HD
ENDBRANCH  18  21
ENDBRANCH   8  18
ENDBRANCH  14  16
BRANCH  11   7
ATOM      5  O   UNL     1       0.989  -0.446  21.657  0.00  0.00    -0.270 OA
ATOM      7  N   UNL     1       0.754  -0.700  23.929  0.00  0.00    -0.302 N 
ATOM     17  C   UNL     1       1.497  -0.430  22.780  0.00  0.00    +0.251 C 
ATOM     25  H   UNL     1       1.203  -0.716  24.839  0.00  0.00    +0.150 HD
BRANCH  17  19
ATOM      1  S   UNL     1       3.908  -1.269  23.692  0.00  0.00    -0.092 S 
ATOM     19  C   UNL     1       2.912  -0.092  22.996  0.00  0.00    +0.074 A 
ATOM     22  C   UNL     1       3.532   1.071  22.702  0.00  0.00    +0.021 A 
ATOM     23  C   UNL     1       4.910   1.010  23.062  0.00  0.00    +0.008 A 
ATOM     24  C   UNL     1       5.248  -0.207  23.612  0.00  0.00    +0.046 A 
ENDBRANCH  17  19
ENDBRANCH  11   7
BRANCH  10   2
ATOM      2  O   UNL     1      -0.410  -1.938  26.112  0.00  0.00    -0.387 OA
ATOM     26  H   UNL     1       0.535  -2.154  26.035  0.00  0.00    +0.210 HD
ENDBRANCH  10   2
BRANCH  12   3
ATOM      3  O   UNL     1      -3.136  -2.714  23.800  0.00  0.00    -0.389 OA
ATOM     27  H   UNL     1      -3.820  -2.060  23.577  0.00  0.00    +0.210 HD
ENDBRANCH  12   3
TORSDOF 7
ENDMDL
