MODEL 1
REMARK VINA RESULT:      10.6      0.000      0.000
REMARK  Name = 7050301
REMARK  4 active torsions:
REMARK  status: ('A' for Active; 'I' for Inactive)
REMARK    1  A    between atoms: N_8  and  C_11
REMARK    2  A    between atoms: N_9  and  C_24
REMARK    3  A    between atoms: C_16  and  C_21
REMARK    4  A    between atoms: C_25  and  C_28
REMARK                            x       y       z     vdW  Elec       q    Type
REMARK                         _______ _______ _______ _____ _____    ______ ____
ROOT
ATOM      3  O   UNL     1      -0.415   3.266  24.585  0.00  0.00    -0.273 OA
ATOM      4  O   UNL     1      -3.105  -0.519  24.582  0.00  0.00    -0.252 OA
ATOM      7  N   UNL     1      -0.829  -0.150  24.315  0.00  0.00    -0.273 N 
ATOM      9  N   UNL     1      -2.125   1.634  24.713  0.00  0.00    -0.193 N 
ATOM     11  C   UNL     1       1.383  -0.347  22.512  0.00  0.00    +0.077 C 
ATOM     12  C   UNL     1       0.101   0.945  24.278  0.00  0.00    +0.166 C 
ATOM     13  C   UNL     1       0.804   1.018  22.926  0.00  0.00    +0.054 C 
ATOM     14  C   UNL     1       0.326  -1.460  22.611  0.00  0.00    +0.041 C 
ATOM     15  C   UNL     1      -0.369  -1.485  23.974  0.00  0.00    +0.112 C 
ATOM     17  C   UNL     1      -0.833   2.116  24.530  0.00  0.00    +0.248 C 
ATOM     18  C   UNL     1      -2.145   0.243  24.564  0.00  0.00    +0.316 C 
ENDROOT
BRANCH   9  24
ATOM      1 CL   UNL     1      -6.901   1.968  26.611  0.00  0.00    -0.081 Cl
ATOM      2  F   UNL     1      -6.580   4.795  25.779  0.00  0.00    -0.204 F 
ATOM     24  C   UNL     1      -3.272   2.442  24.988  0.00  0.00    +0.047 A 
ATOM     26  C   UNL     1      -4.400   1.880  25.594  0.00  0.00    +0.047 A 
ATOM     27  C   UNL     1      -3.272   3.799  24.653  0.00  0.00    +0.027 A 
ATOM     29  C   UNL     1      -5.517   2.669  25.863  0.00  0.00    +0.078 A 
ATOM     30  C   UNL     1      -4.391   4.588  24.922  0.00  0.00    +0.041 A 
ATOM     31  C   UNL     1      -5.514   4.023  25.528  0.00  0.00    +0.142 A 
ENDBRANCH   9  24
BRANCH  11   8
ATOM      5  O   UNL     1       4.004   0.893  22.370  0.00  0.00    -0.276 OA
ATOM      8  N   UNL     1       2.554  -0.678  23.290  0.00  0.00    -0.312 N 
ATOM     21  C   UNL     1       3.767  -0.025  23.150  0.00  0.00    +0.216 C 
ATOM     32  H   UNL     1       2.458  -1.408  23.989  0.00  0.00    +0.149 HD
BRANCH  21  16
ATOM      6  O   UNL     1       9.546  -0.821  22.742  0.00  0.00    -0.276 OA
ATOM     10  N   UNL     1       7.478   0.140  23.188  0.00  0.00    -0.302 N 
ATOM     16  C   UNL     1       4.807  -0.548  24.098  0.00  0.00    +0.078 C 
ATOM     19  C   UNL     1       5.710  -1.560  23.386  0.00  0.00    +0.032 C 
ATOM     20  C   UNL     1       5.606   0.597  24.727  0.00  0.00    +0.032 C 
ATOM     22  C   UNL     1       6.732  -0.891  22.468  0.00  0.00    +0.108 C 
ATOM     23  C   UNL     1       6.646   1.194  23.778  0.00  0.00    +0.108 C 
ATOM     25  C   UNL     1       8.870   0.073  23.258  0.00  0.00    +0.212 C 
ATOM     28  C   UNL     1       9.561   1.174  24.021  0.00  0.00    +0.109 C 
ENDBRANCH  21  16
ENDBRANCH  11   8
TORSDOF 3
ENDMDL
MODEL 2
REMARK VINA RESULT:      13.3      4.465      9.534
REMARK  Name = 7050301
REMARK  4 active torsions:
REMARK  status: ('A' for Active; 'I' for Inactive)
REMARK    1  A    between atoms: N_8  and  C_11
REMARK    2  A    between atoms: N_9  and  C_24
REMARK    3  A    between atoms: C_16  and  C_21
REMARK    4  A    between atoms: C_25  and  C_28
REMARK                            x       y       z     vdW  Elec       q    Type
REMARK                         _______ _______ _______ _____ _____    ______ ____
ROOT
ATOM      3  O   UNL     1       0.890   1.819  25.237  0.00  0.00    -0.273 OA
ATOM      4  O   UNL     1       0.508  -1.905  22.491  0.00  0.00    -0.252 OA
ATOM      7  N   UNL     1      -0.996  -0.655  23.741  0.00  0.00    -0.273 N 
ATOM      9  N   UNL     1       1.146   0.004  23.739  0.00  0.00    -0.193 N 
ATOM     11  C   UNL     1      -2.819  -0.697  25.946  0.00  0.00    +0.077 C 
ATOM     12  C   UNL     1      -1.001   0.479  24.624  0.00  0.00    +0.166 C 
ATOM     13  C   UNL     1      -1.496   0.087  26.013  0.00  0.00    +0.054 C 
ATOM     14  C   UNL     1      -2.728  -1.871  24.955  0.00  0.00    +0.041 C 
ATOM     15  C   UNL     1      -2.209  -1.438  23.583  0.00  0.00    +0.112 C 
ATOM     17  C   UNL     1       0.468   0.863  24.599  0.00  0.00    +0.248 C 
ATOM     18  C   UNL     1       0.264  -0.949  23.217  0.00  0.00    +0.316 C 
ENDROOT
BRANCH   9  24
ATOM      1 CL   UNL     1       5.800  -2.171  24.097  0.00  0.00    -0.081 Cl
ATOM      2  F   UNL     1       6.588   0.264  22.600  0.00  0.00    -0.204 F 
ATOM     24  C   UNL     1       2.545   0.068  23.449  0.00  0.00    +0.047 A 
ATOM     26  C   UNL     1       3.396  -0.960  23.866  0.00  0.00    +0.047 A 
ATOM     27  C   UNL     1       3.068   1.156  22.747  0.00  0.00    +0.027 A 
ATOM     29  C   UNL     1       4.760  -0.899  23.581  0.00  0.00    +0.078 A 
ATOM     30  C   UNL     1       4.433   1.218  22.464  0.00  0.00    +0.041 A 
ATOM     31  C   UNL     1       5.279   0.189  22.881  0.00  0.00    +0.142 A 
ENDBRANCH   9  24
BRANCH  11   8
ATOM      5  O   UNL     1      -5.099  -1.311  24.258  0.00  0.00    -0.276 OA
ATOM      8  N   UNL     1      -3.925   0.171  25.615  0.00  0.00    -0.312 N 
ATOM     21  C   UNL     1      -4.973  -0.215  24.796  0.00  0.00    +0.216 C 
ATOM     32  H   UNL     1      -3.933   1.096  26.034  0.00  0.00    +0.149 HD
BRANCH  21  16
ATOM      6  O   UNL     1      -5.146   5.423  26.341  0.00  0.00    -0.276 OA
ATOM     10  N   UNL     1      -4.827   3.485  25.100  0.00  0.00    -0.302 N 
ATOM     16  C   UNL     1      -6.000   0.869  24.638  0.00  0.00    +0.078 C 
ATOM     19  C   UNL     1      -6.183   1.621  25.960  0.00  0.00    +0.032 C 
ATOM     20  C   UNL     1      -5.638   1.808  23.484  0.00  0.00    +0.032 C 
ATOM     22  C   UNL     1      -5.043   2.598  26.241  0.00  0.00    +0.108 C 
ATOM     23  C   UNL     1      -4.526   2.795  23.841  0.00  0.00    +0.108 C 
ATOM     25  C   UNL     1      -4.902   4.868  25.267  0.00  0.00    +0.212 C 
ATOM     28  C   UNL     1      -4.668   5.710  24.038  0.00  0.00    +0.109 C 
ENDBRANCH  21  16
ENDBRANCH  11   8
TORSDOF 3
ENDMDL
MODEL 3
REMARK VINA RESULT:      14.3      4.474      9.456
REMARK  Name = 7050301
REMARK  4 active torsions:
REMARK  status: ('A' for Active; 'I' for Inactive)
REMARK    1  A    between atoms: N_8  and  C_11
REMARK    2  A    between atoms: N_9  and  C_24
REMARK    3  A    between atoms: C_16  and  C_21
REMARK    4  A    between atoms: C_25  and  C_28
REMARK                            x       y       z     vdW  Elec       q    Type
REMARK                         _______ _______ _______ _____ _____    ______ ____
ROOT
ATOM      3  O   UNL     1       1.054   1.944  25.255  0.00  0.00    -0.273 OA
ATOM      4  O   UNL     1       0.423  -1.554  22.268  0.00  0.00    -0.252 OA
ATOM      7  N   UNL     1      -1.001  -0.234  23.539  0.00  0.00    -0.273 N 
ATOM      9  N   UNL     1       1.193   0.204  23.656  0.00  0.00    -0.193 N 
ATOM     11  C   UNL     1      -2.912  -0.222  25.668  0.00  0.00    +0.077 C 
ATOM     12  C   UNL     1      -0.933   0.841  24.490  0.00  0.00    +0.166 C 
ATOM     13  C   UNL     1      -1.522   0.419  25.833  0.00  0.00    +0.054 C 
ATOM     14  C   UNL     1      -2.895  -1.339  24.610  0.00  0.00    +0.041 C 
ATOM     15  C   UNL     1      -2.278  -0.880  23.287  0.00  0.00    +0.112 C 
ATOM     17  C   UNL     1       0.567   1.075  24.543  0.00  0.00    +0.248 C 
ATOM     18  C   UNL     1       0.245  -0.623  23.044  0.00  0.00    +0.316 C 
ENDROOT
BRANCH   9  24
ATOM      1 CL   UNL     1       5.600  -2.424  24.097  0.00  0.00    -0.081 Cl
ATOM      2  F   UNL     1       6.677  -0.022  22.735  0.00  0.00    -0.204 F 
ATOM     24  C   UNL     1       2.602   0.143  23.423  0.00  0.00    +0.047 A 
ATOM     26  C   UNL     1       3.334  -0.978  23.827  0.00  0.00    +0.047 A 
ATOM     27  C   UNL     1       3.256   1.202  22.787  0.00  0.00    +0.027 A 
ATOM     29  C   UNL     1       4.707  -1.039  23.597  0.00  0.00    +0.078 A 
ATOM     30  C   UNL     1       4.631   1.142  22.558  0.00  0.00    +0.041 A 
ATOM     31  C   UNL     1       5.357   0.021  22.963  0.00  0.00    +0.142 A 
ENDBRANCH   9  24
BRANCH  11   8
ATOM      5  O   UNL     1      -5.457   0.204  26.998  0.00  0.00    -0.276 OA
ATOM      8  N   UNL     1      -3.913   0.772  25.352  0.00  0.00    -0.312 N 
ATOM     21  C   UNL     1      -5.102   0.897  26.049  0.00  0.00    +0.216 C 
ATOM     32  H   UNL     1      -3.705   1.419  24.598  0.00  0.00    +0.149 HD
BRANCH  21  16
ATOM      6  O   UNL     1      -3.863   6.059  23.595  0.00  0.00    -0.276 OA
ATOM     10  N   UNL     1      -4.384   3.810  23.857  0.00  0.00    -0.302 N 
ATOM     16  C   UNL     1      -5.947   2.025  25.531  0.00  0.00    +0.078 C 
ATOM     19  C   UNL     1      -5.415   3.366  26.047  0.00  0.00    +0.032 C 
ATOM     20  C   UNL     1      -6.040   1.989  24.003  0.00  0.00    +0.032 C 
ATOM     22  C   UNL     1      -4.162   3.824  25.302  0.00  0.00    +0.108 C 
ATOM     23  C   UNL     1      -4.777   2.506  23.314  0.00  0.00    +0.108 C 
ATOM     25  C   UNL     1      -4.206   4.977  23.113  0.00  0.00    +0.212 C 
ATOM     28  C   UNL     1      -4.457   4.876  21.630  0.00  0.00    +0.109 C 
ENDBRANCH  21  16
ENDBRANCH  11   8
TORSDOF 3
ENDMDL
