MODEL 1
REMARK VINA RESULT:      -1.5      0.000      0.000
REMARK  Name = 75368677
REMARK  5 active torsions:
REMARK  status: ('A' for Active; 'I' for Inactive)
REMARK    1  A    between atoms: O_6  and  C_25
REMARK    2  A    between atoms: O_6  and  C_28
REMARK    3  A    between atoms: N_8  and  C_12
REMARK    4  A    between atoms: N_9  and  C_19
REMARK    5  A    between atoms: C_19  and  C_22
REMARK                            x       y       z     vdW  Elec       q    Type
REMARK                         _______ _______ _______ _____ _____    ______ ____
ROOT
ATOM      5  O   UNL     1      -0.279  -2.731  23.093  0.00  0.00    -0.252 OA
ATOM      7  N   UNL     1      -1.722  -1.434  24.418  0.00  0.00    -0.278 N 
ATOM      8  N   UNL     1       0.261  -0.557  23.834  0.00  0.00    -0.280 N 
ATOM      9  N   UNL     1      -4.113  -0.253  25.312  0.00  0.00    -0.295 NA
ATOM     10  C   UNL     1      -1.661  -0.172  25.126  0.00  0.00    +0.109 C 
ATOM     11  C   UNL     1      -0.424   0.510  24.544  0.00  0.00    +0.133 C 
ATOM     13  C   UNL     1      -2.965   0.602  24.947  0.00  0.00    +0.109 C 
ATOM     14  C   UNL     1      -2.880  -2.287  24.590  0.00  0.00    +0.125 C 
ATOM     15  C   UNL     1      -0.546  -1.706  23.708  0.00  0.00    +0.305 C 
ATOM     16  C   UNL     1      -4.161  -1.459  24.462  0.00  0.00    +0.104 C 
ENDROOT
BRANCH   8  12
ATOM      4  O   UNL     1       4.296   0.473  23.451  0.00  0.00    -0.380 OA
ATOM     12  C   UNL     1       1.550  -0.361  23.219  0.00  0.00    +0.082 C 
ATOM     17  C   UNL     1       2.615  -1.224  23.896  0.00  0.00    +0.050 C 
ATOM     18  C   UNL     1       1.960   1.112  23.254  0.00  0.00    +0.050 C 
ATOM     20  C   UNL     1       3.996  -0.918  23.330  0.00  0.00    +0.161 C 
ATOM     21  C   UNL     1       3.378   1.287  22.723  0.00  0.00    +0.161 C 
ENDBRANCH   8  12
BRANCH   9  19
ATOM     19  C   UNL     1      -5.364   0.498  25.203  0.00  0.00    +0.119 C 
BRANCH  19  22
ATOM     22  C   UNL     1      -5.127   1.985  25.202  0.00  0.00    -0.030 A 
ATOM     23  C   UNL     1      -3.946   2.503  24.668  0.00  0.00    +0.051 A 
ATOM     24  C   UNL     1      -6.086   2.845  25.736  0.00  0.00    +0.005 A 
ATOM     25  C   UNL     1      -3.726   3.880  24.667  0.00  0.00    +0.130 A 
ATOM     26  C   UNL     1      -5.866   4.222  25.735  0.00  0.00    +0.004 A 
ATOM     27  C   UNL     1      -4.686   4.740  25.200  0.00  0.00    +0.046 A 
BRANCH  25   6
ATOM      6  O   UNL     1      -2.574   4.384  24.147  0.00  0.00    -0.406 OA
BRANCH   6  28
ATOM      1  F   UNL     1      -1.364   5.837  25.381  0.00  0.00    -0.133 F 
ATOM      2  F   UNL     1      -0.306   4.203  24.387  0.00  0.00    -0.133 F 
ATOM      3  F   UNL     1      -1.600   3.798  26.132  0.00  0.00    -0.133 F 
ATOM     28  C   UNL     1      -1.455   4.538  25.012  0.00  0.00    +0.575 C 
ENDBRANCH   6  28
ENDBRANCH  25   6
ENDBRANCH  19  22
ENDBRANCH   9  19
TORSDOF 5
ENDMDL
MODEL 2
REMARK VINA RESULT:       0.6      2.883      4.352
REMARK  Name = 75368677
REMARK  5 active torsions:
REMARK  status: ('A' for Active; 'I' for Inactive)
REMARK    1  A    between atoms: O_6  and  C_25
REMARK    2  A    between atoms: O_6  and  C_28
REMARK    3  A    between atoms: N_8  and  C_12
REMARK    4  A    between atoms: N_9  and  C_19
REMARK    5  A    between atoms: C_19  and  C_22
REMARK                            x       y       z     vdW  Elec       q    Type
REMARK                         _______ _______ _______ _____ _____    ______ ____
ROOT
ATOM      5  O   UNL     1       1.098   2.449  26.352  0.00  0.00    -0.252 OA
ATOM      7  N   UNL     1      -0.719   3.435  25.237  0.00  0.00    -0.278 N 
ATOM      8  N   UNL     1       0.586   2.011  24.091  0.00  0.00    -0.280 N 
ATOM      9  N   UNL     1      -3.338   4.361  24.794  0.00  0.00    -0.295 NA
ATOM     10  C   UNL     1      -1.225   3.490  23.881  0.00  0.00    +0.109 C 
ATOM     11  C   UNL     1      -0.486   2.357  23.172  0.00  0.00    +0.133 C 
ATOM     13  C   UNL     1      -2.748   3.366  23.876  0.00  0.00    +0.109 C 
ATOM     14  C   UNL     1      -1.329   4.266  26.254  0.00  0.00    +0.125 C 
ATOM     15  C   UNL     1       0.410   2.615  25.353  0.00  0.00    +0.305 C 
ATOM     16  C   UNL     1      -2.853   4.157  26.173  0.00  0.00    +0.104 C 
ENDROOT
BRANCH   8  12
ATOM      4  O   UNL     1       3.284  -0.178  21.765  0.00  0.00    -0.380 OA
ATOM     12  C   UNL     1       1.598   1.042  23.754  0.00  0.00    +0.082 C 
ATOM     17  C   UNL     1       2.850   1.729  23.207  0.00  0.00    +0.050 C 
ATOM     18  C   UNL     1       1.071   0.020  22.746  0.00  0.00    +0.050 C 
ATOM     20  C   UNL     1       3.866   0.697  22.732  0.00  0.00    +0.161 C 
ATOM     21  C   UNL     1       2.186  -0.917  22.298  0.00  0.00    +0.161 C 
ENDBRANCH   8  12
BRANCH   9  19
ATOM     19  C   UNL     1      -4.798   4.292  24.750  0.00  0.00    +0.119 C 
BRANCH  19  22
ATOM     22  C   UNL     1      -5.310   2.949  25.200  0.00  0.00    -0.030 A 
ATOM     23  C   UNL     1      -4.852   1.786  24.581  0.00  0.00    +0.051 A 
ATOM     24  C   UNL     1      -6.243   2.869  26.233  0.00  0.00    +0.005 A 
ATOM     25  C   UNL     1      -5.326   0.542  24.996  0.00  0.00    +0.130 A 
ATOM     26  C   UNL     1      -6.717   1.625  26.649  0.00  0.00    +0.004 A 
ATOM     27  C   UNL     1      -6.258   0.461  26.030  0.00  0.00    +0.046 A 
BRANCH  25   6
ATOM      6  O   UNL     1      -4.880  -0.593  24.392  0.00  0.00    -0.406 OA
BRANCH   6  28
ATOM      1  F   UNL     1      -3.792  -2.550  24.677  0.00  0.00    -0.133 F 
ATOM      2  F   UNL     1      -3.622  -1.042  26.250  0.00  0.00    -0.133 F 
ATOM      3  F   UNL     1      -2.599  -0.755  24.311  0.00  0.00    -0.133 F 
ATOM     28  C   UNL     1      -3.714  -1.221  24.915  0.00  0.00    +0.575 C 
ENDBRANCH   6  28
ENDBRANCH  25   6
ENDBRANCH  19  22
ENDBRANCH   9  19
TORSDOF 5
ENDMDL
MODEL 3
REMARK VINA RESULT:       1.5      1.796      2.748
REMARK  Name = 75368677
REMARK  5 active torsions:
REMARK  status: ('A' for Active; 'I' for Inactive)
REMARK    1  A    between atoms: O_6  and  C_25
REMARK    2  A    between atoms: O_6  and  C_28
REMARK    3  A    between atoms: N_8  and  C_12
REMARK    4  A    between atoms: N_9  and  C_19
REMARK    5  A    between atoms: C_19  and  C_22
REMARK                            x       y       z     vdW  Elec       q    Type
REMARK                         _______ _______ _______ _____ _____    ______ ____
ROOT
ATOM      5  O   UNL     1       2.452   2.179  23.209  0.00  0.00    -0.252 OA
ATOM      7  N   UNL     1       0.431   0.985  23.139  0.00  0.00    -0.278 N 
ATOM      8  N   UNL     1       2.353  -0.168  23.000  0.00  0.00    -0.280 N 
ATOM      9  N   UNL     1      -2.185   0.210  23.822  0.00  0.00    -0.295 NA
ATOM     10  C   UNL     1       0.017  -0.382  22.897  0.00  0.00    +0.109 C 
ATOM     11  C   UNL     1       1.311  -1.181  23.035  0.00  0.00    +0.133 C 
ATOM     13  C   UNL     1      -1.091  -0.782  23.870  0.00  0.00    +0.109 C 
ATOM     14  C   UNL     1      -0.576   2.019  23.259  0.00  0.00    +0.125 C 
ATOM     15  C   UNL     1       1.823   1.132  23.123  0.00  0.00    +0.305 C 
ATOM     16  C   UNL     1      -1.695   1.552  24.194  0.00  0.00    +0.104 C 
ENDROOT
BRANCH   8  12
ATOM      4  O   UNL     1       6.247  -0.733  24.416  0.00  0.00    -0.380 OA
ATOM     12  C   UNL     1       3.752  -0.512  22.995  0.00  0.00    +0.082 C 
ATOM     17  C   UNL     1       4.039  -1.649  23.976  0.00  0.00    +0.050 C 
ATOM     18  C   UNL     1       4.621   0.704  23.323  0.00  0.00    +0.050 C 
ATOM     20  C   UNL     1       5.536  -1.921  24.062  0.00  0.00    +0.161 C 
ATOM     21  C   UNL     1       6.085   0.300  23.445  0.00  0.00    +0.161 C 
ENDBRANCH   8  12
BRANCH   9  19
ATOM     19  C   UNL     1      -3.279  -0.196  24.705  0.00  0.00    +0.119 C 
BRANCH  19  22
ATOM     22  C   UNL     1      -4.140   0.973  25.104  0.00  0.00    -0.030 A 
ATOM     23  C   UNL     1      -3.549   2.192  25.438  0.00  0.00    +0.051 A 
ATOM     24  C   UNL     1      -5.527   0.837  25.142  0.00  0.00    +0.005 A 
ATOM     25  C   UNL     1      -4.346   3.275  25.808  0.00  0.00    +0.130 A 
ATOM     26  C   UNL     1      -6.324   1.920  25.513  0.00  0.00    +0.004 A 
ATOM     27  C   UNL     1      -5.733   3.140  25.846  0.00  0.00    +0.046 A 
BRANCH  25   6
ATOM      6  O   UNL     1      -3.769   4.464  26.134  0.00  0.00    -0.406 OA
BRANCH   6  28
ATOM      1  F   UNL     1      -2.538   4.541  24.243  0.00  0.00    -0.133 F 
ATOM      2  F   UNL     1      -1.531   3.986  26.103  0.00  0.00    -0.133 F 
ATOM      3  F   UNL     1      -2.183   6.071  25.764  0.00  0.00    -0.133 F 
ATOM     28  C   UNL     1      -2.496   4.770  25.576  0.00  0.00    +0.575 C 
ENDBRANCH   6  28
ENDBRANCH  25   6
ENDBRANCH  19  22
ENDBRANCH   9  19
TORSDOF 5
ENDMDL
MODEL 4
REMARK VINA RESULT:       1.6      1.337      1.557
REMARK  Name = 75368677
REMARK  5 active torsions:
REMARK  status: ('A' for Active; 'I' for Inactive)
REMARK    1  A    between atoms: O_6  and  C_25
REMARK    2  A    between atoms: O_6  and  C_28
REMARK    3  A    between atoms: N_8  and  C_12
REMARK    4  A    between atoms: N_9  and  C_19
REMARK    5  A    between atoms: C_19  and  C_22
REMARK                            x       y       z     vdW  Elec       q    Type
REMARK                         _______ _______ _______ _____ _____    ______ ____
ROOT
ATOM      5  O   UNL     1       0.422   0.083  21.221  0.00  0.00    -0.252 OA
ATOM      7  N   UNL     1      -0.895  -0.603  23.041  0.00  0.00    -0.278 N 
ATOM      8  N   UNL     1       1.339  -0.699  23.248  0.00  0.00    -0.280 N 
ATOM      9  N   UNL     1      -2.963  -0.564  24.946  0.00  0.00    -0.295 NA
ATOM     10  C   UNL     1      -0.677  -1.231  24.327  0.00  0.00    +0.109 C 
ATOM     11  C   UNL     1       0.826  -1.080  24.553  0.00  0.00    +0.133 C 
ATOM     13  C   UNL     1      -1.556  -0.579  25.394  0.00  0.00    +0.109 C 
ATOM     14  C   UNL     1      -2.251  -0.404  22.570  0.00  0.00    +0.125 C 
ATOM     15  C   UNL     1       0.302  -0.355  22.358  0.00  0.00    +0.305 C 
ATOM     16  C   UNL     1      -3.108   0.195  23.688  0.00  0.00    +0.104 C 
ENDROOT
BRANCH   8  12
ATOM      4  O   UNL     1       5.358   0.244  23.915  0.00  0.00    -0.380 OA
ATOM     12  C   UNL     1       2.750  -0.557  22.994  0.00  0.00    +0.082 C 
ATOM     17  C   UNL     1       3.569  -1.399  23.973  0.00  0.00    +0.050 C 
ATOM     18  C   UNL     1       3.181   0.909  23.067  0.00  0.00    +0.050 C 
ATOM     20  C   UNL     1       5.059  -1.147  23.785  0.00  0.00    +0.161 C 
ATOM     21  C   UNL     1       4.693   1.032  22.928  0.00  0.00    +0.161 C 
ENDBRANCH   8  12
BRANCH   9  19
ATOM     19  C   UNL     1      -3.823   0.003  25.986  0.00  0.00    +0.119 C 
BRANCH  19  22
ATOM     22  C   UNL     1      -4.178   1.438  25.700  0.00  0.00    -0.030 A 
ATOM     23  C   UNL     1      -3.169   2.370  25.457  0.00  0.00    +0.051 A 
ATOM     24  C   UNL     1      -5.514   1.835  25.678  0.00  0.00    +0.005 A 
ATOM     25  C   UNL     1      -3.497   3.700  25.193  0.00  0.00    +0.130 A 
ATOM     26  C   UNL     1      -5.842   3.164  25.413  0.00  0.00    +0.004 A 
ATOM     27  C   UNL     1      -4.833   4.097  25.170  0.00  0.00    +0.046 A 
BRANCH  25   6
ATOM      6  O   UNL     1      -2.512   4.609  24.957  0.00  0.00    -0.406 OA
BRANCH   6  28
ATOM      1  F   UNL     1      -0.345   5.238  24.896  0.00  0.00    -0.133 F 
ATOM      2  F   UNL     1      -0.893   3.348  23.944  0.00  0.00    -0.133 F 
ATOM      3  F   UNL     1      -0.884   3.529  26.147  0.00  0.00    -0.133 F 
ATOM     28  C   UNL     1      -1.161   4.163  24.987  0.00  0.00    +0.575 C 
ENDBRANCH   6  28
ENDBRANCH  25   6
ENDBRANCH  19  22
ENDBRANCH   9  19
TORSDOF 5
ENDMDL
