MODEL 1
REMARK VINA RESULT:       0.8      0.000      0.000
REMARK  Name = 38028057
REMARK  12 active torsions:
REMARK  status: ('A' for Active; 'I' for Inactive)
REMARK    1  A    between atoms: S_1  and  N_7
REMARK    2  A    between atoms: S_1  and  C_27
REMARK    3  A    between atoms: N_7  and  C_17
REMARK    4  A    between atoms: N_9  and  C_32
REMARK    5  A    between atoms: C_10  and  C_14
REMARK    6  A    between atoms: C_11  and  C_17
REMARK    7  A    between atoms: C_13  and  C_18
REMARK    8  A    between atoms: C_14  and  C_19
REMARK    9  A    between atoms: C_14  and  C_20
REMARK   10  A    between atoms: C_15  and  C_21
REMARK   11  A    between atoms: C_18  and  C_22
REMARK   12  A    between atoms: C_33  and  C_34
REMARK                            x       y       z     vdW  Elec       q    Type
REMARK                         _______ _______ _______ _____ _____    ______ ____
ROOT
ATOM     10  C   UNL     1      -2.211  -1.535  24.245  0.00  0.00    +0.000 C 
ATOM     11  C   UNL     1      -2.952  -0.435  25.047  0.00  0.00    +0.030 C 
ATOM     12  C   UNL     1      -0.772  -1.694  24.758  0.00  0.00    +0.012 C 
ATOM     13  C   UNL     1       0.034  -0.385  24.650  0.00  0.00    +0.023 C 
ATOM     15  C   UNL     1      -0.746   0.801  25.181  0.00  0.00    -0.073 C 
ATOM     16  C   UNL     1      -2.078   0.756  25.363  0.00  0.00    -0.023 C 
ATOM     21  C   UNL     1       0.047   2.026  25.539  0.00  0.00    +0.039 C 
ENDROOT
BRANCH  10  14
ATOM     14  C   UNL     1      -2.940  -2.880  24.319  0.00  0.00    -0.013 C 
ATOM     19  C   UNL     1      -3.239  -3.244  25.770  0.00  0.00    +0.007 C 
ATOM     20  C   UNL     1      -4.225  -2.835  23.498  0.00  0.00    +0.007 C 
ENDBRANCH  10  14
BRANCH  11  17
ATOM     17  C   UNL     1      -4.209   0.036  24.307  0.00  0.00    +0.113 C 
BRANCH  17   7
ATOM      7  N   UNL     1      -5.320   0.142  25.267  0.00  0.00    -0.189 NA
ATOM     35  H   UNL     1      -5.872  -0.711  25.418  0.00  0.00    +0.148 HD
BRANCH   7   1
ATOM      1  S   UNL     1      -6.108   1.634  25.505  0.00  0.00    +0.058 S 
ATOM      4  O   UNL     1      -6.631   1.688  26.858  0.00  0.00    -0.153 OA
ATOM      5  O   UNL     1      -6.978   1.897  24.376  0.00  0.00    -0.153 OA
BRANCH   1  27
ATOM     27  C   UNL     1      -4.761   2.773  25.396  0.00  0.00    +0.105 A 
ATOM     28  C   UNL     1      -4.179   3.278  26.560  0.00  0.00    +0.030 A 
ATOM     29  C   UNL     1      -4.280   3.168  24.148  0.00  0.00    +0.030 A 
ATOM     30  C   UNL     1      -3.117   4.178  26.474  0.00  0.00    +0.025 A 
ATOM     31  C   UNL     1      -3.217   4.068  24.063  0.00  0.00    +0.025 A 
ATOM     32  C   UNL     1      -2.635   4.573  25.225  0.00  0.00    +0.033 A 
BRANCH  32   9
ATOM      6  O   UNL     1      -0.077   4.429  23.643  0.00  0.00    -0.276 OA
ATOM      9  N   UNL     1      -1.572   5.471  25.139  0.00  0.00    -0.286 N 
ATOM     33  C   UNL     1      -0.397   5.353  24.384  0.00  0.00    +0.214 C 
ATOM     34  C   UNL     1       0.507   6.546  24.566  0.00  0.00    +0.109 C 
ATOM     36  H   UNL     1      -1.671   6.316  25.699  0.00  0.00    +0.155 HD
ENDBRANCH  32   9
ENDBRANCH   1  27
ENDBRANCH   7   1
ENDBRANCH  17   7
ENDBRANCH  11  17
BRANCH  13  18
ATOM     18  C   UNL     1       0.496  -0.139  23.210  0.00  0.00    +0.103 C 
BRANCH  18  22
ATOM      2  O   UNL     1       1.492   2.011  23.282  0.00  0.00    -0.276 OA
ATOM      3  O   UNL     1       5.464  -0.910  23.679  0.00  0.00    -0.377 OA
ATOM      8  N   UNL     1       2.937   0.203  23.110  0.00  0.00    -0.297 N 
ATOM     22  C   UNL     1       1.679   0.794  23.203  0.00  0.00    +0.216 C 
ATOM     23  C   UNL     1       4.140   1.035  23.102  0.00  0.00    +0.136 C 
ATOM     24  C   UNL     1       3.192  -1.225  22.888  0.00  0.00    +0.136 C 
ATOM     25  C   UNL     1       5.196   0.451  24.030  0.00  0.00    +0.179 C 
ATOM     26  C   UNL     1       4.292  -1.716  23.820  0.00  0.00    +0.179 C 
ENDBRANCH  18  22
ENDBRANCH  13  18
TORSDOF 8
ENDMDL
MODEL 2
REMARK VINA RESULT:       1.8      2.739      5.436
REMARK  Name = 38028057
REMARK  12 active torsions:
REMARK  status: ('A' for Active; 'I' for Inactive)
REMARK    1  A    between atoms: S_1  and  N_7
REMARK    2  A    between atoms: S_1  and  C_27
REMARK    3  A    between atoms: N_7  and  C_17
REMARK    4  A    between atoms: N_9  and  C_32
REMARK    5  A    between atoms: C_10  and  C_14
REMARK    6  A    between atoms: C_11  and  C_17
REMARK    7  A    between atoms: C_13  and  C_18
REMARK    8  A    between atoms: C_14  and  C_19
REMARK    9  A    between atoms: C_14  and  C_20
REMARK   10  A    between atoms: C_15  and  C_21
REMARK   11  A    between atoms: C_18  and  C_22
REMARK   12  A    between atoms: C_33  and  C_34
REMARK                            x       y       z     vdW  Elec       q    Type
REMARK                         _______ _______ _______ _____ _____    ______ ____
ROOT
ATOM     10  C   UNL     1      -4.295   2.511  25.238  0.00  0.00    +0.000 C 
ATOM     11  C   UNL     1      -4.063   1.921  23.825  0.00  0.00    +0.030 C 
ATOM     12  C   UNL     1      -3.496   3.810  25.415  0.00  0.00    +0.012 C 
ATOM     13  C   UNL     1      -1.982   3.596  25.218  0.00  0.00    +0.023 C 
ATOM     15  C   UNL     1      -1.687   2.783  23.974  0.00  0.00    -0.073 C 
ATOM     16  C   UNL     1      -2.632   2.051  23.358  0.00  0.00    -0.023 C 
ATOM     21  C   UNL     1      -0.289   2.867  23.428  0.00  0.00    +0.039 C 
ENDROOT
BRANCH  10  14
ATOM     14  C   UNL     1      -5.780   2.774  25.507  0.00  0.00    -0.013 C 
ATOM     19  C   UNL     1      -6.236   2.018  26.751  0.00  0.00    +0.007 C 
ATOM     20  C   UNL     1      -6.037   4.270  25.659  0.00  0.00    +0.007 C 
ENDBRANCH  10  14
BRANCH  11  17
ATOM     17  C   UNL     1      -4.488   0.450  23.762  0.00  0.00    +0.113 C 
BRANCH  17   7
ATOM      7  N   UNL     1      -4.415  -0.130  25.113  0.00  0.00    -0.189 NA
ATOM     35  H   UNL     1      -4.492   0.531  25.895  0.00  0.00    +0.148 HD
BRANCH   7   1
ATOM      1  S   UNL     1      -3.528  -1.559  25.386  0.00  0.00    +0.058 S 
ATOM      4  O   UNL     1      -4.022  -2.603  24.507  0.00  0.00    -0.153 OA
ATOM      5  O   UNL     1      -3.431  -1.793  26.813  0.00  0.00    -0.153 OA
BRANCH   1  27
ATOM     27  C   UNL     1      -1.917  -1.094  24.827  0.00  0.00    +0.105 A 
ATOM     28  C   UNL     1      -1.098  -0.308  25.638  0.00  0.00    +0.030 A 
ATOM     29  C   UNL     1      -1.465  -1.512  23.575  0.00  0.00    +0.030 A 
ATOM     30  C   UNL     1       0.173   0.060  25.197  0.00  0.00    +0.025 A 
ATOM     31  C   UNL     1      -0.194  -1.144  23.134  0.00  0.00    +0.025 A 
ATOM     32  C   UNL     1       0.626  -0.359  23.945  0.00  0.00    +0.033 A 
BRANCH  32   9
ATOM      6  O   UNL     1       1.796  -0.314  21.171  0.00  0.00    -0.276 OA
ATOM      9  N   UNL     1       1.898   0.008  23.504  0.00  0.00    -0.286 N 
ATOM     33  C   UNL     1       2.393   0.008  22.193  0.00  0.00    +0.214 C 
ATOM     34  C   UNL     1       3.825   0.476  22.137  0.00  0.00    +0.109 C 
ATOM     36  H   UNL     1       2.539   0.312  24.234  0.00  0.00    +0.155 HD
ENDBRANCH  32   9
ENDBRANCH   1  27
ENDBRANCH   7   1
ENDBRANCH  17   7
ENDBRANCH  11  17
BRANCH  13  18
ATOM     18  C   UNL     1      -1.351   2.953  26.457  0.00  0.00    +0.103 C 
BRANCH  18  22
ATOM      2  O   UNL     1       0.655   3.788  25.510  0.00  0.00    -0.276 OA
ATOM      3  O   UNL     1       2.198   2.438  30.012  0.00  0.00    -0.377 OA
ATOM      8  N   UNL     1       0.845   2.702  27.553  0.00  0.00    -0.297 N 
ATOM     22  C   UNL     1       0.137   3.188  26.456  0.00  0.00    +0.216 C 
ATOM     23  C   UNL     1       2.293   2.892  27.634  0.00  0.00    +0.136 C 
ATOM     24  C   UNL     1       0.285   1.876  28.630  0.00  0.00    +0.136 C 
ATOM     25  C   UNL     1       2.690   3.354  29.029  0.00  0.00    +0.179 C 
ATOM     26  C   UNL     1       0.770   2.376  29.984  0.00  0.00    +0.179 C 
ENDBRANCH  18  22
ENDBRANCH  13  18
TORSDOF 8
ENDMDL
MODEL 3
REMARK VINA RESULT:       1.9      2.282      5.693
REMARK  Name = 38028057
REMARK  12 active torsions:
REMARK  status: ('A' for Active; 'I' for Inactive)
REMARK    1  A    between atoms: S_1  and  N_7
REMARK    2  A    between atoms: S_1  and  C_27
REMARK    3  A    between atoms: N_7  and  C_17
REMARK    4  A    between atoms: N_9  and  C_32
REMARK    5  A    between atoms: C_10  and  C_14
REMARK    6  A    between atoms: C_11  and  C_17
REMARK    7  A    between atoms: C_13  and  C_18
REMARK    8  A    between atoms: C_14  and  C_19
REMARK    9  A    between atoms: C_14  and  C_20
REMARK   10  A    between atoms: C_15  and  C_21
REMARK   11  A    between atoms: C_18  and  C_22
REMARK   12  A    between atoms: C_33  and  C_34
REMARK                            x       y       z     vdW  Elec       q    Type
REMARK                         _______ _______ _______ _____ _____    ______ ____
ROOT
ATOM     10  C   UNL     1      -4.686   2.534  25.316  0.00  0.00    +0.000 C 
ATOM     11  C   UNL     1      -4.220   1.183  24.719  0.00  0.00    +0.030 C 
ATOM     12  C   UNL     1      -5.102   3.501  24.197  0.00  0.00    +0.012 C 
ATOM     13  C   UNL     1      -3.953   3.775  23.207  0.00  0.00    +0.023 C 
ATOM     15  C   UNL     1      -3.264   2.497  22.776  0.00  0.00    -0.073 C 
ATOM     16  C   UNL     1      -3.406   1.345  23.456  0.00  0.00    -0.023 C 
ATOM     21  C   UNL     1      -2.444   2.561  21.518  0.00  0.00    +0.039 C 
ENDROOT
BRANCH  10  14
ATOM     14  C   UNL     1      -5.846   2.350  26.300  0.00  0.00    -0.013 C 
ATOM     19  C   UNL     1      -6.652   3.640  26.418  0.00  0.00    +0.007 C 
ATOM     20  C   UNL     1      -6.738   1.193  25.861  0.00  0.00    +0.007 C 
ENDBRANCH  10  14
BRANCH  11  17
ATOM     17  C   UNL     1      -3.418   0.372  25.743  0.00  0.00    +0.113 C 
BRANCH  17   7
ATOM      7  N   UNL     1      -3.973  -0.989  25.818  0.00  0.00    -0.189 NA
ATOM     35  H   UNL     1      -4.293  -1.298  26.744  0.00  0.00    +0.148 HD
BRANCH   7   1
ATOM      1  S   UNL     1      -3.442  -2.193  24.736  0.00  0.00    +0.058 S 
ATOM      4  O   UNL     1      -4.202  -2.098  23.503  0.00  0.00    -0.153 OA
ATOM      5  O   UNL     1      -3.348  -3.457  25.439  0.00  0.00    -0.153 OA
BRANCH   1  27
ATOM     27  C   UNL     1      -1.788  -1.666  24.397  0.00  0.00    +0.105 A 
ATOM     28  C   UNL     1      -0.745  -2.065  25.232  0.00  0.00    +0.030 A 
ATOM     29  C   UNL     1      -1.527  -0.850  23.296  0.00  0.00    +0.030 A 
ATOM     30  C   UNL     1       0.560  -1.649  24.966  0.00  0.00    +0.025 A 
ATOM     31  C   UNL     1      -0.223  -0.434  23.030  0.00  0.00    +0.025 A 
ATOM     32  C   UNL     1       0.821  -0.833  23.864  0.00  0.00    +0.033 A 
BRANCH  32   9
ATOM      6  O   UNL     1       2.156  -0.140  21.256  0.00  0.00    -0.276 OA
ATOM      9  N   UNL     1       2.126  -0.418  23.597  0.00  0.00    -0.286 N 
ATOM     33  C   UNL     1       2.698  -0.108  22.356  0.00  0.00    +0.214 C 
ATOM     34  C   UNL     1       4.143   0.302  22.494  0.00  0.00    +0.109 C 
ATOM     36  H   UNL     1       2.729  -0.332  24.412  0.00  0.00    +0.155 HD
ENDBRANCH  32   9
ENDBRANCH   1  27
ENDBRANCH   7   1
ENDBRANCH  17   7
ENDBRANCH  11  17
BRANCH  13  18
ATOM     18  C   UNL     1      -2.947   4.771  23.794  0.00  0.00    +0.103 C 
BRANCH  18  22
ATOM      2  O   UNL     1      -3.270   4.422  26.116  0.00  0.00    -0.276 OA
ATOM      3  O   UNL     1       0.982   2.011  25.357  0.00  0.00    -0.377 OA
ATOM      8  N   UNL     1      -1.222   3.765  25.243  0.00  0.00    -0.297 N 
ATOM     22  C   UNL     1      -2.502   4.308  25.157  0.00  0.00    +0.216 C 
ATOM     23  C   UNL     1      -0.713   3.286  26.528  0.00  0.00    +0.136 C 
ATOM     24  C   UNL     1      -0.237   3.730  24.155  0.00  0.00    +0.136 C 
ATOM     25  C   UNL     1      -0.036   1.933  26.360  0.00  0.00    +0.179 C 
ATOM     26  C   UNL     1       0.426   2.360  24.087  0.00  0.00    +0.179 C 
ENDBRANCH  18  22
ENDBRANCH  13  18
TORSDOF 8
ENDMDL
MODEL 4
REMARK VINA RESULT:       2.6      2.320      7.549
REMARK  Name = 38028057
REMARK  12 active torsions:
REMARK  status: ('A' for Active; 'I' for Inactive)
REMARK    1  A    between atoms: S_1  and  N_7
REMARK    2  A    between atoms: S_1  and  C_27
REMARK    3  A    between atoms: N_7  and  C_17
REMARK    4  A    between atoms: N_9  and  C_32
REMARK    5  A    between atoms: C_10  and  C_14
REMARK    6  A    between atoms: C_11  and  C_17
REMARK    7  A    between atoms: C_13  and  C_18
REMARK    8  A    between atoms: C_14  and  C_19
REMARK    9  A    between atoms: C_14  and  C_20
REMARK   10  A    between atoms: C_15  and  C_21
REMARK   11  A    between atoms: C_18  and  C_22
REMARK   12  A    between atoms: C_33  and  C_34
REMARK                            x       y       z     vdW  Elec       q    Type
REMARK                         _______ _______ _______ _____ _____    ______ ____
ROOT
ATOM     10  C   UNL     1      -1.794  -0.695  25.179  0.00  0.00    +0.000 C 
ATOM     11  C   UNL     1      -1.601  -2.138  24.648  0.00  0.00    +0.030 C 
ATOM     12  C   UNL     1      -3.163  -0.553  25.861  0.00  0.00    +0.012 C 
ATOM     13  C   UNL     1      -4.327  -0.882  24.907  0.00  0.00    +0.023 C 
ATOM     15  C   UNL     1      -4.082  -2.166  24.142  0.00  0.00    -0.073 C 
ATOM     16  C   UNL     1      -2.860  -2.720  24.048  0.00  0.00    -0.023 C 
ATOM     21  C   UNL     1      -5.283  -2.826  23.524  0.00  0.00    +0.039 C 
ENDROOT
BRANCH  10  14
ATOM     14  C   UNL     1      -0.683  -0.296  26.156  0.00  0.00    -0.013 C 
ATOM     19  C   UNL     1      -0.598   1.222  26.271  0.00  0.00    +0.007 C 
ATOM     20  C   UNL     1      -0.923  -0.930  27.522  0.00  0.00    +0.007 C 
ENDBRANCH  10  14
BRANCH  11  17
ATOM     17  C   UNL     1      -0.468  -2.202  23.618  0.00  0.00    +0.113 C 
BRANCH  17   7
ATOM      7  N   UNL     1       0.542  -1.183  23.950  0.00  0.00    -0.189 NA
ATOM     35  H   UNL     1       0.581  -0.887  24.933  0.00  0.00    +0.148 HD
BRANCH   7   1
ATOM      1  S   UNL     1       1.039  -0.054  22.776  0.00  0.00    +0.058 S 
ATOM      4  O   UNL     1       0.481   1.247  23.096  0.00  0.00    -0.153 OA
ATOM      5  O   UNL     1       0.847  -0.624  21.457  0.00  0.00    -0.153 OA
BRANCH   1  27
ATOM     27  C   UNL     1       2.782   0.016  23.060  0.00  0.00    +0.105 A 
ATOM     28  C   UNL     1       3.439  -1.072  23.635  0.00  0.00    +0.030 A 
ATOM     29  C   UNL     1       3.501   1.160  22.711  0.00  0.00    +0.030 A 
ATOM     30  C   UNL     1       4.814  -1.017  23.860  0.00  0.00    +0.025 A 
ATOM     31  C   UNL     1       4.876   1.215  22.937  0.00  0.00    +0.025 A 
ATOM     32  C   UNL     1       5.533   0.127  23.510  0.00  0.00    +0.033 A 
BRANCH  32   9
ATOM      6  O   UNL     1       7.812  -1.135  22.000  0.00  0.00    -0.276 OA
ATOM      9  N   UNL     1       6.909   0.182  23.735  0.00  0.00    -0.286 N 
ATOM     33  C   UNL     1       7.931  -0.430  22.996  0.00  0.00    +0.214 C 
ATOM     34  C   UNL     1       9.293  -0.124  23.567  0.00  0.00    +0.109 C 
ATOM     36  H   UNL     1       7.197   0.739  24.537  0.00  0.00    +0.155 HD
ENDBRANCH  32   9
ENDBRANCH   1  27
ENDBRANCH   7   1
ENDBRANCH  17   7
ENDBRANCH  11  17
BRANCH  13  18
ATOM     18  C   UNL     1      -4.601   0.283  23.951  0.00  0.00    +0.103 C 
BRANCH  18  22
ATOM      2  O   UNL     1      -5.988   1.509  25.432  0.00  0.00    -0.276 OA
ATOM      3  O   UNL     1      -2.088   4.525  25.042  0.00  0.00    -0.377 OA
ATOM      8  N   UNL     1      -4.109   2.606  24.623  0.00  0.00    -0.297 N 
ATOM     22  C   UNL     1      -4.970   1.516  24.736  0.00  0.00    +0.216 C 
ATOM     23  C   UNL     1      -4.390   3.840  25.356  0.00  0.00    +0.136 C 
ATOM     24  C   UNL     1      -2.963   2.695  23.711  0.00  0.00    +0.136 C 
ATOM     25  C   UNL     1      -3.123   4.365  26.016  0.00  0.00    +0.179 C 
ATOM     26  C   UNL     1      -1.755   3.273  24.437  0.00  0.00    +0.179 C 
ENDBRANCH  18  22
ENDBRANCH  13  18
TORSDOF 8
ENDMDL
MODEL 5
REMARK VINA RESULT:       3.5      2.582      7.638
REMARK  Name = 38028057
REMARK  12 active torsions:
REMARK  status: ('A' for Active; 'I' for Inactive)
REMARK    1  A    between atoms: S_1  and  N_7
REMARK    2  A    between atoms: S_1  and  C_27
REMARK    3  A    between atoms: N_7  and  C_17
REMARK    4  A    between atoms: N_9  and  C_32
REMARK    5  A    between atoms: C_10  and  C_14
REMARK    6  A    between atoms: C_11  and  C_17
REMARK    7  A    between atoms: C_13  and  C_18
REMARK    8  A    between atoms: C_14  and  C_19
REMARK    9  A    between atoms: C_14  and  C_20
REMARK   10  A    between atoms: C_15  and  C_21
REMARK   11  A    between atoms: C_18  and  C_22
REMARK   12  A    between atoms: C_33  and  C_34
REMARK                            x       y       z     vdW  Elec       q    Type
REMARK                         _______ _______ _______ _____ _____    ______ ____
ROOT
ATOM     10  C   UNL     1      -2.510   2.112  23.764  0.00  0.00    +0.000 C 
ATOM     11  C   UNL     1      -1.272   2.849  24.336  0.00  0.00    +0.030 C 
ATOM     12  C   UNL     1      -3.752   3.012  23.841  0.00  0.00    +0.012 C 
ATOM     13  C   UNL     1      -4.068   3.448  25.285  0.00  0.00    +0.023 C 
ATOM     15  C   UNL     1      -2.831   3.940  26.007  0.00  0.00    -0.073 C 
ATOM     16  C   UNL     1      -1.590   3.673  25.562  0.00  0.00    -0.023 C 
ATOM     21  C   UNL     1      -3.052   4.784  27.231  0.00  0.00    +0.039 C 
ENDROOT
BRANCH  10  14
ATOM     14  C   UNL     1      -2.284   1.662  22.317  0.00  0.00    -0.013 C 
ATOM     19  C   UNL     1      -2.875   0.274  22.095  0.00  0.00    +0.007 C 
ATOM     20  C   UNL     1      -2.889   2.669  21.345  0.00  0.00    +0.007 C 
ENDBRANCH  10  14
BRANCH  11  17
ATOM     17  C   UNL     1      -0.144   1.864  24.662  0.00  0.00    +0.113 C 
BRANCH  17   7
ATOM      7  N   UNL     1       0.590   1.548  23.425  0.00  0.00    -0.189 NA
ATOM     35  H   UNL     1       0.430   2.178  22.629  0.00  0.00    +0.148 HD
BRANCH   7   1
ATOM      1  S   UNL     1       1.020  -0.062  23.071  0.00  0.00    +0.058 S 
ATOM      4  O   UNL     1       0.695  -0.350  21.686  0.00  0.00    -0.153 OA
ATOM      5  O   UNL     1       0.536  -0.927  24.129  0.00  0.00    -0.153 OA
BRANCH   1  27
ATOM     27  C   UNL     1       2.781  -0.003  23.217  0.00  0.00    +0.105 A 
ATOM     28  C   UNL     1       3.474  -1.098  23.732  0.00  0.00    +0.030 A 
ATOM     29  C   UNL     1       3.477   1.138  22.818  0.00  0.00    +0.030 A 
ATOM     30  C   UNL     1       4.863  -1.052  23.848  0.00  0.00    +0.025 A 
ATOM     31  C   UNL     1       4.866   1.184  22.934  0.00  0.00    +0.025 A 
ATOM     32  C   UNL     1       5.560   0.090  23.449  0.00  0.00    +0.033 A 
BRANCH  32   9
ATOM      6  O   UNL     1       7.697  -1.381  21.920  0.00  0.00    -0.276 OA
ATOM      9  N   UNL     1       6.949   0.135  23.563  0.00  0.00    -0.286 N 
ATOM     33  C   UNL     1       7.903  -0.576  22.822  0.00  0.00    +0.214 C 
ATOM     34  C   UNL     1       9.308  -0.243  23.255  0.00  0.00    +0.109 C 
ATOM     36  H   UNL     1       7.305   0.768  24.277  0.00  0.00    +0.155 HD
ENDBRANCH  32   9
ENDBRANCH   1  27
ENDBRANCH   7   1
ENDBRANCH  17   7
ENDBRANCH  11  17
BRANCH  13  18
ATOM     18  C   UNL     1      -4.747   2.318  26.065  0.00  0.00    +0.103 C 
BRANCH  18  22
ATOM      2  O   UNL     1      -6.147   1.543  24.315  0.00  0.00    -0.276 OA
ATOM      3  O   UNL     1      -2.994  -2.240  24.780  0.00  0.00    -0.377 OA
ATOM      8  N   UNL     1      -4.638   0.012  25.193  0.00  0.00    -0.297 N 
ATOM     22  C   UNL     1      -5.247   1.263  25.111  0.00  0.00    +0.216 C 
ATOM     23  C   UNL     1      -5.059  -1.067  24.300  0.00  0.00    +0.136 C 
ATOM     24  C   UNL     1      -3.657  -0.393  26.207  0.00  0.00    +0.136 C 
ATOM     25  C   UNL     1      -3.845  -1.783  23.724  0.00  0.00    +0.179 C 
ATOM     26  C   UNL     1      -2.503  -1.143  25.554  0.00  0.00    +0.179 C 
ENDBRANCH  18  22
ENDBRANCH  13  18
TORSDOF 8
ENDMDL
MODEL 6
REMARK VINA RESULT:       3.8      2.222      3.331
REMARK  Name = 38028057
REMARK  12 active torsions:
REMARK  status: ('A' for Active; 'I' for Inactive)
REMARK    1  A    between atoms: S_1  and  N_7
REMARK    2  A    between atoms: S_1  and  C_27
REMARK    3  A    between atoms: N_7  and  C_17
REMARK    4  A    between atoms: N_9  and  C_32
REMARK    5  A    between atoms: C_10  and  C_14
REMARK    6  A    between atoms: C_11  and  C_17
REMARK    7  A    between atoms: C_13  and  C_18
REMARK    8  A    between atoms: C_14  and  C_19
REMARK    9  A    between atoms: C_14  and  C_20
REMARK   10  A    between atoms: C_15  and  C_21
REMARK   11  A    between atoms: C_18  and  C_22
REMARK   12  A    between atoms: C_33  and  C_34
REMARK                            x       y       z     vdW  Elec       q    Type
REMARK                         _______ _______ _______ _____ _____    ______ ____
ROOT
ATOM     10  C   UNL     1      -2.310   0.919  23.250  0.00  0.00    +0.000 C 
ATOM     11  C   UNL     1      -3.434  -0.053  23.688  0.00  0.00    +0.030 C 
ATOM     12  C   UNL     1      -1.158   0.144  22.591  0.00  0.00    +0.012 C 
ATOM     13  C   UNL     1      -0.551  -0.912  23.534  0.00  0.00    +0.023 C 
ATOM     15  C   UNL     1      -1.621  -1.740  24.214  0.00  0.00    -0.073 C 
ATOM     16  C   UNL     1      -2.907  -1.347  24.262  0.00  0.00    -0.023 C 
ATOM     21  C   UNL     1      -1.189  -3.055  24.801  0.00  0.00    +0.039 C 
ENDROOT
BRANCH  10  14
ATOM     14  C   UNL     1      -2.830   1.994  22.290  0.00  0.00    -0.013 C 
ATOM     19  C   UNL     1      -2.124   3.321  22.547  0.00  0.00    +0.007 C 
ATOM     20  C   UNL     1      -2.638   1.551  20.843  0.00  0.00    +0.007 C 
ENDBRANCH  10  14
BRANCH  11  17
ATOM     17  C   UNL     1      -4.375   0.610  24.701  0.00  0.00    +0.113 C 
BRANCH  17   7
ATOM      7  N   UNL     1      -4.753   1.942  24.205  0.00  0.00    -0.189 NA
ATOM     35  H   UNL     1      -4.685   2.085  23.190  0.00  0.00    +0.148 HD
BRANCH   7   1
ATOM      1  S   UNL     1      -4.564   3.313  25.199  0.00  0.00    +0.058 S 
ATOM      4  O   UNL     1      -5.425   3.185  26.360  0.00  0.00    -0.153 OA
ATOM      5  O   UNL     1      -4.619   4.507  24.378  0.00  0.00    -0.153 OA
BRANCH   1  27
ATOM     27  C   UNL     1      -2.890   3.135  25.740  0.00  0.00    +0.105 A 
ATOM     28  C   UNL     1      -2.029   4.232  25.714  0.00  0.00    +0.030 A 
ATOM     29  C   UNL     1      -2.431   1.898  26.192  0.00  0.00    +0.030 A 
ATOM     30  C   UNL     1      -0.708   4.091  26.140  0.00  0.00    +0.025 A 
ATOM     31  C   UNL     1      -1.110   1.757  26.618  0.00  0.00    +0.025 A 
ATOM     32  C   UNL     1      -0.248   2.854  26.593  0.00  0.00    +0.033 A 
BRANCH  32   9
ATOM      6  O   UNL     1       0.896   2.650  29.370  0.00  0.00    -0.276 OA
ATOM      9  N   UNL     1       1.072   2.713  27.020  0.00  0.00    -0.286 N 
ATOM     33  C   UNL     1       1.552   2.625  28.334  0.00  0.00    +0.214 C 
ATOM     34  C   UNL     1       3.052   2.480  28.373  0.00  0.00    +0.109 C 
ATOM     36  H   UNL     1       1.767   2.671  26.277  0.00  0.00    +0.155 HD
ENDBRANCH  32   9
ENDBRANCH   1  27
ENDBRANCH   7   1
ENDBRANCH  17   7
ENDBRANCH  11  17
BRANCH  13  18
ATOM     18  C   UNL     1       0.378  -0.262  24.564  0.00  0.00    +0.103 C 
BRANCH  18  22
ATOM      2  O   UNL     1       0.948   1.903  23.783  0.00  0.00    -0.276 OA
ATOM      3  O   UNL     1       5.198  -0.528  23.081  0.00  0.00    -0.377 OA
ATOM      8  N   UNL     1       2.499   0.219  23.397  0.00  0.00    -0.297 N 
ATOM     22  C   UNL     1       1.293   0.723  23.880  0.00  0.00    +0.216 C 
ATOM     23  C   UNL     1       3.447   1.107  22.725  0.00  0.00    +0.136 C 
ATOM     24  C   UNL     1       2.885  -1.197  23.381  0.00  0.00    +0.136 C 
ATOM     25  C   UNL     1       4.860   0.854  23.230  0.00  0.00    +0.179 C 
ATOM     26  C   UNL     1       4.325  -1.355  23.854  0.00  0.00    +0.179 C 
ENDBRANCH  18  22
ENDBRANCH  13  18
TORSDOF 8
ENDMDL
MODEL 7
REMARK VINA RESULT:       4.1      2.185      6.479
REMARK  Name = 38028057
REMARK  12 active torsions:
REMARK  status: ('A' for Active; 'I' for Inactive)
REMARK    1  A    between atoms: S_1  and  N_7
REMARK    2  A    between atoms: S_1  and  C_27
REMARK    3  A    between atoms: N_7  and  C_17
REMARK    4  A    between atoms: N_9  and  C_32
REMARK    5  A    between atoms: C_10  and  C_14
REMARK    6  A    between atoms: C_11  and  C_17
REMARK    7  A    between atoms: C_13  and  C_18
REMARK    8  A    between atoms: C_14  and  C_19
REMARK    9  A    between atoms: C_14  and  C_20
REMARK   10  A    between atoms: C_15  and  C_21
REMARK   11  A    between atoms: C_18  and  C_22
REMARK   12  A    between atoms: C_33  and  C_34
REMARK                            x       y       z     vdW  Elec       q    Type
REMARK                         _______ _______ _______ _____ _____    ______ ____
ROOT
ATOM     10  C   UNL     1      -2.597   2.454  23.843  0.00  0.00    +0.000 C 
ATOM     11  C   UNL     1      -2.376   1.152  24.653  0.00  0.00    +0.030 C 
ATOM     12  C   UNL     1      -1.260   3.171  23.605  0.00  0.00    +0.012 C 
ATOM     13  C   UNL     1      -0.549   3.531  24.924  0.00  0.00    +0.023 C 
ATOM     15  C   UNL     1      -0.528   2.364  25.889  0.00  0.00    -0.073 C 
ATOM     16  C   UNL     1      -1.342   1.303  25.744  0.00  0.00    -0.023 C 
ATOM     21  C   UNL     1       0.482   2.422  27.000  0.00  0.00    +0.039 C 
ENDROOT
BRANCH  10  14
ATOM     14  C   UNL     1      -3.284   2.179  22.501  0.00  0.00    -0.013 C 
ATOM     19  C   UNL     1      -4.085   3.398  22.055  0.00  0.00    +0.007 C 
ATOM     20  C   UNL     1      -2.254   1.792  21.445  0.00  0.00    +0.007 C 
ENDBRANCH  10  14
BRANCH  11  17
ATOM     17  C   UNL     1      -3.690   0.647  25.259  0.00  0.00    +0.113 C 
BRANCH  17   7
ATOM      7  N   UNL     1      -4.103  -0.580  24.558  0.00  0.00    -0.189 NA
ATOM     35  H   UNL     1      -5.092  -0.637  24.288  0.00  0.00    +0.148 HD
BRANCH   7   1
ATOM      1  S   UNL     1      -3.288  -2.048  24.849  0.00  0.00    +0.058 S 
ATOM      4  O   UNL     1      -3.773  -3.055  23.923  0.00  0.00    -0.153 OA
ATOM      5  O   UNL     1      -3.278  -2.312  26.274  0.00  0.00    -0.153 OA
BRANCH   1  27
ATOM     27  C   UNL     1      -1.632  -1.637  24.387  0.00  0.00    +0.105 A 
ATOM     28  C   UNL     1      -0.572  -1.957  25.236  0.00  0.00    +0.030 A 
ATOM     29  C   UNL     1      -1.385  -0.992  23.175  0.00  0.00    +0.030 A 
ATOM     30  C   UNL     1       0.735  -1.632  24.873  0.00  0.00    +0.025 A 
ATOM     31  C   UNL     1      -0.078  -0.667  22.812  0.00  0.00    +0.025 A 
ATOM     32  C   UNL     1       0.982  -0.987  23.660  0.00  0.00    +0.033 A 
BRANCH  32   9
ATOM      6  O   UNL     1       2.316   1.694  23.343  0.00  0.00    -0.276 OA
ATOM      9  N   UNL     1       2.289  -0.663  23.296  0.00  0.00    -0.286 N 
ATOM     33  C   UNL     1       2.860   0.610  23.161  0.00  0.00    +0.214 C 
ATOM     34  C   UNL     1       4.308   0.532  22.748  0.00  0.00    +0.109 C 
ATOM     36  H   UNL     1       2.897  -1.458  23.106  0.00  0.00    +0.155 HD
ENDBRANCH  32   9
ENDBRANCH   1  27
ENDBRANCH   7   1
ENDBRANCH  17   7
ENDBRANCH  11  17
BRANCH  13  18
ATOM     18  C   UNL     1      -1.181   4.768  25.571  0.00  0.00    +0.103 C 
BRANCH  18  22
ATOM      2  O   UNL     1      -2.571   5.647  23.863  0.00  0.00    -0.276 OA
ATOM      3  O   UNL     1      -5.842   3.095  26.556  0.00  0.00    -0.377 OA
ATOM      8  N   UNL     1      -3.642   4.595  25.635  0.00  0.00    -0.297 N 
ATOM     22  C   UNL     1      -2.522   5.048  24.940  0.00  0.00    +0.216 C 
ATOM     23  C   UNL     1      -4.981   4.821  25.091  0.00  0.00    +0.136 C 
ATOM     24  C   UNL     1      -3.629   3.995  26.974  0.00  0.00    +0.136 C 
ATOM     25  C   UNL     1      -5.818   3.555  25.201  0.00  0.00    +0.179 C 
ATOM     26  C   UNL     1      -4.527   2.765  27.009  0.00  0.00    +0.179 C 
ENDBRANCH  18  22
ENDBRANCH  13  18
TORSDOF 8
ENDMDL
MODEL 8
REMARK VINA RESULT:       4.2      2.037      5.103
REMARK  Name = 38028057
REMARK  12 active torsions:
REMARK  status: ('A' for Active; 'I' for Inactive)
REMARK    1  A    between atoms: S_1  and  N_7
REMARK    2  A    between atoms: S_1  and  C_27
REMARK    3  A    between atoms: N_7  and  C_17
REMARK    4  A    between atoms: N_9  and  C_32
REMARK    5  A    between atoms: C_10  and  C_14
REMARK    6  A    between atoms: C_11  and  C_17
REMARK    7  A    between atoms: C_13  and  C_18
REMARK    8  A    between atoms: C_14  and  C_19
REMARK    9  A    between atoms: C_14  and  C_20
REMARK   10  A    between atoms: C_15  and  C_21
REMARK   11  A    between atoms: C_18  and  C_22
REMARK   12  A    between atoms: C_33  and  C_34
REMARK                            x       y       z     vdW  Elec       q    Type
REMARK                         _______ _______ _______ _____ _____    ______ ____
ROOT
ATOM     10  C   UNL     1      -1.958   3.564  24.931  0.00  0.00    +0.000 C 
ATOM     11  C   UNL     1      -3.244   3.797  24.099  0.00  0.00    +0.030 C 
ATOM     12  C   UNL     1      -0.766   3.274  24.007  0.00  0.00    +0.012 C 
ATOM     13  C   UNL     1      -1.003   2.038  23.119  0.00  0.00    +0.023 C 
ATOM     15  C   UNL     1      -2.372   2.066  22.470  0.00  0.00    -0.073 C 
ATOM     16  C   UNL     1      -3.356   2.867  22.913  0.00  0.00    -0.023 C 
ATOM     21  C   UNL     1      -2.570   1.183  21.270  0.00  0.00    +0.039 C 
ENDROOT
BRANCH  10  14
ATOM     14  C   UNL     1      -1.639   4.762  25.831  0.00  0.00    -0.013 C 
ATOM     19  C   UNL     1      -1.335   5.995  24.985  0.00  0.00    +0.007 C 
ATOM     20  C   UNL     1      -2.796   5.034  26.786  0.00  0.00    +0.007 C 
ENDBRANCH  10  14
BRANCH  11  17
ATOM     17  C   UNL     1      -4.498   3.667  24.970  0.00  0.00    +0.113 C 
BRANCH  17   7
ATOM      7  N   UNL     1      -5.484   2.826  24.272  0.00  0.00    -0.189 NA
ATOM     35  H   UNL     1      -6.023   3.283  23.526  0.00  0.00    +0.148 HD
BRANCH   7   1
ATOM      1  S   UNL     1      -6.223   1.521  25.079  0.00  0.00    +0.058 S 
ATOM      4  O   UNL     1      -7.335   1.034  24.284  0.00  0.00    -0.153 OA
ATOM      5  O   UNL     1      -6.422   1.874  26.471  0.00  0.00    -0.153 OA
BRANCH   1  27
ATOM     27  C   UNL     1      -4.945   0.300  25.033  0.00  0.00    +0.105 A 
ATOM     28  C   UNL     1      -4.766  -0.479  23.890  0.00  0.00    +0.030 A 
ATOM     29  C   UNL     1      -4.116   0.115  26.140  0.00  0.00    +0.030 A 
ATOM     30  C   UNL     1      -3.759  -1.443  23.853  0.00  0.00    +0.025 A 
ATOM     31  C   UNL     1      -3.109  -0.849  26.104  0.00  0.00    +0.025 A 
ATOM     32  C   UNL     1      -2.929  -1.628  24.961  0.00  0.00    +0.033 A 
BRANCH  32   9
ATOM      6  O   UNL     1      -0.135  -1.575  26.081  0.00  0.00    -0.276 OA
ATOM      9  N   UNL     1      -1.921  -2.591  24.924  0.00  0.00    -0.286 N 
ATOM     33  C   UNL     1      -0.630  -2.512  25.464  0.00  0.00    +0.214 C 
ATOM     34  C   UNL     1       0.160  -3.772  25.208  0.00  0.00    +0.109 C 
ATOM     36  H   UNL     1      -2.162  -3.454  24.443  0.00  0.00    +0.155 HD
ENDBRANCH  32   9
ENDBRANCH   1  27
ENDBRANCH   7   1
ENDBRANCH  17   7
ENDBRANCH  11  17
BRANCH  13  18
ATOM     18  C   UNL     1      -0.797   0.743  23.911  0.00  0.00    +0.103 C 
BRANCH  18  22
ATOM      2  O   UNL     1      -0.433  -1.170  22.559  0.00  0.00    -0.276 OA
ATOM      3  O   UNL     1       4.007   1.002  22.380  0.00  0.00    -0.377 OA
ATOM      8  N   UNL     1       1.440   0.090  23.102  0.00  0.00    -0.297 N 
ATOM     22  C   UNL     1       0.078  -0.203  23.130  0.00  0.00    +0.216 C 
ATOM     23  C   UNL     1       2.360  -0.774  22.362  0.00  0.00    +0.136 C 
ATOM     24  C   UNL     1       2.098   1.153  23.870  0.00  0.00    +0.136 C 
ATOM     25  C   UNL     1       3.329   0.064  21.540  0.00  0.00    +0.179 C 
ATOM     26  C   UNL     1       3.083   1.909  22.987  0.00  0.00    +0.179 C 
ENDBRANCH  18  22
ENDBRANCH  13  18
TORSDOF 8
ENDMDL
MODEL 9
REMARK VINA RESULT:       4.7      2.445      7.264
REMARK  Name = 38028057
REMARK  12 active torsions:
REMARK  status: ('A' for Active; 'I' for Inactive)
REMARK    1  A    between atoms: S_1  and  N_7
REMARK    2  A    between atoms: S_1  and  C_27
REMARK    3  A    between atoms: N_7  and  C_17
REMARK    4  A    between atoms: N_9  and  C_32
REMARK    5  A    between atoms: C_10  and  C_14
REMARK    6  A    between atoms: C_11  and  C_17
REMARK    7  A    between atoms: C_13  and  C_18
REMARK    8  A    between atoms: C_14  and  C_19
REMARK    9  A    between atoms: C_14  and  C_20
REMARK   10  A    between atoms: C_15  and  C_21
REMARK   11  A    between atoms: C_18  and  C_22
REMARK   12  A    between atoms: C_33  and  C_34
REMARK                            x       y       z     vdW  Elec       q    Type
REMARK                         _______ _______ _______ _____ _____    ______ ____
ROOT
ATOM     10  C   UNL     1      -3.160   0.517  24.966  0.00  0.00    +0.000 C 
ATOM     11  C   UNL     1      -1.983   0.468  23.959  0.00  0.00    +0.030 C 
ATOM     12  C   UNL     1      -4.491   0.713  24.226  0.00  0.00    +0.012 C 
ATOM     13  C   UNL     1      -4.509   2.008  23.391  0.00  0.00    +0.023 C 
ATOM     15  C   UNL     1      -3.247   2.163  22.567  0.00  0.00    -0.073 C 
ATOM     16  C   UNL     1      -2.133   1.457  22.827  0.00  0.00    -0.023 C 
ATOM     21  C   UNL     1      -3.310   3.117  21.407  0.00  0.00    +0.039 C 
ENDROOT
BRANCH  10  14
ATOM     14  C   UNL     1      -3.225  -0.751  25.825  0.00  0.00    -0.013 C 
ATOM     19  C   UNL     1      -3.609  -1.953  24.969  0.00  0.00    +0.007 C 
ATOM     20  C   UNL     1      -1.891  -0.989  26.524  0.00  0.00    +0.007 C 
ENDBRANCH  10  14
BRANCH  11  17
ATOM     17  C   UNL     1      -0.642   0.696  24.664  0.00  0.00    +0.113 C 
BRANCH  17   7
ATOM      7  N   UNL     1       0.414   0.847  23.649  0.00  0.00    -0.189 NA
ATOM     35  H   UNL     1       0.419   1.732  23.127  0.00  0.00    +0.148 HD
BRANCH   7   1
ATOM      1  S   UNL     1       1.051  -0.524  22.864  0.00  0.00    +0.058 S 
ATOM      4  O   UNL     1       0.786  -0.427  21.441  0.00  0.00    -0.153 OA
ATOM      5  O   UNL     1       0.666  -1.714  23.598  0.00  0.00    -0.153 OA
BRANCH   1  27
ATOM     27  C   UNL     1       2.788  -0.304  23.111  0.00  0.00    +0.105 A 
ATOM     28  C   UNL     1       3.402   0.888  22.727  0.00  0.00    +0.030 A 
ATOM     29  C   UNL     1       3.545  -1.324  23.689  0.00  0.00    +0.030 A 
ATOM     30  C   UNL     1       4.772   1.061  22.920  0.00  0.00    +0.025 A 
ATOM     31  C   UNL     1       4.916  -1.150  23.883  0.00  0.00    +0.025 A 
ATOM     32  C   UNL     1       5.529   0.042  23.499  0.00  0.00    +0.033 A 
BRANCH  32   9
ATOM      6  O   UNL     1       7.878  -1.207  22.089  0.00  0.00    -0.276 OA
ATOM      9  N   UNL     1       6.900   0.215  23.694  0.00  0.00    -0.286 N 
ATOM     33  C   UNL     1       7.956  -0.396  23.006  0.00  0.00    +0.214 C 
ATOM     34  C   UNL     1       9.298   0.061  23.520  0.00  0.00    +0.109 C 
ATOM     36  H   UNL     1       7.154   0.870  24.430  0.00  0.00    +0.155 HD
ENDBRANCH  32   9
ENDBRANCH   1  27
ENDBRANCH   7   1
ENDBRANCH  17   7
ENDBRANCH  11  17
BRANCH  13  18
ATOM     18  C   UNL     1      -4.739   3.234  24.281  0.00  0.00    +0.103 C 
BRANCH  18  22
ATOM      2  O   UNL     1      -4.529   2.456  26.511  0.00  0.00    -0.276 OA
ATOM      3  O   UNL     1       0.062   4.060  25.610  0.00  0.00    -0.377 OA
ATOM      8  N   UNL     1      -2.723   3.632  25.648  0.00  0.00    -0.297 N 
ATOM     22  C   UNL     1      -3.996   3.069  25.583  0.00  0.00    +0.216 C 
ATOM     23  C   UNL     1      -1.932   3.515  26.873  0.00  0.00    +0.136 C 
ATOM     24  C   UNL     1      -2.111   4.474  24.614  0.00  0.00    +0.136 C 
ATOM     25  C   UNL     1      -0.497   3.129  26.542  0.00  0.00    +0.179 C 
ATOM     26  C   UNL     1      -0.665   4.053  24.379  0.00  0.00    +0.179 C 
ENDBRANCH  18  22
ENDBRANCH  13  18
TORSDOF 8
ENDMDL
