MODEL 1
REMARK VINA RESULT:       2.2      0.000      0.000
REMARK  Name = 56774615
REMARK  7 active torsions:
REMARK  status: ('A' for Active; 'I' for Inactive)
REMARK    1  A    between atoms: O_2  and  C_10
REMARK    2  A    between atoms: N_7  and  C_12
REMARK    3  A    between atoms: N_8  and  C_21
REMARK    4  A    between atoms: C_9  and  C_10
REMARK    5  A    between atoms: C_10  and  C_14
REMARK    6  A    between atoms: C_12  and  C_16
REMARK    7  A    between atoms: C_27  and  C_28
REMARK                            x       y       z     vdW  Elec       q    Type
REMARK                         _______ _______ _______ _____ _____    ______ ____
ROOT
ATOM     14  C   UNL     1      -2.280   3.255  25.864  0.00  0.00    -0.017 A 
ATOM     17  C   UNL     1      -1.852   1.982  26.244  0.00  0.00    +0.008 A 
ATOM     18  C   UNL     1      -1.504   4.020  24.994  0.00  0.00    +0.008 A 
ATOM     19  C   UNL     1      -0.649   1.475  25.752  0.00  0.00    +0.023 A 
ATOM     20  C   UNL     1      -0.300   3.514  24.503  0.00  0.00    +0.023 A 
ATOM     21  C   UNL     1       0.127   2.241  24.882  0.00  0.00    +0.034 A 
ENDROOT
BRANCH  21   8
ATOM      6  O   UNL     1       0.641   0.067  22.883  0.00  0.00    -0.270 OA
ATOM      8  N   UNL     1       1.330   1.735  24.391  0.00  0.00    -0.282 N 
ATOM     27  C   UNL     1       1.517   0.712  23.451  0.00  0.00    +0.248 C 
ATOM     36  H   UNL     1       2.152   2.215  24.747  0.00  0.00    +0.155 HD
BRANCH  27  28
ATOM      4  O   UNL     1       6.143  -0.568  24.582  0.00  0.00    -0.453 OA
ATOM      5  O   UNL     1       6.863  -0.434  22.286  0.00  0.00    -0.453 OA
ATOM     28  C   UNL     1       2.930   0.414  23.105  0.00  0.00    +0.041 A 
ATOM     29  C   UNL     1       3.831   0.059  24.113  0.00  0.00    +0.062 A 
ATOM     30  C   UNL     1       5.132  -0.209  23.743  0.00  0.00    +0.167 A 
ATOM     31  C   UNL     1       5.544  -0.132  22.432  0.00  0.00    +0.166 A 
ATOM     32  C   UNL     1       3.351   0.492  21.765  0.00  0.00    +0.017 A 
ATOM     33  C   UNL     1       4.675   0.216  21.418  0.00  0.00    +0.050 A 
ATOM     34  C   UNL     1       7.236  -0.708  23.651  0.00  0.00    +0.466 C 
ENDBRANCH  27  28
ENDBRANCH  21   8
BRANCH  14  10
ATOM     10  C   UNL     1      -3.580   3.802  26.394  0.00  0.00    +0.167 C 
BRANCH  10   9
ATOM      1  O   UNL     1      -3.898   4.406  23.540  0.00  0.00    -0.369 OA
ATOM      3  O   UNL     1      -3.560   0.824  23.233  0.00  0.00    -0.273 OA
ATOM      7  N   UNL     1      -4.548   2.064  24.936  0.00  0.00    -0.287 N 
ATOM      9  C   UNL     1      -4.769   3.392  25.521  0.00  0.00    +0.135 C 
ATOM     11  C   UNL     1      -5.018   4.414  24.417  0.00  0.00    +0.185 C 
ATOM     13  C   UNL     1      -3.929   1.904  23.699  0.00  0.00    +0.242 C 
ATOM     15  C   UNL     1      -3.792   3.173  22.865  0.00  0.00    +0.255 C 
BRANCH   7  12
ATOM     12  C   UNL     1      -4.832   0.905  25.772  0.00  0.00    +0.143 C 
BRANCH  12  16
ATOM     16  C   UNL     1      -4.185  -0.342  25.244  0.00  0.00    -0.030 A 
ATOM     22  C   UNL     1      -4.793  -1.059  24.213  0.00  0.00    +0.005 A 
ATOM     23  C   UNL     1      -2.977  -0.783  25.784  0.00  0.00    +0.005 A 
ATOM     24  C   UNL     1      -4.192  -2.219  23.722  0.00  0.00    +0.000 A 
ATOM     25  C   UNL     1      -2.376  -1.942  25.293  0.00  0.00    +0.000 A 
ATOM     26  C   UNL     1      -2.983  -2.660  24.262  0.00  0.00    +0.000 A 
ENDBRANCH  12  16
ENDBRANCH   7  12
ENDBRANCH  10   9
BRANCH  10   2
ATOM      2  O   UNL     1      -3.508   5.223  26.455  0.00  0.00    -0.385 OA
ATOM     35  H   UNL     1      -4.335   5.569  26.832  0.00  0.00    +0.210 HD
ENDBRANCH  10   2
ENDBRANCH  14  10
TORSDOF 7
ENDMDL
MODEL 2
REMARK VINA RESULT:       3.6      1.347      1.778
REMARK  Name = 56774615
REMARK  7 active torsions:
REMARK  status: ('A' for Active; 'I' for Inactive)
REMARK    1  A    between atoms: O_2  and  C_10
REMARK    2  A    between atoms: N_7  and  C_12
REMARK    3  A    between atoms: N_8  and  C_21
REMARK    4  A    between atoms: C_9  and  C_10
REMARK    5  A    between atoms: C_10  and  C_14
REMARK    6  A    between atoms: C_12  and  C_16
REMARK    7  A    between atoms: C_27  and  C_28
REMARK                            x       y       z     vdW  Elec       q    Type
REMARK                         _______ _______ _______ _____ _____    ______ ____
ROOT
ATOM     14  C   UNL     1      -2.817   3.065  25.138  0.00  0.00    -0.017 A 
ATOM     17  C   UNL     1      -2.525   2.596  23.856  0.00  0.00    +0.008 A 
ATOM     18  C   UNL     1      -1.825   3.081  26.117  0.00  0.00    +0.008 A 
ATOM     19  C   UNL     1      -1.240   2.146  23.555  0.00  0.00    +0.023 A 
ATOM     20  C   UNL     1      -0.539   2.630  25.816  0.00  0.00    +0.023 A 
ATOM     21  C   UNL     1      -0.247   2.162  24.534  0.00  0.00    +0.034 A 
ENDROOT
BRANCH  21   8
ATOM      6  O   UNL     1       0.651  -0.075  22.752  0.00  0.00    -0.270 OA
ATOM      8  N   UNL     1       1.038   1.711  24.233  0.00  0.00    -0.282 N 
ATOM     27  C   UNL     1       1.405   0.655  23.388  0.00  0.00    +0.248 C 
ATOM     36  H   UNL     1       1.776   2.262  24.663  0.00  0.00    +0.155 HD
BRANCH  27  28
ATOM      4  O   UNL     1       5.519  -2.011  23.929  0.00  0.00    -0.453 OA
ATOM      5  O   UNL     1       6.891  -0.311  22.913  0.00  0.00    -0.453 OA
ATOM     28  C   UNL     1       2.867   0.432  23.246  0.00  0.00    +0.041 A 
ATOM     29  C   UNL     1       3.434  -0.761  23.701  0.00  0.00    +0.062 A 
ATOM     30  C   UNL     1       4.795  -0.923  23.547  0.00  0.00    +0.167 A 
ATOM     31  C   UNL     1       5.579   0.048  22.967  0.00  0.00    +0.166 A 
ATOM     32  C   UNL     1       3.669   1.424  22.653  0.00  0.00    +0.017 A 
ATOM     33  C   UNL     1       5.045   1.235  22.509  0.00  0.00    +0.050 A 
ATOM     34  C   UNL     1       6.846  -1.616  23.524  0.00  0.00    +0.466 C 
ENDBRANCH  27  28
ENDBRANCH  21   8
BRANCH  14  10
ATOM     10  C   UNL     1      -4.206   3.552  25.464  0.00  0.00    +0.167 C 
BRANCH  10   9
ATOM      1  O   UNL     1      -6.766   2.520  24.470  0.00  0.00    -0.369 OA
ATOM      3  O   UNL     1      -4.829  -0.492  24.009  0.00  0.00    -0.273 OA
ATOM      7  N   UNL     1      -4.643   1.133  25.664  0.00  0.00    -0.287 N 
ATOM      9  C   UNL     1      -5.050   2.463  26.132  0.00  0.00    +0.135 C 
ATOM     11  C   UNL     1      -6.535   2.679  25.864  0.00  0.00    +0.185 C 
ATOM     13  C   UNL     1      -5.236   0.536  24.554  0.00  0.00    +0.242 C 
ATOM     15  C   UNL     1      -6.522   1.192  24.064  0.00  0.00    +0.255 C 
BRANCH   7  12
ATOM     12  C   UNL     1      -3.472   0.530  26.287  0.00  0.00    +0.143 C 
BRANCH  12  16
ATOM     16  C   UNL     1      -3.049  -0.730  25.588  0.00  0.00    -0.030 A 
ATOM     22  C   UNL     1      -1.872  -0.750  24.840  0.00  0.00    +0.005 A 
ATOM     23  C   UNL     1      -3.834  -1.878  25.687  0.00  0.00    +0.005 A 
ATOM     24  C   UNL     1      -1.479  -1.921  24.191  0.00  0.00    +0.000 A 
ATOM     25  C   UNL     1      -3.441  -3.049  25.038  0.00  0.00    +0.000 A 
ATOM     26  C   UNL     1      -2.264  -3.071  24.290  0.00  0.00    +0.000 A 
ENDBRANCH  12  16
ENDBRANCH   7  12
ENDBRANCH  10   9
BRANCH  10   2
ATOM      2  O   UNL     1      -4.851   3.983  24.270  0.00  0.00    -0.385 OA
ATOM     35  H   UNL     1      -4.483   4.840  23.998  0.00  0.00    +0.210 HD
ENDBRANCH  10   2
ENDBRANCH  14  10
TORSDOF 7
ENDMDL
MODEL 3
REMARK VINA RESULT:       3.8      1.723      3.869
REMARK  Name = 56774615
REMARK  7 active torsions:
REMARK  status: ('A' for Active; 'I' for Inactive)
REMARK    1  A    between atoms: O_2  and  C_10
REMARK    2  A    between atoms: N_7  and  C_12
REMARK    3  A    between atoms: N_8  and  C_21
REMARK    4  A    between atoms: C_9  and  C_10
REMARK    5  A    between atoms: C_10  and  C_14
REMARK    6  A    between atoms: C_12  and  C_16
REMARK    7  A    between atoms: C_27  and  C_28
REMARK                            x       y       z     vdW  Elec       q    Type
REMARK                         _______ _______ _______ _____ _____    ______ ____
ROOT
ATOM     14  C   UNL     1      -3.620   0.202  24.601  0.00  0.00    -0.017 A 
ATOM     17  C   UNL     1      -3.079   0.279  23.317  0.00  0.00    +0.008 A 
ATOM     18  C   UNL     1      -2.777   0.099  25.707  0.00  0.00    +0.008 A 
ATOM     19  C   UNL     1      -1.696   0.253  23.140  0.00  0.00    +0.023 A 
ATOM     20  C   UNL     1      -1.393   0.072  25.531  0.00  0.00    +0.023 A 
ATOM     21  C   UNL     1      -0.853   0.150  24.246  0.00  0.00    +0.034 A 
ENDROOT
BRANCH  21   8
ATOM      6  O   UNL     1       0.774  -0.281  21.766  0.00  0.00    -0.270 OA
ATOM      8  N   UNL     1       0.531   0.123  24.070  0.00  0.00    -0.282 N 
ATOM     27  C   UNL     1       1.245  -0.083  22.882  0.00  0.00    +0.248 C 
ATOM     36  H   UNL     1       1.055   0.321  24.918  0.00  0.00    +0.155 HD
BRANCH  27  28
ATOM      4  O   UNL     1       5.633  -2.004  24.051  0.00  0.00    -0.453 OA
ATOM      5  O   UNL     1       6.809  -0.000  23.412  0.00  0.00    -0.453 OA
ATOM     28  C   UNL     1       2.724  -0.026  23.009  0.00  0.00    +0.041 A 
ATOM     29  C   UNL     1       3.421  -1.134  23.499  0.00  0.00    +0.062 A 
ATOM     30  C   UNL     1       4.793  -1.034  23.598  0.00  0.00    +0.167 A 
ATOM     31  C   UNL     1       5.464   0.111  23.234  0.00  0.00    +0.166 A 
ATOM     32  C   UNL     1       3.410   1.143  22.636  0.00  0.00    +0.017 A 
ATOM     33  C   UNL     1       4.801   1.219  22.748  0.00  0.00    +0.050 A 
ATOM     34  C   UNL     1       6.909  -1.342  23.930  0.00  0.00    +0.466 C 
ENDBRANCH  27  28
ENDBRANCH  21   8
BRANCH  14  10
ATOM     10  C   UNL     1      -5.115   0.231  24.793  0.00  0.00    +0.167 C 
BRANCH  10   9
ATOM      1  O   UNL     1      -6.610   1.958  26.635  0.00  0.00    -0.369 OA
ATOM      3  O   UNL     1      -3.718   4.082  26.233  0.00  0.00    -0.273 OA
ATOM      7  N   UNL     1      -4.722   2.664  24.687  0.00  0.00    -0.287 N 
ATOM      9  C   UNL     1      -5.707   1.601  24.451  0.00  0.00    +0.135 C 
ATOM     11  C   UNL     1      -6.970   1.870  25.261  0.00  0.00    +0.185 C 
ATOM     13  C   UNL     1      -4.625   3.311  25.916  0.00  0.00    +0.242 C 
ATOM     15  C   UNL     1      -5.789   3.079  26.873  0.00  0.00    +0.255 C 
BRANCH   7  12
ATOM     12  C   UNL     1      -3.725   2.897  23.651  0.00  0.00    +0.143 C 
BRANCH  12  16
ATOM     16  C   UNL     1      -2.626   3.807  24.123  0.00  0.00    -0.030 A 
ATOM     22  C   UNL     1      -2.818   5.188  24.123  0.00  0.00    +0.005 A 
ATOM     23  C   UNL     1      -1.416   3.269  24.560  0.00  0.00    +0.005 A 
ATOM     24  C   UNL     1      -1.797   6.033  24.560  0.00  0.00    +0.000 A 
ATOM     25  C   UNL     1      -0.396   4.113  24.998  0.00  0.00    +0.000 A 
ATOM     26  C   UNL     1      -0.586   5.495  24.999  0.00  0.00    +0.000 A 
ENDBRANCH  12  16
ENDBRANCH   7  12
ENDBRANCH  10   9
BRANCH  10   2
ATOM      2  O   UNL     1      -5.428  -0.094  26.143  0.00  0.00    -0.385 OA
ATOM     35  H   UNL     1      -6.358  -0.370  26.199  0.00  0.00    +0.210 HD
ENDBRANCH  10   2
ENDBRANCH  14  10
TORSDOF 7
ENDMDL
MODEL 4
REMARK VINA RESULT:       4.3      1.539      2.608
REMARK  Name = 56774615
REMARK  7 active torsions:
REMARK  status: ('A' for Active; 'I' for Inactive)
REMARK    1  A    between atoms: O_2  and  C_10
REMARK    2  A    between atoms: N_7  and  C_12
REMARK    3  A    between atoms: N_8  and  C_21
REMARK    4  A    between atoms: C_9  and  C_10
REMARK    5  A    between atoms: C_10  and  C_14
REMARK    6  A    between atoms: C_12  and  C_16
REMARK    7  A    between atoms: C_27  and  C_28
REMARK                            x       y       z     vdW  Elec       q    Type
REMARK                         _______ _______ _______ _____ _____    ______ ____
ROOT
ATOM     14  C   UNL     1      -1.628   2.016  23.841  0.00  0.00    -0.017 A 
ATOM     17  C   UNL     1      -0.744   2.831  24.551  0.00  0.00    +0.008 A 
ATOM     18  C   UNL     1      -1.144   0.927  23.117  0.00  0.00    +0.008 A 
ATOM     19  C   UNL     1       0.623   2.554  24.537  0.00  0.00    +0.023 A 
ATOM     20  C   UNL     1       0.224   0.651  23.102  0.00  0.00    +0.023 A 
ATOM     21  C   UNL     1       1.107   1.465  23.813  0.00  0.00    +0.034 A 
ENDROOT
BRANCH  21   8
ATOM      6  O   UNL     1       2.745  -0.096  21.846  0.00  0.00    -0.270 OA
ATOM      8  N   UNL     1       2.474   1.189  23.797  0.00  0.00    -0.282 N 
ATOM     27  C   UNL     1       3.194   0.450  22.849  0.00  0.00    +0.248 C 
ATOM     36  H   UNL     1       2.988   1.625  24.558  0.00  0.00    +0.155 HD
BRANCH  27  28
ATOM      4  O   UNL     1       7.707  -1.283  21.877  0.00  0.00    -0.453 OA
ATOM      5  O   UNL     1       8.707  -0.003  23.657  0.00  0.00    -0.453 OA
ATOM     28  C   UNL     1       4.657   0.354  23.092  0.00  0.00    +0.041 A 
ATOM     29  C   UNL     1       5.440  -0.477  22.287  0.00  0.00    +0.062 A 
ATOM     30  C   UNL     1       6.793  -0.533  22.551  0.00  0.00    +0.167 A 
ATOM     31  C   UNL     1       7.364   0.198  23.568  0.00  0.00    +0.166 A 
ATOM     32  C   UNL     1       5.241   1.101  24.131  0.00  0.00    +0.017 A 
ATOM     33  C   UNL     1       6.614   1.026  24.377  0.00  0.00    +0.050 A 
ATOM     34  C   UNL     1       8.918  -0.942  22.583  0.00  0.00    +0.466 C 
ENDBRANCH  27  28
ENDBRANCH  21   8
BRANCH  14  10
ATOM     10  C   UNL     1      -3.105   2.314  23.857  0.00  0.00    +0.167 C 
BRANCH  10   9
ATOM      1  O   UNL     1      -4.772   4.077  25.508  0.00  0.00    -0.369 OA
ATOM      3  O   UNL     1      -7.338   1.699  24.612  0.00  0.00    -0.273 OA
ATOM      7  N   UNL     1      -5.070   1.339  24.986  0.00  0.00    -0.287 N 
ATOM      9  C   UNL     1      -3.748   1.940  25.196  0.00  0.00    +0.135 C 
ATOM     11  C   UNL     1      -3.867   3.157  26.106  0.00  0.00    +0.185 C 
ATOM     13  C   UNL     1      -6.228   2.112  24.952  0.00  0.00    +0.242 C 
ATOM     15  C   UNL     1      -6.076   3.543  25.458  0.00  0.00    +0.255 C 
BRANCH   7  12
ATOM     12  C   UNL     1      -5.117  -0.073  24.632  0.00  0.00    +0.143 C 
BRANCH  12  16
ATOM     16  C   UNL     1      -3.806  -0.761  24.883  0.00  0.00    -0.030 A 
ATOM     22  C   UNL     1      -3.028  -0.396  25.981  0.00  0.00    +0.005 A 
ATOM     23  C   UNL     1      -3.367  -1.762  24.018  0.00  0.00    +0.005 A 
ATOM     24  C   UNL     1      -1.809  -1.034  26.215  0.00  0.00    +0.000 A 
ATOM     25  C   UNL     1      -2.149  -2.401  24.251  0.00  0.00    +0.000 A 
ATOM     26  C   UNL     1      -1.370  -2.037  25.350  0.00  0.00    +0.000 A 
ENDBRANCH  12  16
ENDBRANCH   7  12
ENDBRANCH  10   9
BRANCH  10   2
ATOM      2  O   UNL     1      -3.747   1.594  22.810  0.00  0.00    -0.385 OA
ATOM     35  H   UNL     1      -3.528   2.006  21.957  0.00  0.00    +0.210 HD
ENDBRANCH  10   2
ENDBRANCH  14  10
TORSDOF 7
ENDMDL
