MODEL 1
REMARK VINA RESULT:       3.7      0.000      0.000
REMARK  Name = 11911719
REMARK  7 active torsions:
REMARK  status: ('A' for Active; 'I' for Inactive)
REMARK    1  A    between atoms: N_5  and  C_12
REMARK    2  A    between atoms: N_6  and  C_13
REMARK    3  A    between atoms: N_9  and  C_28
REMARK    4  A    between atoms: N_9  and  C_31
REMARK    5  A    between atoms: N_9  and  C_32
REMARK    6  A    between atoms: C_17  and  C_18
REMARK    7  A    between atoms: C_19  and  C_23
REMARK                            x       y       z     vdW  Elec       q    Type
REMARK                         _______ _______ _______ _____ _____    ______ ____
ROOT
ATOM      5  N   UNL     1      -4.511   0.524  24.347  0.00  0.00    -0.306 N 
ATOM      7  N   UNL     1      -2.311  -0.279  24.187  0.00  0.00    -0.214 NA
ATOM      8  N   UNL     1      -4.121  -1.744  24.813  0.00  0.00    -0.223 NA
ATOM     16  C   UNL     1      -3.622  -0.531  24.452  0.00  0.00    +0.216 A 
ATOM     19  C   UNL     1      -1.473  -1.330  24.299  0.00  0.00    +0.076 A 
ATOM     21  C   UNL     1      -3.226  -2.749  24.906  0.00  0.00    +0.116 A 
ATOM     22  C   UNL     1      -1.876  -2.599  24.658  0.00  0.00    +0.048 A 
ATOM     33  H   UNL     1      -5.475   0.337  24.598  0.00  0.00    +0.149 HD
ENDROOT
BRANCH   5  12
ATOM      1  O   UNL     1      -4.933   3.269  25.711  0.00  0.00    -0.370 OA
ATOM      2  O   UNL     1      -2.233   3.370  24.150  0.00  0.00    -0.370 OA
ATOM     10  C   UNL     1      -2.947   2.314  24.815  0.00  0.00    +0.171 C 
ATOM     11  C   UNL     1      -3.584   2.912  26.054  0.00  0.00    +0.171 C 
ATOM     12  C   UNL     1      -4.120   1.866  23.976  0.00  0.00    +0.130 C 
ATOM     13  C   UNL     1      -2.764   4.152  26.327  0.00  0.00    +0.130 C 
ATOM     14  C   UNL     1      -5.205   2.855  24.364  0.00  0.00    +0.185 C 
ATOM     15  C   UNL     1      -2.332   4.570  24.932  0.00  0.00    +0.185 C 
BRANCH  13   6
ATOM      3  O   UNL     1      -0.625   2.336  25.715  0.00  0.00    -0.267 OA
ATOM      6  N   UNL     1      -1.625   3.852  27.159  0.00  0.00    -0.301 N 
ATOM     17  C   UNL     1      -0.637   2.956  26.776  0.00  0.00    +0.280 C 
ATOM     34  H   UNL     1      -1.570   4.279  28.080  0.00  0.00    +0.150 HD
BRANCH  17  18
ATOM      4  O   UNL     1       1.686   2.985  27.308  0.00  0.00    -0.458 OA
ATOM     18  C   UNL     1       0.458   2.737  27.757  0.00  0.00    +0.189 A 
ATOM     20  C   UNL     1       0.394   2.327  29.025  0.00  0.00    +0.054 A 
ATOM     24  C   UNL     1       1.743   2.306  29.451  0.00  0.00    +0.042 A 
ATOM     25  C   UNL     1       2.491   2.714  28.370  0.00  0.00    +0.196 A 
ENDBRANCH  17  18
ENDBRANCH  13   6
ENDBRANCH   5  12
BRANCH  19  23
ATOM     23  C   UNL     1      -0.087  -1.039  24.014  0.00  0.00    +0.001 A 
ATOM     26  C   UNL     1       0.920  -1.864  24.521  0.00  0.00    +0.012 A 
ATOM     27  C   UNL     1       0.251   0.068  23.234  0.00  0.00    +0.012 A 
ATOM     28  C   UNL     1       2.593  -0.476  23.468  0.00  0.00    +0.029 A 
ATOM     29  C   UNL     1       2.258  -1.583  24.248  0.00  0.00    +0.024 A 
ATOM     30  C   UNL     1       1.589   0.349  22.960  0.00  0.00    +0.024 A 
BRANCH  28   9
ATOM      9  N   UNL     1       3.947  -0.193  23.190  0.00  0.00    -0.336 N 
ATOM     31  C   UNL     1       5.002  -0.929  23.858  0.00  0.00    +0.129 C 
ATOM     32  C   UNL     1       4.300   0.846  22.244  0.00  0.00    +0.129 C 
ENDBRANCH  28   9
ENDBRANCH  19  23
TORSDOF 5
ENDMDL
MODEL 2
REMARK VINA RESULT:       6.0      2.366      5.607
REMARK  Name = 11911719
REMARK  7 active torsions:
REMARK  status: ('A' for Active; 'I' for Inactive)
REMARK    1  A    between atoms: N_5  and  C_12
REMARK    2  A    between atoms: N_6  and  C_13
REMARK    3  A    between atoms: N_9  and  C_28
REMARK    4  A    between atoms: N_9  and  C_31
REMARK    5  A    between atoms: N_9  and  C_32
REMARK    6  A    between atoms: C_17  and  C_18
REMARK    7  A    between atoms: C_19  and  C_23
REMARK                            x       y       z     vdW  Elec       q    Type
REMARK                         _______ _______ _______ _____ _____    ______ ____
ROOT
ATOM      5  N   UNL     1      -4.629   0.913  24.518  0.00  0.00    -0.306 N 
ATOM      7  N   UNL     1      -2.857   1.992  25.616  0.00  0.00    -0.214 NA
ATOM      8  N   UNL     1      -4.484   3.250  24.357  0.00  0.00    -0.223 NA
ATOM     16  C   UNL     1      -3.971   2.087  24.840  0.00  0.00    +0.216 A 
ATOM     19  C   UNL     1      -2.242   3.156  25.910  0.00  0.00    +0.076 A 
ATOM     21  C   UNL     1      -3.817   4.375  24.690  0.00  0.00    +0.116 A 
ATOM     22  C   UNL     1      -2.679   4.388  25.471  0.00  0.00    +0.048 A 
ATOM     33  H   UNL     1      -5.426   0.989  23.897  0.00  0.00    +0.149 HD
ENDROOT
BRANCH   5  12
ATOM      1  O   UNL     1      -3.447  -1.513  23.002  0.00  0.00    -0.370 OA
ATOM      2  O   UNL     1      -2.248  -1.496  25.883  0.00  0.00    -0.370 OA
ATOM     10  C   UNL     1      -2.686  -0.455  24.992  0.00  0.00    +0.171 C 
ATOM     11  C   UNL     1      -2.301  -0.873  23.587  0.00  0.00    +0.171 C 
ATOM     12  C   UNL     1      -4.195  -0.395  24.960  0.00  0.00    +0.130 C 
ATOM     13  C   UNL     1      -1.188  -1.875  23.793  0.00  0.00    +0.130 C 
ATOM     14  C   UNL     1      -4.547  -1.444  23.921  0.00  0.00    +0.185 C 
ATOM     15  C   UNL     1      -1.557  -2.502  25.126  0.00  0.00    +0.185 C 
BRANCH  13   6
ATOM      3  O   UNL     1       0.249  -0.688  21.608  0.00  0.00    -0.267 OA
ATOM      6  N   UNL     1       0.097  -1.222  23.861  0.00  0.00    -0.301 N 
ATOM     17  C   UNL     1       0.715  -0.675  22.746  0.00  0.00    +0.280 C 
ATOM     34  H   UNL     1       0.586  -1.204  24.751  0.00  0.00    +0.150 HD
BRANCH  17  18
ATOM      4  O   UNL     1       3.058  -0.917  23.107  0.00  0.00    -0.458 OA
ATOM     18  C   UNL     1       2.048  -0.061  22.976  0.00  0.00    +0.189 A 
ATOM     20  C   UNL     1       2.386   1.227  23.072  0.00  0.00    +0.054 A 
ATOM     24  C   UNL     1       3.784   1.202  23.292  0.00  0.00    +0.042 A 
ATOM     25  C   UNL     1       4.145  -0.125  23.305  0.00  0.00    +0.196 A 
ENDBRANCH  17  18
ENDBRANCH  13   6
ENDBRANCH   5  12
BRANCH  19  23
ATOM     23  C   UNL     1      -1.062   3.033  26.733  0.00  0.00    +0.001 A 
ATOM     26  C   UNL     1       0.192   2.863  26.141  0.00  0.00    +0.012 A 
ATOM     27  C   UNL     1      -1.170   3.080  28.124  0.00  0.00    +0.012 A 
ATOM     28  C   UNL     1       1.219   2.789  28.326  0.00  0.00    +0.029 A 
ATOM     29  C   UNL     1       1.331   2.741  26.937  0.00  0.00    +0.024 A 
ATOM     30  C   UNL     1      -0.031   2.959  28.920  0.00  0.00    +0.024 A 
BRANCH  28   9
ATOM      9  N   UNL     1       2.372   2.668  29.130  0.00  0.00    -0.336 N 
ATOM     31  C   UNL     1       2.369   1.801  30.292  0.00  0.00    +0.129 C 
ATOM     32  C   UNL     1       3.571   3.417  28.812  0.00  0.00    +0.129 C 
ENDBRANCH  28   9
ENDBRANCH  19  23
TORSDOF 5
ENDMDL
MODEL 3
REMARK VINA RESULT:       7.6      2.046      5.403
REMARK  Name = 11911719
REMARK  7 active torsions:
REMARK  status: ('A' for Active; 'I' for Inactive)
REMARK    1  A    between atoms: N_5  and  C_12
REMARK    2  A    between atoms: N_6  and  C_13
REMARK    3  A    between atoms: N_9  and  C_28
REMARK    4  A    between atoms: N_9  and  C_31
REMARK    5  A    between atoms: N_9  and  C_32
REMARK    6  A    between atoms: C_17  and  C_18
REMARK    7  A    between atoms: C_19  and  C_23
REMARK                            x       y       z     vdW  Elec       q    Type
REMARK                         _______ _______ _______ _____ _____    ______ ____
ROOT
ATOM      5  N   UNL     1      -0.488  -2.248  23.267  0.00  0.00    -0.306 N 
ATOM      7  N   UNL     1      -2.182  -0.794  23.991  0.00  0.00    -0.214 NA
ATOM      8  N   UNL     1      -2.330  -3.167  24.394  0.00  0.00    -0.223 NA
ATOM     16  C   UNL     1      -1.703  -2.065  23.903  0.00  0.00    +0.216 A 
ATOM     19  C   UNL     1      -3.368  -0.653  24.617  0.00  0.00    +0.076 A 
ATOM     21  C   UNL     1      -3.512  -2.951  25.007  0.00  0.00    +0.116 A 
ATOM     22  C   UNL     1      -4.086  -1.704  25.150  0.00  0.00    +0.048 A 
ATOM     33  H   UNL     1      -0.165  -3.203  23.160  0.00  0.00    +0.149 HD
ENDROOT
BRANCH   5  12
ATOM      1  O   UNL     1      -1.014   0.791  23.021  0.00  0.00    -0.370 OA
ATOM      2  O   UNL     1       2.065   0.362  23.290  0.00  0.00    -0.370 OA
ATOM     10  C   UNL     1       0.924  -0.351  23.796  0.00  0.00    +0.171 C 
ATOM     11  C   UNL     1      -0.131   0.680  24.149  0.00  0.00    +0.171 C 
ATOM     12  C   UNL     1       0.288  -1.168  22.696  0.00  0.00    +0.130 C 
ATOM     13  C   UNL     1       0.652   1.959  24.333  0.00  0.00    +0.130 C 
ATOM     14  C   UNL     1      -0.628  -0.164  22.021  0.00  0.00    +0.185 C 
ATOM     15  C   UNL     1       1.810   1.773  23.368  0.00  0.00    +0.185 C 
BRANCH  13   6
ATOM      3  O   UNL     1      -0.908   2.744  26.613  0.00  0.00    -0.267 OA
ATOM      6  N   UNL     1       1.120   2.094  25.691  0.00  0.00    -0.301 N 
ATOM     17  C   UNL     1       0.287   2.481  26.731  0.00  0.00    +0.280 C 
ATOM     34  H   UNL     1       2.107   1.946  25.882  0.00  0.00    +0.150 HD
BRANCH  17  18
ATOM      4  O   UNL     1       2.231   2.863  28.056  0.00  0.00    -0.458 OA
ATOM     18  C   UNL     1       0.927   2.600  28.067  0.00  0.00    +0.189 A 
ATOM     20  C   UNL     1       0.387   2.481  29.282  0.00  0.00    +0.054 A 
ATOM     24  C   UNL     1       1.472   2.693  30.165  0.00  0.00    +0.042 A 
ATOM     25  C   UNL     1       2.572   2.921  29.370  0.00  0.00    +0.196 A 
ENDBRANCH  17  18
ENDBRANCH  13   6
ENDBRANCH   5  12
BRANCH  19  23
ATOM     23  C   UNL     1      -3.859   0.703  24.699  0.00  0.00    +0.001 A 
ATOM     26  C   UNL     1      -4.991   0.993  25.464  0.00  0.00    +0.012 A 
ATOM     27  C   UNL     1      -3.205   1.727  24.012  0.00  0.00    +0.012 A 
ATOM     28  C   UNL     1      -4.811   3.324  24.853  0.00  0.00    +0.029 A 
ATOM     29  C   UNL     1      -5.466   2.303  25.540  0.00  0.00    +0.024 A 
ATOM     30  C   UNL     1      -3.679   3.037  24.090  0.00  0.00    +0.024 A 
BRANCH  28   9
ATOM      9  N   UNL     1      -5.291   4.648  24.933  0.00  0.00    -0.336 N 
ATOM     31  C   UNL     1      -4.687   5.696  24.135  0.00  0.00    +0.129 C 
ATOM     32  C   UNL     1      -6.385   4.980  25.823  0.00  0.00    +0.129 C 
ENDBRANCH  28   9
ENDBRANCH  19  23
TORSDOF 5
ENDMDL
