MODEL 1
REMARK VINA RESULT:       2.1      0.000      0.000
REMARK  Name = 7144125
REMARK  2 active torsions:
REMARK  status: ('A' for Active; 'I' for Inactive)
REMARK    1  A    between atoms: C_14  and  C_19
REMARK    2  A    between atoms: C_16  and  C_20
REMARK                            x       y       z     vdW  Elec       q    Type
REMARK                         _______ _______ _______ _____ _____    ______ ____
ROOT
ATOM      2  O   UNL     1      -3.041   4.268  27.518  0.00  0.00    -0.268 OA
ATOM      3  O   UNL     1      -5.295   0.607  25.873  0.00  0.00    -0.267 OA
ATOM      5  N   UNL     1      -2.613   3.384  25.391  0.00  0.00    -0.311 N 
ATOM      6  N   UNL     1      -4.216   1.131  23.867  0.00  0.00    -0.294 N 
ATOM      7  C   UNL     1      -4.322   3.581  23.488  0.00  0.00    +0.027 C 
ATOM      8  C   UNL     1      -2.204   2.385  23.121  0.00  0.00    +0.054 C 
ATOM      9  C   UNL     1      -3.104   3.497  22.581  0.00  0.00    +0.018 C 
ATOM     10  C   UNL     1      -3.857   3.985  24.888  0.00  0.00    +0.130 C 
ATOM     11  C   UNL     1      -5.086   2.246  23.497  0.00  0.00    +0.113 C 
ATOM     12  C   UNL     1      -2.968   1.043  23.095  0.00  0.00    +0.117 C 
ATOM     13  C   UNL     1      -1.727   2.689  24.543  0.00  0.00    +0.034 A 
ATOM     14  C   UNL     1      -0.517   2.286  25.013  0.00  0.00    +0.002 A 
ATOM     15  C   UNL     1      -2.312   3.654  26.738  0.00  0.00    +0.252 A 
ATOM     16  C   UNL     1      -4.586   0.290  24.920  0.00  0.00    +0.282 C 
ATOM     17  C   UNL     1      -0.174   2.543  26.398  0.00  0.00    +0.015 A 
ATOM     18  C   UNL     1      -1.004   3.169  27.233  0.00  0.00    +0.071 A 
ENDROOT
BRANCH  14  19
ATOM      1 CL   UNL     1       3.413  -0.587  21.534  0.00  0.00    -0.084 Cl
ATOM     19  C   UNL     1       0.454   1.575  24.153  0.00  0.00    -0.016 A 
ATOM     21  C   UNL     1       0.158   0.299  23.683  0.00  0.00    +0.010 A 
ATOM     22  C   UNL     1       1.658   2.188  23.817  0.00  0.00    +0.010 A 
ATOM     24  C   UNL     1       1.074  -0.371  22.872  0.00  0.00    +0.020 A 
ATOM     25  C   UNL     1       2.574   1.518  23.007  0.00  0.00    +0.020 A 
ATOM     27  C   UNL     1       2.283   0.239  22.533  0.00  0.00    +0.041 A 
ENDBRANCH  14  19
BRANCH  16  20
ATOM      4  O   UNL     1      -4.447  -1.885  23.886  0.00  0.00    -0.458 OA
ATOM     20  C   UNL     1      -4.082  -1.088  24.918  0.00  0.00    +0.189 A 
ATOM     23  C   UNL     1      -3.277  -1.754  25.800  0.00  0.00    +0.054 A 
ATOM     26  C   UNL     1      -3.130  -3.061  25.278  0.00  0.00    +0.042 A 
ATOM     28  C   UNL     1      -3.861  -3.091  24.113  0.00  0.00    +0.196 A 
ENDBRANCH  16  20
TORSDOF 2
ENDMDL
