MODEL 1
REMARK VINA RESULT:       0.5      0.000      0.000
REMARK  Name = 26745297
REMARK  9 active torsions:
REMARK  status: ('A' for Active; 'I' for Inactive)
REMARK    1  A    between atoms: O_2  and  C_30
REMARK    2  A    between atoms: O_2  and  C_31
REMARK    3  A    between atoms: O_3  and  C_27
REMARK    4  A    between atoms: N_5  and  C_14
REMARK    5  A    between atoms: N_8  and  C_18
REMARK    6  A    between atoms: C_9  and  C_15
REMARK    7  A    between atoms: C_14  and  C_16
REMARK    8  A    between atoms: C_18  and  C_21
REMARK    9  A    between atoms: C_24  and  C_27
REMARK                            x       y       z     vdW  Elec       q    Type
REMARK                         _______ _______ _______ _____ _____    ______ ____
ROOT
ATOM      5  N   UNL     1      -0.752   2.960  23.767  0.00  0.00    -0.281 NA
ATOM      6  N   UNL     1      -3.085   0.009  23.764  0.00  0.00    -0.347 N 
ATOM      7  N   UNL     1      -2.132  -0.505  25.720  0.00  0.00    -0.240 NA
ATOM      9  C   UNL     1       0.222   2.311  24.686  0.00  0.00    +0.150 C 
ATOM     10  C   UNL     1      -0.367   1.320  25.729  0.00  0.00    +0.085 C 
ATOM     11  C   UNL     1      -1.637   1.998  23.055  0.00  0.00    +0.140 C 
ATOM     12  C   UNL     1      -2.075   0.903  23.948  0.00  0.00    +0.053 A 
ATOM     13  C   UNL     1      -1.503   0.565  25.150  0.00  0.00    +0.065 A 
ATOM     17  C   UNL     1      -3.080  -0.819  24.859  0.00  0.00    +0.197 A 
ATOM     32  H   UNL     1      -3.717  -0.041  22.975  0.00  0.00    +0.167 HD
ENDROOT
BRANCH   9  15
ATOM      1  O   UNL     1       2.304   2.178  23.518  0.00  0.00    -0.274 OA
ATOM      8  N   UNL     1       0.843   0.367  23.424  0.00  0.00    -0.310 N 
ATOM     15  C   UNL     1       1.248   1.630  23.823  0.00  0.00    +0.231 C 
ATOM     33  H   UNL     1      -0.050   0.010  23.751  0.00  0.00    +0.149 HD
BRANCH   8  18
ATOM     18  C   UNL     1       1.639  -0.485  22.573  0.00  0.00    +0.139 C 
BRANCH  18  21
ATOM     21  C   UNL     1       3.099  -0.418  22.915  0.00  0.00    -0.030 A 
ATOM     25  C   UNL     1       3.664  -1.376  23.757  0.00  0.00    +0.009 A 
ATOM     26  C   UNL     1       3.891   0.604  22.392  0.00  0.00    +0.009 A 
ATOM     28  C   UNL     1       5.021  -1.313  24.074  0.00  0.00    +0.046 A 
ATOM     29  C   UNL     1       5.247   0.668  22.710  0.00  0.00    +0.046 A 
ATOM     30  C   UNL     1       5.812  -0.290  23.551  0.00  0.00    +0.120 A 
BRANCH  30   2
ATOM      2  O   UNL     1       7.136  -0.229  23.860  0.00  0.00    -0.495 OA
ATOM     31  C   UNL     1       8.061  -0.540  22.818  0.00  0.00    +0.277 C 
ENDBRANCH  30   2
ENDBRANCH  18  21
ENDBRANCH   8  18
ENDBRANCH   9  15
BRANCH   5  14
ATOM     14  C   UNL     1      -1.539   3.975  24.475  0.00  0.00    +0.120 C 
BRANCH  14  16
ATOM     16  C   UNL     1      -2.904   3.471  24.845  0.00  0.00    -0.033 A 
ATOM     19  C   UNL     1      -3.851   3.233  23.850  0.00  0.00    +0.006 A 
ATOM     20  C   UNL     1      -3.224   3.242  26.183  0.00  0.00    +0.006 A 
ATOM     22  C   UNL     1      -5.120   2.764  24.193  0.00  0.00    +0.015 A 
ATOM     23  C   UNL     1      -4.492   2.775  26.527  0.00  0.00    +0.015 A 
ATOM     24  C   UNL     1      -5.440   2.536  25.531  0.00  0.00    +0.059 A 
BRANCH  24  27
ATOM      4  O   UNL     1      -7.188   1.916  27.042  0.00  0.00    -0.245 OA
ATOM     27  C   UNL     1      -6.762   2.046  25.891  0.00  0.00    +0.337 C 
BRANCH  27   3
ATOM      3  O   UNL     1      -7.516   1.734  24.801  0.00  0.00    -0.477 OA
ATOM     34  H   UNL     1      -6.992   1.260  24.119  0.00  0.00    +0.295 HD
ENDBRANCH  27   3
ENDBRANCH  24  27
ENDBRANCH  14  16
ENDBRANCH   5  14
TORSDOF 8
ENDMDL
MODEL 2
REMARK VINA RESULT:       0.9      1.918      2.590
REMARK  Name = 26745297
REMARK  9 active torsions:
REMARK  status: ('A' for Active; 'I' for Inactive)
REMARK    1  A    between atoms: O_2  and  C_30
REMARK    2  A    between atoms: O_2  and  C_31
REMARK    3  A    between atoms: O_3  and  C_27
REMARK    4  A    between atoms: N_5  and  C_14
REMARK    5  A    between atoms: N_8  and  C_18
REMARK    6  A    between atoms: C_9  and  C_15
REMARK    7  A    between atoms: C_14  and  C_16
REMARK    8  A    between atoms: C_18  and  C_21
REMARK    9  A    between atoms: C_24  and  C_27
REMARK                            x       y       z     vdW  Elec       q    Type
REMARK                         _______ _______ _______ _____ _____    ______ ____
ROOT
ATOM      5  N   UNL     1      -1.653   0.495  24.761  0.00  0.00    -0.281 NA
ATOM      6  N   UNL     1      -4.505  -1.583  23.458  0.00  0.00    -0.347 N 
ATOM      7  N   UNL     1      -3.576  -3.247  24.626  0.00  0.00    -0.240 NA
ATOM      9  C   UNL     1      -0.778  -0.684  25.004  0.00  0.00    +0.150 C 
ATOM     10  C   UNL     1      -1.496  -2.008  25.389  0.00  0.00    +0.085 C 
ATOM     11  C   UNL     1      -2.738   0.244  23.774  0.00  0.00    +0.140 C 
ATOM     12  C   UNL     1      -3.335  -1.098  23.957  0.00  0.00    +0.053 A 
ATOM     13  C   UNL     1      -2.782  -2.136  24.664  0.00  0.00    +0.065 A 
ATOM     17  C   UNL     1      -4.607  -2.882  23.889  0.00  0.00    +0.197 A 
ATOM     32  H   UNL     1      -5.171  -1.087  22.879  0.00  0.00    +0.167 HD
ENDROOT
BRANCH   9  15
ATOM      1  O   UNL     1      -0.026  -1.884  23.078  0.00  0.00    -0.274 OA
ATOM      8  N   UNL     1       0.905   0.199  23.540  0.00  0.00    -0.310 N 
ATOM     15  C   UNL     1       0.056  -0.871  23.767  0.00  0.00    +0.231 C 
ATOM     33  H   UNL     1       0.877   0.994  24.173  0.00  0.00    +0.149 HD
BRANCH   8  18
ATOM     18  C   UNL     1       1.826   0.256  22.429  0.00  0.00    +0.139 C 
BRANCH  18  21
ATOM     21  C   UNL     1       3.249   0.062  22.867  0.00  0.00    -0.030 A 
ATOM     25  C   UNL     1       4.167   1.103  22.737  0.00  0.00    +0.009 A 
ATOM     26  C   UNL     1       3.652  -1.160  23.405  0.00  0.00    +0.009 A 
ATOM     28  C   UNL     1       5.489   0.923  23.145  0.00  0.00    +0.046 A 
ATOM     29  C   UNL     1       4.974  -1.340  23.813  0.00  0.00    +0.046 A 
ATOM     30  C   UNL     1       5.892  -0.299  23.683  0.00  0.00    +0.120 A 
BRANCH  30   2
ATOM      2  O   UNL     1       7.181  -0.475  24.081  0.00  0.00    -0.495 OA
ATOM     31  C   UNL     1       8.191  -0.378  23.077  0.00  0.00    +0.277 C 
ENDBRANCH  30   2
ENDBRANCH  18  21
ENDBRANCH   8  18
ENDBRANCH   9  15
BRANCH   5  14
ATOM     14  C   UNL     1      -2.196   1.010  26.022  0.00  0.00    +0.120 C 
BRANCH  14  16
ATOM     16  C   UNL     1      -3.192   2.111  25.797  0.00  0.00    -0.033 A 
ATOM     19  C   UNL     1      -4.542   1.805  25.629  0.00  0.00    +0.006 A 
ATOM     20  C   UNL     1      -2.766   3.439  25.755  0.00  0.00    +0.006 A 
ATOM     22  C   UNL     1      -5.467   2.827  25.420  0.00  0.00    +0.015 A 
ATOM     23  C   UNL     1      -3.691   4.461  25.546  0.00  0.00    +0.015 A 
ATOM     24  C   UNL     1      -5.043   4.155  25.378  0.00  0.00    +0.059 A 
BRANCH  24  27
ATOM      4  O   UNL     1      -5.955   6.061  24.257  0.00  0.00    -0.245 OA
ATOM     27  C   UNL     1      -6.007   5.222  25.162  0.00  0.00    +0.337 C 
BRANCH  27   3
ATOM      3  O   UNL     1      -7.011   5.211  26.082  0.00  0.00    -0.477 OA
ATOM     34  H   UNL     1      -7.784   5.736  25.784  0.00  0.00    +0.295 HD
ENDBRANCH  27   3
ENDBRANCH  24  27
ENDBRANCH  14  16
ENDBRANCH   5  14
TORSDOF 8
ENDMDL
MODEL 3
REMARK VINA RESULT:       1.4      2.365      3.812
REMARK  Name = 26745297
REMARK  9 active torsions:
REMARK  status: ('A' for Active; 'I' for Inactive)
REMARK    1  A    between atoms: O_2  and  C_30
REMARK    2  A    between atoms: O_2  and  C_31
REMARK    3  A    between atoms: O_3  and  C_27
REMARK    4  A    between atoms: N_5  and  C_14
REMARK    5  A    between atoms: N_8  and  C_18
REMARK    6  A    between atoms: C_9  and  C_15
REMARK    7  A    between atoms: C_14  and  C_16
REMARK    8  A    between atoms: C_18  and  C_21
REMARK    9  A    between atoms: C_24  and  C_27
REMARK                            x       y       z     vdW  Elec       q    Type
REMARK                         _______ _______ _______ _____ _____    ______ ____
ROOT
ATOM      5  N   UNL     1      -0.477   0.920  25.723  0.00  0.00    -0.281 NA
ATOM      6  N   UNL     1      -1.411   4.561  25.860  0.00  0.00    -0.347 N 
ATOM      7  N   UNL     1      -2.646   4.117  24.050  0.00  0.00    -0.240 NA
ATOM      9  C   UNL     1      -0.783   0.797  24.272  0.00  0.00    +0.150 C 
ATOM     10  C   UNL     1      -1.921   1.705  23.727  0.00  0.00    +0.085 C 
ATOM     11  C   UNL     1      -0.217   2.317  26.164  0.00  0.00    +0.140 C 
ATOM     12  C   UNL     1      -1.146   3.270  25.518  0.00  0.00    +0.053 A 
ATOM     13  C   UNL     1      -1.909   3.023  24.404  0.00  0.00    +0.065 A 
ATOM     17  C   UNL     1      -2.323   5.029  24.945  0.00  0.00    +0.197 A 
ATOM     32  H   UNL     1      -1.016   5.080  26.634  0.00  0.00    +0.167 HD
ENDROOT
BRANCH   9  15
ATOM      1  O   UNL     1       1.214   2.017  23.785  0.00  0.00    -0.274 OA
ATOM      8  N   UNL     1       0.741   0.097  22.557  0.00  0.00    -0.310 N 
ATOM     15  C   UNL     1       0.501   1.050  23.532  0.00  0.00    +0.231 C 
ATOM     33  H   UNL     1       0.084  -0.671  22.445  0.00  0.00    +0.149 HD
BRANCH   8  18
ATOM     18  C   UNL     1       1.897   0.125  21.691  0.00  0.00    +0.139 C 
BRANCH  18  21
ATOM     21  C   UNL     1       3.177  -0.047  22.457  0.00  0.00    -0.030 A 
ATOM     25  C   UNL     1       3.419  -1.230  23.154  0.00  0.00    +0.009 A 
ATOM     26  C   UNL     1       4.124   0.977  22.471  0.00  0.00    +0.009 A 
ATOM     28  C   UNL     1       4.609  -1.390  23.865  0.00  0.00    +0.046 A 
ATOM     29  C   UNL     1       5.313   0.817  23.181  0.00  0.00    +0.046 A 
ATOM     30  C   UNL     1       5.556  -0.366  23.879  0.00  0.00    +0.120 A 
BRANCH  30   2
ATOM      2  O   UNL     1       6.717  -0.522  24.571  0.00  0.00    -0.495 OA
ATOM     31  C   UNL     1       7.931  -0.234  23.877  0.00  0.00    +0.277 C 
ENDBRANCH  30   2
ENDBRANCH  18  21
ENDBRANCH   8  18
ENDBRANCH   9  15
BRANCH   5  14
ATOM     14  C   UNL     1      -1.531   0.300  26.532  0.00  0.00    +0.120 C 
BRANCH  14  16
ATOM     16  C   UNL     1      -2.334  -0.694  25.744  0.00  0.00    -0.033 A 
ATOM     19  C   UNL     1      -3.670  -0.429  25.445  0.00  0.00    +0.006 A 
ATOM     20  C   UNL     1      -1.744  -1.882  25.312  0.00  0.00    +0.006 A 
ATOM     22  C   UNL     1      -4.416  -1.352  24.712  0.00  0.00    +0.015 A 
ATOM     23  C   UNL     1      -2.490  -2.805  24.580  0.00  0.00    +0.015 A 
ATOM     24  C   UNL     1      -3.827  -2.540  24.280  0.00  0.00    +0.059 A 
BRANCH  24  27
ATOM      4  O   UNL     1      -5.795  -3.381  23.211  0.00  0.00    -0.245 OA
ATOM     27  C   UNL     1      -4.604  -3.503  23.515  0.00  0.00    +0.337 C 
BRANCH  27   3
ATOM      3  O   UNL     1      -3.872  -4.591  23.151  0.00  0.00    -0.477 OA
ATOM     34  H   UNL     1      -2.911  -4.393  23.129  0.00  0.00    +0.295 HD
ENDBRANCH  27   3
ENDBRANCH  24  27
ENDBRANCH  14  16
ENDBRANCH   5  14
TORSDOF 8
ENDMDL
MODEL 4
REMARK VINA RESULT:       1.7      1.527      8.992
REMARK  Name = 26745297
REMARK  9 active torsions:
REMARK  status: ('A' for Active; 'I' for Inactive)
REMARK    1  A    between atoms: O_2  and  C_30
REMARK    2  A    between atoms: O_2  and  C_31
REMARK    3  A    between atoms: O_3  and  C_27
REMARK    4  A    between atoms: N_5  and  C_14
REMARK    5  A    between atoms: N_8  and  C_18
REMARK    6  A    between atoms: C_9  and  C_15
REMARK    7  A    between atoms: C_14  and  C_16
REMARK    8  A    between atoms: C_18  and  C_21
REMARK    9  A    between atoms: C_24  and  C_27
REMARK                            x       y       z     vdW  Elec       q    Type
REMARK                         _______ _______ _______ _____ _____    ______ ____
ROOT
ATOM      5  N   UNL     1       0.131  -0.012  23.892  0.00  0.00    -0.281 NA
ATOM      6  N   UNL     1      -2.385  -2.279  25.529  0.00  0.00    -0.347 N 
ATOM      7  N   UNL     1      -3.604  -1.944  23.685  0.00  0.00    -0.240 NA
ATOM      9  C   UNL     1      -0.883   0.644  23.023  0.00  0.00    +0.150 C 
ATOM     10  C   UNL     1      -2.086  -0.235  22.580  0.00  0.00    +0.085 C 
ATOM     11  C   UNL     1      -0.446  -0.663  25.099  0.00  0.00    +0.140 C 
ATOM     12  C   UNL     1      -1.715  -1.356  24.786  0.00  0.00    +0.053 A 
ATOM     13  C   UNL     1      -2.483  -1.163  23.665  0.00  0.00    +0.065 A 
ATOM     17  C   UNL     1      -3.517  -2.604  24.823  0.00  0.00    +0.197 A 
ATOM     32  H   UNL     1      -2.108  -2.654  26.427  0.00  0.00    +0.167 HD
ENDROOT
BRANCH   9  15
ATOM      1  O   UNL     1      -0.757   2.315  24.729  0.00  0.00    -0.274 OA
ATOM      8  N   UNL     1      -2.526   2.382  23.215  0.00  0.00    -0.310 N 
ATOM     15  C   UNL     1      -1.358   1.869  23.755  0.00  0.00    +0.231 C 
ATOM     33  H   UNL     1      -2.928   1.935  22.396  0.00  0.00    +0.149 HD
BRANCH   8  18
ATOM     18  C   UNL     1      -3.200   3.543  23.749  0.00  0.00    +0.139 C 
BRANCH  18  21
ATOM     21  C   UNL     1      -4.312   3.167  24.684  0.00  0.00    -0.030 A 
ATOM     25  C   UNL     1      -5.026   4.160  25.354  0.00  0.00    +0.009 A 
ATOM     26  C   UNL     1      -4.632   1.824  24.882  0.00  0.00    +0.009 A 
ATOM     28  C   UNL     1      -6.060   3.810  26.223  0.00  0.00    +0.046 A 
ATOM     29  C   UNL     1      -5.666   1.474  25.751  0.00  0.00    +0.046 A 
ATOM     30  C   UNL     1      -6.379   2.467  26.421  0.00  0.00    +0.120 A 
BRANCH  30   2
ATOM      2  O   UNL     1      -7.389   2.126  27.268  0.00  0.00    -0.495 OA
ATOM     31  C   UNL     1      -7.222   0.929  28.029  0.00  0.00    +0.277 C 
ENDBRANCH  30   2
ENDBRANCH  18  21
ENDBRANCH   8  18
ENDBRANCH   9  15
BRANCH   5  14
ATOM     14  C   UNL     1       0.944  -0.958  23.121  0.00  0.00    +0.120 C 
BRANCH  14  16
ATOM     16  C   UNL     1       2.408  -0.635  23.200  0.00  0.00    -0.033 A 
ATOM     19  C   UNL     1       2.882   0.573  22.691  0.00  0.00    +0.006 A 
ATOM     20  C   UNL     1       3.293  -1.543  23.781  0.00  0.00    +0.006 A 
ATOM     22  C   UNL     1       4.242   0.875  22.764  0.00  0.00    +0.015 A 
ATOM     23  C   UNL     1       4.653  -1.243  23.853  0.00  0.00    +0.015 A 
ATOM     24  C   UNL     1       5.128  -0.033  23.344  0.00  0.00    +0.059 A 
BRANCH  24  27
ATOM      4  O   UNL     1       7.445  -0.319  22.823  0.00  0.00    -0.245 OA
ATOM     27  C   UNL     1       6.546   0.280  23.422  0.00  0.00    +0.337 C 
BRANCH  27   3
ATOM      3  O   UNL     1       6.802   1.333  24.244  0.00  0.00    -0.477 OA
ATOM     34  H   UNL     1       5.981   1.692  24.644  0.00  0.00    +0.295 HD
ENDBRANCH  27   3
ENDBRANCH  24  27
ENDBRANCH  14  16
ENDBRANCH   5  14
TORSDOF 8
ENDMDL
