MODEL 1
REMARK VINA RESULT:       4.4      0.000      0.000
REMARK  Name = 11867169
REMARK  6 active torsions:
REMARK  status: ('A' for Active; 'I' for Inactive)
REMARK    1  A    between atoms: S_1  and  N_10
REMARK    2  A    between atoms: S_1  and  C_28
REMARK    3  A    between atoms: O_6  and  C_32
REMARK    4  A    between atoms: N_10  and  C_21
REMARK    5  A    between atoms: C_20  and  C_23
REMARK    6  A    between atoms: C_26  and  C_32
REMARK                            x       y       z     vdW  Elec       q    Type
REMARK                         _______ _______ _______ _____ _____    ______ ____
ROOT
ATOM      2  O   UNL     1       0.027   2.796  25.889  0.00  0.00    -0.266 OA
ATOM      3  O   UNL     1      -4.337   0.275  27.090  0.00  0.00    -0.270 OA
ATOM      8  N   UNL     1      -4.813   1.700  25.296  0.00  0.00    -0.297 N 
ATOM      9  N   UNL     1      -1.971   2.964  24.675  0.00  0.00    -0.310 N 
ATOM     11  C   UNL     1      -4.086   4.060  25.612  0.00  0.00    +0.027 C 
ATOM     12  C   UNL     1      -4.113   3.080  23.354  0.00  0.00    +0.054 C 
ATOM     13  C   UNL     1      -4.413   4.348  24.151  0.00  0.00    +0.018 C 
ATOM     14  C   UNL     1      -4.942   2.892  26.135  0.00  0.00    +0.113 C 
ATOM     15  C   UNL     1      -2.584   3.775  25.735  0.00  0.00    +0.130 C 
ATOM     16  C   UNL     1      -5.009   1.931  23.856  0.00  0.00    +0.117 C 
ATOM     17  C   UNL     1      -2.654   2.685  23.484  0.00  0.00    +0.027 A 
ATOM     18  C   UNL     1      -2.036   2.039  22.478  0.00  0.00    +0.024 A 
ATOM     19  C   UNL     1      -0.631   2.569  24.874  0.00  0.00    +0.274 A 
ATOM     20  C   UNL     1      -4.503   0.473  25.887  0.00  0.00    +0.247 C 
ATOM     21  C   UNL     1      -0.011   1.839  23.739  0.00  0.00    +0.112 A 
ATOM     22  C   UNL     1      -0.674   1.599  22.607  0.00  0.00    +0.031 A 
ENDROOT
BRANCH  20  23
ATOM     23  C   UNL     1      -4.338  -0.690  25.010  0.00  0.00    +0.038 A 
ATOM     24  C   UNL     1      -3.103  -1.329  24.930  0.00  0.00    +0.028 A 
ATOM     25  C   UNL     1      -5.417  -1.151  24.260  0.00  0.00    +0.013 A 
ATOM     26  C   UNL     1      -2.945  -2.436  24.097  0.00  0.00    +0.060 A 
ATOM     27  C   UNL     1      -5.260  -2.259  23.426  0.00  0.00    +0.002 A 
ATOM     29  C   UNL     1      -4.025  -2.901  23.345  0.00  0.00    +0.015 A 
BRANCH  26  32
ATOM      7  O   UNL     1      -1.298  -3.851  23.095  0.00  0.00    -0.245 OA
ATOM     32  C   UNL     1      -1.657  -3.106  24.011  0.00  0.00    +0.337 C 
BRANCH  32   6
ATOM      6  O   UNL     1      -0.852  -2.824  25.073  0.00  0.00    -0.477 OA
ATOM     37  H   UNL     1      -1.031  -1.931  25.439  0.00  0.00    +0.295 HD
ENDBRANCH  32   6
ENDBRANCH  26  32
ENDBRANCH  20  23
BRANCH  21  10
ATOM     10  N   UNL     1       1.315   1.382  23.830  0.00  0.00    -0.211 N 
ATOM     36  H   UNL     1       2.005   2.117  23.622  0.00  0.00    +0.174 HD
BRANCH  10   1
ATOM      1  S   UNL     1       1.660  -0.124  23.139  0.00  0.00    +0.072 S 
ATOM      4  O   UNL     1       1.050  -1.176  23.929  0.00  0.00    -0.150 OA
ATOM      5  O   UNL     1       1.443  -0.066  21.706  0.00  0.00    -0.150 OA
BRANCH   1  28
ATOM     28  C   UNL     1       3.407  -0.213  23.404  0.00  0.00    +0.108 A 
ATOM     30  C   UNL     1       3.961  -1.395  23.862  0.00  0.00    +0.029 A 
ATOM     31  C   UNL     1       4.186   0.902  23.148  0.00  0.00    +0.029 A 
ATOM     33  C   UNL     1       5.339  -1.466  24.070  0.00  0.00    +0.002 A 
ATOM     34  C   UNL     1       5.564   0.831  23.356  0.00  0.00    +0.002 A 
ATOM     35  C   UNL     1       6.140  -0.352  23.818  0.00  0.00    +0.000 A 
ENDBRANCH   1  28
ENDBRANCH  10   1
ENDBRANCH  21  10
TORSDOF 6
ENDMDL
MODEL 2
REMARK VINA RESULT:       6.9      1.785      4.656
REMARK  Name = 11867169
REMARK  6 active torsions:
REMARK  status: ('A' for Active; 'I' for Inactive)
REMARK    1  A    between atoms: S_1  and  N_10
REMARK    2  A    between atoms: S_1  and  C_28
REMARK    3  A    between atoms: O_6  and  C_32
REMARK    4  A    between atoms: N_10  and  C_21
REMARK    5  A    between atoms: C_20  and  C_23
REMARK    6  A    between atoms: C_26  and  C_32
REMARK                            x       y       z     vdW  Elec       q    Type
REMARK                         _______ _______ _______ _____ _____    ______ ____
ROOT
ATOM      2  O   UNL     1      -0.425  -0.670  22.040  0.00  0.00    -0.266 OA
ATOM      3  O   UNL     1      -5.046   1.407  23.122  0.00  0.00    -0.270 OA
ATOM      8  N   UNL     1      -4.444   0.040  24.923  0.00  0.00    -0.297 N 
ATOM      9  N   UNL     1      -1.550  -0.945  24.077  0.00  0.00    -0.310 N 
ATOM     11  C   UNL     1      -3.734  -2.263  24.298  0.00  0.00    +0.027 C 
ATOM     12  C   UNL     1      -2.755  -1.175  26.278  0.00  0.00    +0.054 C 
ATOM     13  C   UNL     1      -3.278  -2.503  25.733  0.00  0.00    +0.018 C 
ATOM     14  C   UNL     1      -4.847  -1.199  24.258  0.00  0.00    +0.113 C 
ATOM     15  C   UNL     1      -2.519  -1.858  23.455  0.00  0.00    +0.130 C 
ATOM     16  C   UNL     1      -3.891  -0.133  26.276  0.00  0.00    +0.117 C 
ATOM     17  C   UNL     1      -1.591  -0.665  25.450  0.00  0.00    +0.027 A 
ATOM     18  C   UNL     1      -0.629   0.082  26.022  0.00  0.00    +0.024 A 
ATOM     19  C   UNL     1      -0.523  -0.448  23.247  0.00  0.00    +0.274 A 
ATOM     20  C   UNL     1      -4.585   1.257  24.253  0.00  0.00    +0.247 C 
ATOM     21  C   UNL     1       0.494   0.389  23.931  0.00  0.00    +0.112 A 
ATOM     22  C   UNL     1       0.447   0.628  25.242  0.00  0.00    +0.031 A 
ENDROOT
BRANCH  20  23
ATOM     23  C   UNL     1      -4.130   2.473  24.934  0.00  0.00    +0.038 A 
ATOM     24  C   UNL     1      -2.822   2.920  24.755  0.00  0.00    +0.028 A 
ATOM     25  C   UNL     1      -5.006   3.176  25.756  0.00  0.00    +0.013 A 
ATOM     26  C   UNL     1      -2.389   4.077  25.401  0.00  0.00    +0.060 A 
ATOM     27  C   UNL     1      -4.573   4.334  26.403  0.00  0.00    +0.002 A 
ATOM     29  C   UNL     1      -3.265   4.785  26.226  0.00  0.00    +0.015 A 
BRANCH  26  32
ATOM      7  O   UNL     1      -0.703   5.650  24.764  0.00  0.00    -0.245 OA
ATOM     32  C   UNL     1      -1.025   4.547  25.217  0.00  0.00    +0.337 C 
BRANCH  32   6
ATOM      6  O   UNL     1      -0.101   3.626  25.606  0.00  0.00    -0.477 OA
ATOM     37  H   UNL     1       0.810   3.991  25.584  0.00  0.00    +0.295 HD
ENDBRANCH  32   6
ENDBRANCH  26  32
ENDBRANCH  20  23
BRANCH  21  10
ATOM     10  N   UNL     1       1.556   0.951  23.202  0.00  0.00    -0.211 N 
ATOM     36  H   UNL     1       1.312   1.854  22.773  0.00  0.00    +0.174 HD
BRANCH  10   1
ATOM      1  S   UNL     1       2.439  -0.089  22.200  0.00  0.00    +0.072 S 
ATOM      4  O   UNL     1       1.820  -1.401  22.189  0.00  0.00    -0.150 OA
ATOM      5  O   UNL     1       2.750   0.582  20.951  0.00  0.00    -0.150 OA
BRANCH   1  28
ATOM     28  C   UNL     1       3.946  -0.226  23.115  0.00  0.00    +0.108 A 
ATOM     30  C   UNL     1       4.764   0.883  23.238  0.00  0.00    +0.029 A 
ATOM     31  C   UNL     1       4.278  -1.440  23.692  0.00  0.00    +0.029 A 
ATOM     33  C   UNL     1       5.953   0.776  23.960  0.00  0.00    +0.002 A 
ATOM     34  C   UNL     1       5.467  -1.547  24.414  0.00  0.00    +0.002 A 
ATOM     35  C   UNL     1       6.304  -0.439  24.547  0.00  0.00    +0.000 A 
ENDBRANCH   1  28
ENDBRANCH  10   1
ENDBRANCH  21  10
TORSDOF 6
ENDMDL
MODEL 3
REMARK VINA RESULT:       7.3      2.424      5.494
REMARK  Name = 11867169
REMARK  6 active torsions:
REMARK  status: ('A' for Active; 'I' for Inactive)
REMARK    1  A    between atoms: S_1  and  N_10
REMARK    2  A    between atoms: S_1  and  C_28
REMARK    3  A    between atoms: O_6  and  C_32
REMARK    4  A    between atoms: N_10  and  C_21
REMARK    5  A    between atoms: C_20  and  C_23
REMARK    6  A    between atoms: C_26  and  C_32
REMARK                            x       y       z     vdW  Elec       q    Type
REMARK                         _______ _______ _______ _____ _____    ______ ____
ROOT
ATOM      2  O   UNL     1      -3.934   2.422  25.978  0.00  0.00    -0.266 OA
ATOM      3  O   UNL     1      -0.187  -1.136  26.352  0.00  0.00    -0.270 OA
ATOM      8  N   UNL     1      -1.765  -1.928  24.817  0.00  0.00    -0.297 N 
ATOM      9  N   UNL     1      -3.816   0.487  24.662  0.00  0.00    -0.310 N 
ATOM     11  C   UNL     1      -4.123  -1.870  25.614  0.00  0.00    +0.027 C 
ATOM     12  C   UNL     1      -3.633  -1.572  23.220  0.00  0.00    +0.054 C 
ATOM     13  C   UNL     1      -4.598  -2.222  24.209  0.00  0.00    +0.018 C 
ATOM     14  C   UNL     1      -2.694  -2.395  25.846  0.00  0.00    +0.113 C 
ATOM     15  C   UNL     1      -4.217  -0.351  25.801  0.00  0.00    +0.130 C 
ATOM     16  C   UNL     1      -2.216  -2.140  23.432  0.00  0.00    +0.117 C 
ATOM     17  C   UNL     1      -3.610  -0.065  23.389  0.00  0.00    +0.027 A 
ATOM     18  C   UNL     1      -3.356   0.732  22.335  0.00  0.00    +0.024 A 
ATOM     19  C   UNL     1      -3.749   1.878  24.890  0.00  0.00    +0.274 A 
ATOM     20  C   UNL     1      -0.568  -1.317  25.197  0.00  0.00    +0.247 C 
ATOM     21  C   UNL     1      -3.441   2.700  23.693  0.00  0.00    +0.112 A 
ATOM     22  C   UNL     1      -3.266   2.158  22.488  0.00  0.00    +0.031 A 
ENDROOT
BRANCH  20  23
ATOM     23  C   UNL     1       0.317  -0.822  24.138  0.00  0.00    +0.038 A 
ATOM     24  C   UNL     1       1.698  -0.922  24.286  0.00  0.00    +0.028 A 
ATOM     25  C   UNL     1      -0.228  -0.255  22.989  0.00  0.00    +0.013 A 
ATOM     26  C   UNL     1       2.541  -0.452  23.279  0.00  0.00    +0.060 A 
ATOM     27  C   UNL     1       0.615   0.216  21.980  0.00  0.00    +0.002 A 
ATOM     29  C   UNL     1       1.998   0.117  22.125  0.00  0.00    +0.015 A 
BRANCH  26  32
ATOM      7  O   UNL     1       4.806   0.273  23.022  0.00  0.00    -0.245 OA
ATOM     32  C   UNL     1       3.983  -0.554  23.429  0.00  0.00    +0.337 C 
BRANCH  32   6
ATOM      6  O   UNL     1       4.360  -1.686  24.085  0.00  0.00    -0.477 OA
ATOM     37  H   UNL     1       4.705  -1.490  24.983  0.00  0.00    +0.295 HD
ENDBRANCH  32   6
ENDBRANCH  26  32
ENDBRANCH  20  23
BRANCH  21  10
ATOM     10  N   UNL     1      -3.334   4.098  23.803  0.00  0.00    -0.211 N 
ATOM     36  H   UNL     1      -3.031   4.545  22.927  0.00  0.00    +0.174 HD
BRANCH  10   1
ATOM      1  S   UNL     1      -2.593   4.707  25.198  0.00  0.00    +0.072 S 
ATOM      4  O   UNL     1      -2.137   6.062  24.958  0.00  0.00    -0.150 OA
ATOM      5  O   UNL     1      -3.413   4.405  26.357  0.00  0.00    -0.150 OA
BRANCH   1  28
ATOM     28  C   UNL     1      -1.159   3.675  25.284  0.00  0.00    +0.108 A 
ATOM     30  C   UNL     1      -0.856   3.039  26.474  0.00  0.00    +0.029 A 
ATOM     31  C   UNL     1      -0.367   3.525  24.158  0.00  0.00    +0.029 A 
ATOM     33  C   UNL     1       0.276   2.225  26.542  0.00  0.00    +0.002 A 
ATOM     34  C   UNL     1       0.765   2.712  24.227  0.00  0.00    +0.002 A 
ATOM     35  C   UNL     1       1.086   2.062  25.419  0.00  0.00    +0.000 A 
ENDBRANCH   1  28
ENDBRANCH  10   1
ENDBRANCH  21  10
TORSDOF 6
ENDMDL
MODEL 4
REMARK VINA RESULT:       7.6      2.873      5.939
REMARK  Name = 11867169
REMARK  6 active torsions:
REMARK  status: ('A' for Active; 'I' for Inactive)
REMARK    1  A    between atoms: S_1  and  N_10
REMARK    2  A    between atoms: S_1  and  C_28
REMARK    3  A    between atoms: O_6  and  C_32
REMARK    4  A    between atoms: N_10  and  C_21
REMARK    5  A    between atoms: C_20  and  C_23
REMARK    6  A    between atoms: C_26  and  C_32
REMARK                            x       y       z     vdW  Elec       q    Type
REMARK                         _______ _______ _______ _____ _____    ______ ____
ROOT
ATOM      2  O   UNL     1       0.473   0.523  22.587  0.00  0.00    -0.266 OA
ATOM      3  O   UNL     1      -4.529  -0.762  23.000  0.00  0.00    -0.270 OA
ATOM      8  N   UNL     1      -3.451  -1.473  24.952  0.00  0.00    -0.297 N 
ATOM      9  N   UNL     1      -0.493  -0.420  24.503  0.00  0.00    -0.310 N 
ATOM     11  C   UNL     1      -1.389  -2.817  24.579  0.00  0.00    +0.027 C 
ATOM     12  C   UNL     1      -1.570  -1.379  26.569  0.00  0.00    +0.054 C 
ATOM     13  C   UNL     1      -1.077  -2.736  26.069  0.00  0.00    +0.018 C 
ATOM     14  C   UNL     1      -2.904  -2.684  24.339  0.00  0.00    +0.113 C 
ATOM     15  C   UNL     1      -0.591  -1.731  23.847  0.00  0.00    +0.130 C 
ATOM     16  C   UNL     1      -3.095  -1.278  26.366  0.00  0.00    +0.117 C 
ATOM     17  C   UNL     1      -0.880  -0.243  25.839  0.00  0.00    +0.027 A 
ATOM     18  C   UNL     1      -0.676   0.935  26.457  0.00  0.00    +0.024 A 
ATOM     19  C   UNL     1       0.100   0.620  23.756  0.00  0.00    +0.274 A 
ATOM     20  C   UNL     1      -4.228  -0.605  24.182  0.00  0.00    +0.247 C 
ATOM     21  C   UNL     1       0.275   1.902  24.485  0.00  0.00    +0.112 A 
ATOM     22  C   UNL     1      -0.083   2.043  25.761  0.00  0.00    +0.031 A 
ENDROOT
BRANCH  20  23
ATOM     23  C   UNL     1      -4.722   0.621  24.818  0.00  0.00    +0.038 A 
ATOM     24  C   UNL     1      -3.819   1.548  25.332  0.00  0.00    +0.028 A 
ATOM     25  C   UNL     1      -6.093   0.853  24.904  0.00  0.00    +0.013 A 
ATOM     26  C   UNL     1      -4.288   2.715  25.936  0.00  0.00    +0.060 A 
ATOM     27  C   UNL     1      -6.563   2.020  25.508  0.00  0.00    +0.002 A 
ATOM     29  C   UNL     1      -5.661   2.950  26.024  0.00  0.00    +0.015 A 
BRANCH  26  32
ATOM      7  O   UNL     1      -2.209   3.430  26.877  0.00  0.00    -0.245 OA
ATOM     32  C   UNL     1      -3.349   3.685  26.474  0.00  0.00    +0.337 C 
BRANCH  32   6
ATOM      6  O   UNL     1      -3.858   4.947  26.494  0.00  0.00    -0.477 OA
ATOM     37  H   UNL     1      -3.707   5.388  27.358  0.00  0.00    +0.295 HD
ENDBRANCH  32   6
ENDBRANCH  26  32
ENDBRANCH  20  23
BRANCH  21  10
ATOM     10  N   UNL     1       0.842   3.013  23.837  0.00  0.00    -0.211 N 
ATOM     36  H   UNL     1       1.833   3.153  24.076  0.00  0.00    +0.174 HD
BRANCH  10   1
ATOM      1  S   UNL     1      -0.080   4.433  23.795  0.00  0.00    +0.072 S 
ATOM      4  O   UNL     1      -0.299   4.914  25.145  0.00  0.00    -0.150 OA
ATOM      5  O   UNL     1       0.443   5.324  22.777  0.00  0.00    -0.150 OA
BRANCH   1  28
ATOM     28  C   UNL     1      -1.623   3.804  23.203  0.00  0.00    +0.108 A 
ATOM     30  C   UNL     1      -1.638   2.627  22.476  0.00  0.00    +0.029 A 
ATOM     31  C   UNL     1      -2.787   4.502  23.478  0.00  0.00    +0.029 A 
ATOM     33  C   UNL     1      -2.856   2.131  22.008  0.00  0.00    +0.002 A 
ATOM     34  C   UNL     1      -4.004   4.006  23.010  0.00  0.00    +0.002 A 
ATOM     35  C   UNL     1      -4.038   2.821  22.275  0.00  0.00    +0.000 A 
ENDBRANCH   1  28
ENDBRANCH  10   1
ENDBRANCH  21  10
TORSDOF 6
ENDMDL
