MODEL 1
REMARK VINA RESULT:       4.0      0.000      0.000
REMARK  Name = 40780140
REMARK  7 active torsions:
REMARK  status: ('A' for Active; 'I' for Inactive)
REMARK    1  A    between atoms: N_3  and  C_24
REMARK    2  A    between atoms: N_4  and  C_16
REMARK    3  A    between atoms: N_6  and  C_26
REMARK    4  A    between atoms: C_9  and  C_15
REMARK    5  A    between atoms: C_10  and  C_16
REMARK    6  A    between atoms: C_18  and  C_19
REMARK    7  A    between atoms: C_29  and  C_32
REMARK                            x       y       z     vdW  Elec       q    Type
REMARK                         _______ _______ _______ _____ _____    ______ ____
ROOT
ATOM      2  N   UNL     1      -3.866   4.765  26.466  0.00  0.00    -0.297 NA
ATOM      8  C   UNL     1      -4.943   3.744  24.327  0.00  0.00    +0.002 C 
ATOM      9  C   UNL     1      -4.715   2.643  25.399  0.00  0.00    +0.055 C 
ATOM     10  C   UNL     1      -3.106   5.191  25.262  0.00  0.00    +0.074 C 
ATOM     11  C   UNL     1      -3.599   4.434  24.011  0.00  0.00    +0.024 C 
ATOM     12  C   UNL     1      -3.893   3.284  26.554  0.00  0.00    +0.094 C 
ATOM     13  C   UNL     1      -5.859   4.808  24.968  0.00  0.00    +0.019 C 
ATOM     14  C   UNL     1      -5.261   5.246  26.317  0.00  0.00    +0.085 C 
ENDROOT
BRANCH   9  15
ATOM      3  N   UNL     1      -3.476   1.147  23.765  0.00  0.00    -0.271 N 
ATOM      5  N   UNL     1      -3.041  -0.107  23.555  0.00  0.00    -0.176 NA
ATOM     15  C   UNL     1      -4.135   1.310  24.949  0.00  0.00    +0.044 A 
ATOM     17  C   UNL     1      -4.129   0.078  25.554  0.00  0.00    +0.048 A 
ATOM     19  C   UNL     1      -3.443  -0.756  24.650  0.00  0.00    +0.066 A 
ATOM     24  C   UNL     1      -3.222   2.159  22.766  0.00  0.00    +0.172 C 
BRANCH  19  18
ATOM     18  C   UNL     1      -3.139  -2.229  24.805  0.00  0.00    +0.040 C 
ATOM     20  C   UNL     1      -3.879  -3.096  23.771  0.00  0.00    +0.010 C 
ATOM     21  C   UNL     1      -1.647  -2.594  24.663  0.00  0.00    +0.010 C 
ATOM     22  C   UNL     1      -2.910  -4.220  23.443  0.00  0.00    +0.001 C 
ATOM     23  C   UNL     1      -1.561  -3.524  23.458  0.00  0.00    +0.001 C 
ENDBRANCH  19  18
ENDBRANCH   9  15
BRANCH  10  16
ATOM     16  C   UNL     1      -1.593   5.056  25.450  0.00  0.00    +0.124 C 
BRANCH  16   4
ATOM      1  O   UNL     1       0.217   4.025  23.484  0.00  0.00    -0.253 OA
ATOM      4  N   UNL     1      -1.178   3.696  25.300  0.00  0.00    -0.298 N 
ATOM      6  N   UNL     1      -0.065   1.884  24.404  0.00  0.00    -0.269 N 
ATOM     25  C   UNL     1      -0.283   3.261  24.307  0.00  0.00    +0.304 C 
ATOM     33  H   UNL     1      -1.587   2.999  25.915  0.00  0.00    +0.150 HD
ATOM     34  H   UNL     1      -0.558   1.395  25.147  0.00  0.00    +0.156 HD
BRANCH   6  26
ATOM     26  C   UNL     1       0.766   1.076  23.592  0.00  0.00    +0.036 A 
ATOM     27  C   UNL     1       2.152   1.125  23.745  0.00  0.00    +0.042 A 
ATOM     28  C   UNL     1       0.200   0.232  22.638  0.00  0.00    +0.023 A 
ATOM     29  C   UNL     1       2.971   0.328  22.945  0.00  0.00    +0.054 A 
ATOM     30  C   UNL     1       1.018  -0.565  21.837  0.00  0.00    +0.003 A 
ATOM     31  C   UNL     1       2.403  -0.517  21.991  0.00  0.00    +0.019 A 
BRANCH  29  32
ATOM      7  N   UNL     1       5.543   0.418  23.228  0.00  0.00    -0.191 NA
ATOM     32  C   UNL     1       4.390   0.378  23.101  0.00  0.00    +0.099 C 
ENDBRANCH  29  32
ENDBRANCH   6  26
ENDBRANCH  16   4
ENDBRANCH  10  16
TORSDOF 6
ENDMDL
MODEL 2
REMARK VINA RESULT:       5.4      2.561      4.732
REMARK  Name = 40780140
REMARK  7 active torsions:
REMARK  status: ('A' for Active; 'I' for Inactive)
REMARK    1  A    between atoms: N_3  and  C_24
REMARK    2  A    between atoms: N_4  and  C_16
REMARK    3  A    between atoms: N_6  and  C_26
REMARK    4  A    between atoms: C_9  and  C_15
REMARK    5  A    between atoms: C_10  and  C_16
REMARK    6  A    between atoms: C_18  and  C_19
REMARK    7  A    between atoms: C_29  and  C_32
REMARK                            x       y       z     vdW  Elec       q    Type
REMARK                         _______ _______ _______ _____ _____    ______ ____
ROOT
ATOM      2  N   UNL     1      -4.727   1.978  24.009  0.00  0.00    -0.297 NA
ATOM      8  C   UNL     1      -4.226   3.387  26.141  0.00  0.00    +0.002 C 
ATOM      9  C   UNL     1      -3.041   3.475  25.141  0.00  0.00    +0.055 C 
ATOM     10  C   UNL     1      -4.977   1.163  25.226  0.00  0.00    +0.074 C 
ATOM     11  C   UNL     1      -4.491   1.907  26.489  0.00  0.00    +0.024 C 
ATOM     12  C   UNL     1      -3.323   2.459  23.997  0.00  0.00    +0.094 C 
ATOM     13  C   UNL     1      -5.476   3.908  25.399  0.00  0.00    +0.019 C 
ATOM     14  C   UNL     1      -5.620   3.161  24.062  0.00  0.00    +0.085 C 
ENDROOT
BRANCH   9  15
ATOM      3  N   UNL     1      -0.572   4.060  25.195  0.00  0.00    -0.271 N 
ATOM      5  N   UNL     1       0.591   3.806  25.817  0.00  0.00    -0.176 NA
ATOM     15  C   UNL     1      -1.627   3.350  25.689  0.00  0.00    +0.044 A 
ATOM     17  C   UNL     1      -1.118   2.580  26.705  0.00  0.00    +0.048 A 
ATOM     19  C   UNL     1       0.252   2.901  26.739  0.00  0.00    +0.066 A 
ATOM     24  C   UNL     1      -0.598   5.013  24.110  0.00  0.00    +0.172 C 
BRANCH  19  18
ATOM     18  C   UNL     1       1.306   2.346  27.671  0.00  0.00    +0.040 C 
ATOM     20  C   UNL     1       2.388   3.382  28.022  0.00  0.00    +0.010 C 
ATOM     21  C   UNL     1       0.762   1.837  29.022  0.00  0.00    +0.010 C 
ATOM     22  C   UNL     1       2.756   3.083  29.467  0.00  0.00    +0.001 C 
ATOM     23  C   UNL     1       1.423   2.703  30.087  0.00  0.00    +0.001 C 
ENDBRANCH  19  18
ENDBRANCH   9  15
BRANCH  10  16
ATOM     16  C   UNL     1      -4.374  -0.239  25.123  0.00  0.00    +0.124 C 
BRANCH  16   4
ATOM      1  O   UNL     1      -2.664  -0.357  22.827  0.00  0.00    -0.253 OA
ATOM      4  N   UNL     1      -2.945  -0.181  25.117  0.00  0.00    -0.298 N 
ATOM      6  N   UNL     1      -0.807  -0.164  24.249  0.00  0.00    -0.269 N 
ATOM     25  C   UNL     1      -2.168  -0.245  23.946  0.00  0.00    +0.304 C 
ATOM     33  H   UNL     1      -2.463  -0.136  26.010  0.00  0.00    +0.150 HD
ATOM     34  H   UNL     1      -0.562  -0.073  25.231  0.00  0.00    +0.156 HD
BRANCH   6  26
ATOM     26  C   UNL     1       0.286  -0.192  23.350  0.00  0.00    +0.036 A 
ATOM     27  C   UNL     1       1.558   0.180  23.787  0.00  0.00    +0.042 A 
ATOM     28  C   UNL     1       0.092  -0.591  22.029  0.00  0.00    +0.023 A 
ATOM     29  C   UNL     1       2.636   0.152  22.902  0.00  0.00    +0.054 A 
ATOM     30  C   UNL     1       1.170  -0.620  21.143  0.00  0.00    +0.003 A 
ATOM     31  C   UNL     1       2.441  -0.248  21.580  0.00  0.00    +0.019 A 
BRANCH  29  32
ATOM      7  N   UNL     1       4.996   0.842  23.712  0.00  0.00    -0.191 NA
ATOM     32  C   UNL     1       3.938   0.533  23.348  0.00  0.00    +0.099 C 
ENDBRANCH  29  32
ENDBRANCH   6  26
ENDBRANCH  16   4
ENDBRANCH  10  16
TORSDOF 6
ENDMDL
MODEL 3
REMARK VINA RESULT:       5.5      2.705      5.126
REMARK  Name = 40780140
REMARK  7 active torsions:
REMARK  status: ('A' for Active; 'I' for Inactive)
REMARK    1  A    between atoms: N_3  and  C_24
REMARK    2  A    between atoms: N_4  and  C_16
REMARK    3  A    between atoms: N_6  and  C_26
REMARK    4  A    between atoms: C_9  and  C_15
REMARK    5  A    between atoms: C_10  and  C_16
REMARK    6  A    between atoms: C_18  and  C_19
REMARK    7  A    between atoms: C_29  and  C_32
REMARK                            x       y       z     vdW  Elec       q    Type
REMARK                         _______ _______ _______ _____ _____    ______ ____
ROOT
ATOM      2  N   UNL     1      -3.848   0.710  23.421  0.00  0.00    -0.297 NA
ATOM      8  C   UNL     1      -3.989   1.841  25.763  0.00  0.00    +0.002 C 
ATOM      9  C   UNL     1      -2.827   2.453  24.933  0.00  0.00    +0.055 C 
ATOM     10  C   UNL     1      -3.908  -0.328  24.484  0.00  0.00    +0.074 C 
ATOM     11  C   UNL     1      -3.783   0.315  25.881  0.00  0.00    +0.024 C 
ATOM     12  C   UNL     1      -2.679   1.597  23.642  0.00  0.00    +0.094 C 
ATOM     13  C   UNL     1      -5.283   2.061  24.950  0.00  0.00    +0.019 C 
ATOM     14  C   UNL     1      -5.078   1.532  23.519  0.00  0.00    +0.085 C 
ENDROOT
BRANCH   9  15
ATOM      3  N   UNL     1      -0.730   3.798  25.419  0.00  0.00    -0.271 N 
ATOM      5  N   UNL     1       0.411   3.812  26.128  0.00  0.00    -0.176 NA
ATOM     15  C   UNL     1      -1.493   2.686  25.627  0.00  0.00    +0.044 A 
ATOM     17  C   UNL     1      -0.803   1.921  26.535  0.00  0.00    +0.048 A 
ATOM     19  C   UNL     1       0.362   2.664  26.808  0.00  0.00    +0.066 A 
ATOM     24  C   UNL     1      -1.030   4.905  24.542  0.00  0.00    +0.172 C 
BRANCH  19  18
ATOM     18  C   UNL     1       1.490   2.297  27.746  0.00  0.00    +0.040 C 
ATOM     20  C   UNL     1       2.427   3.483  28.036  0.00  0.00    +0.010 C 
ATOM     21  C   UNL     1       1.033   1.780  29.126  0.00  0.00    +0.010 C 
ATOM     22  C   UNL     1       2.845   3.300  29.486  0.00  0.00    +0.001 C 
ATOM     23  C   UNL     1       1.582   2.773  30.143  0.00  0.00    +0.001 C 
ENDBRANCH  19  18
ENDBRANCH   9  15
BRANCH  10  16
ATOM     16  C   UNL     1      -2.876  -1.438  24.273  0.00  0.00    +0.124 C 
BRANCH  16   4
ATOM      1  O   UNL     1      -0.188  -0.946  25.133  0.00  0.00    -0.253 OA
ATOM      4  N   UNL     1      -1.790  -0.978  23.464  0.00  0.00    -0.298 N 
ATOM      6  N   UNL     1       0.357  -0.313  22.939  0.00  0.00    -0.269 N 
ATOM     25  C   UNL     1      -0.491  -0.758  23.957  0.00  0.00    +0.304 C 
ATOM     33  H   UNL     1      -1.977  -0.757  22.491  0.00  0.00    +0.150 HD
ATOM     34  H   UNL     1      -0.054  -0.210  22.015  0.00  0.00    +0.156 HD
BRANCH   6  26
ATOM     26  C   UNL     1       1.730   0.015  23.034  0.00  0.00    +0.036 A 
ATOM     27  C   UNL     1       2.661  -0.969  23.368  0.00  0.00    +0.042 A 
ATOM     28  C   UNL     1       2.152   1.322  22.794  0.00  0.00    +0.023 A 
ATOM     29  C   UNL     1       4.015  -0.645  23.461  0.00  0.00    +0.054 A 
ATOM     30  C   UNL     1       3.506   1.646  22.887  0.00  0.00    +0.003 A 
ATOM     31  C   UNL     1       4.437   0.663  23.221  0.00  0.00    +0.019 A 
BRANCH  29  32
ATOM      7  N   UNL     1       5.745  -2.468  24.082  0.00  0.00    -0.191 NA
ATOM     32  C   UNL     1       4.969  -1.652  23.804  0.00  0.00    +0.099 C 
ENDBRANCH  29  32
ENDBRANCH   6  26
ENDBRANCH  16   4
ENDBRANCH  10  16
TORSDOF 6
ENDMDL
MODEL 4
REMARK VINA RESULT:       5.7      1.993      5.519
REMARK  Name = 40780140
REMARK  7 active torsions:
REMARK  status: ('A' for Active; 'I' for Inactive)
REMARK    1  A    between atoms: N_3  and  C_24
REMARK    2  A    between atoms: N_4  and  C_16
REMARK    3  A    between atoms: N_6  and  C_26
REMARK    4  A    between atoms: C_9  and  C_15
REMARK    5  A    between atoms: C_10  and  C_16
REMARK    6  A    between atoms: C_18  and  C_19
REMARK    7  A    between atoms: C_29  and  C_32
REMARK                            x       y       z     vdW  Elec       q    Type
REMARK                         _______ _______ _______ _____ _____    ______ ____
ROOT
ATOM      2  N   UNL     1      -2.959  -2.424  23.685  0.00  0.00    -0.297 NA
ATOM      8  C   UNL     1      -4.968  -1.084  24.659  0.00  0.00    +0.002 C 
ATOM      9  C   UNL     1      -4.036  -0.148  23.840  0.00  0.00    +0.055 C 
ATOM     10  C   UNL     1      -3.102  -2.707  25.137  0.00  0.00    +0.074 C 
ATOM     11  C   UNL     1      -4.150  -1.769  25.774  0.00  0.00    +0.024 C 
ATOM     12  C   UNL     1      -2.769  -0.969  23.465  0.00  0.00    +0.094 C 
ATOM     13  C   UNL     1      -5.443  -2.194  23.698  0.00  0.00    +0.019 C 
ATOM     14  C   UNL     1      -4.219  -2.833  23.017  0.00  0.00    +0.085 C 
ENDROOT
BRANCH   9  15
ATOM      3  N   UNL     1      -4.634   2.098  24.859  0.00  0.00    -0.271 N 
ATOM      5  N   UNL     1      -4.122   3.243  25.341  0.00  0.00    -0.176 NA
ATOM     15  C   UNL     1      -3.690   1.213  24.424  0.00  0.00    +0.044 A 
ATOM     17  C   UNL     1      -2.479   1.822  24.638  0.00  0.00    +0.048 A 
ATOM     19  C   UNL     1      -2.806   3.069  25.204  0.00  0.00    +0.066 A 
ATOM     24  C   UNL     1      -6.067   1.917  24.843  0.00  0.00    +0.172 C 
BRANCH  19  18
ATOM     18  C   UNL     1      -1.854   4.160  25.642  0.00  0.00    +0.040 C 
ATOM     20  C   UNL     1      -0.503   4.094  24.908  0.00  0.00    +0.010 C 
ATOM     21  C   UNL     1      -2.378   5.594  25.424  0.00  0.00    +0.010 C 
ATOM     22  C   UNL     1      -0.088   5.546  24.730  0.00  0.00    +0.001 C 
ATOM     23  C   UNL     1      -1.406   6.246  24.448  0.00  0.00    +0.001 C 
ENDBRANCH  19  18
ENDBRANCH   9  15
BRANCH  10  16
ATOM     16  C   UNL     1      -1.762  -2.650  25.875  0.00  0.00    +0.124 C 
BRANCH  16   4
ATOM      1  O   UNL     1      -0.139  -0.307  25.591  0.00  0.00    -0.253 OA
ATOM      4  N   UNL     1      -0.681  -2.466  24.958  0.00  0.00    -0.298 N 
ATOM      6  N   UNL     1       1.062  -1.393  23.891  0.00  0.00    -0.269 N 
ATOM     25  C   UNL     1       0.075  -1.282  24.875  0.00  0.00    +0.304 C 
ATOM     33  H   UNL     1      -0.476  -3.212  24.302  0.00  0.00    +0.150 HD
ATOM     34  H   UNL     1       1.106  -2.273  23.385  0.00  0.00    +0.156 HD
BRANCH   6  26
ATOM     26  C   UNL     1       2.018  -0.423  23.507  0.00  0.00    +0.036 A 
ATOM     27  C   UNL     1       3.375  -0.746  23.498  0.00  0.00    +0.042 A 
ATOM     28  C   UNL     1       1.604   0.856  23.139  0.00  0.00    +0.023 A 
ATOM     29  C   UNL     1       4.318   0.209  23.119  0.00  0.00    +0.054 A 
ATOM     30  C   UNL     1       2.547   1.813  22.760  0.00  0.00    +0.003 A 
ATOM     31  C   UNL     1       3.903   1.489  22.750  0.00  0.00    +0.019 A 
BRANCH  29  32
ATOM      7  N   UNL     1       6.837  -0.389  23.100  0.00  0.00    -0.191 NA
ATOM     32  C   UNL     1       5.708  -0.121  23.109  0.00  0.00    +0.099 C 
ENDBRANCH  29  32
ENDBRANCH   6  26
ENDBRANCH  16   4
ENDBRANCH  10  16
TORSDOF 6
ENDMDL
MODEL 5
REMARK VINA RESULT:       5.7      3.177      5.676
REMARK  Name = 40780140
REMARK  7 active torsions:
REMARK  status: ('A' for Active; 'I' for Inactive)
REMARK    1  A    between atoms: N_3  and  C_24
REMARK    2  A    between atoms: N_4  and  C_16
REMARK    3  A    between atoms: N_6  and  C_26
REMARK    4  A    between atoms: C_9  and  C_15
REMARK    5  A    between atoms: C_10  and  C_16
REMARK    6  A    between atoms: C_18  and  C_19
REMARK    7  A    between atoms: C_29  and  C_32
REMARK                            x       y       z     vdW  Elec       q    Type
REMARK                         _______ _______ _______ _____ _____    ______ ____
ROOT
ATOM      2  N   UNL     1      -3.801   1.638  25.407  0.00  0.00    -0.297 NA
ATOM      8  C   UNL     1      -3.360   0.139  23.324  0.00  0.00    +0.002 C 
ATOM      9  C   UNL     1      -2.379  -0.224  24.472  0.00  0.00    +0.055 C 
ATOM     10  C   UNL     1      -3.682   2.482  24.190  0.00  0.00    +0.074 C 
ATOM     11  C   UNL     1      -3.217   1.638  22.985  0.00  0.00    +0.024 C 
ATOM     12  C   UNL     1      -2.567   0.837  25.595  0.00  0.00    +0.094 C 
ATOM     13  C   UNL     1      -4.788  -0.065  23.876  0.00  0.00    +0.019 C 
ATOM     14  C   UNL     1      -4.933   0.702  25.202  0.00  0.00    +0.085 C 
ENDROOT
BRANCH   9  15
ATOM      3  N   UNL     1      -0.161  -1.443  24.667  0.00  0.00    -0.271 N 
ATOM      5  N   UNL     1       1.108  -1.465  24.227  0.00  0.00    -0.176 NA
ATOM     15  C   UNL     1      -0.914  -0.443  24.123  0.00  0.00    +0.044 A 
ATOM     17  C   UNL     1      -0.079   0.234  23.270  0.00  0.00    +0.048 A 
ATOM     19  C   UNL     1       1.153  -0.439  23.374  0.00  0.00    +0.066 A 
ATOM     24  C   UNL     1      -0.592  -2.430  25.629  0.00  0.00    +0.172 C 
BRANCH  19  18
ATOM     18  C   UNL     1       2.441  -0.120  22.648  0.00  0.00    +0.040 C 
ATOM     20  C   UNL     1       2.920   1.320  22.902  0.00  0.00    +0.010 C 
ATOM     21  C   UNL     1       3.630  -1.028  23.025  0.00  0.00    +0.010 C 
ATOM     22  C   UNL     1       4.437   1.223  22.934  0.00  0.00    +0.001 C 
ATOM     23  C   UNL     1       4.681  -0.104  23.630  0.00  0.00    +0.001 C 
ENDBRANCH  19  18
ENDBRANCH   9  15
BRANCH  10  16
ATOM     16  C   UNL     1      -2.783   3.701  24.413  0.00  0.00    +0.124 C 
BRANCH  16   4
ATOM      1  O   UNL     1      -1.805   3.774  27.104  0.00  0.00    -0.253 OA
ATOM      4  N   UNL     1      -1.485   3.303  24.862  0.00  0.00    -0.298 N 
ATOM      6  N   UNL     1       0.242   2.914  26.343  0.00  0.00    -0.269 N 
ATOM     25  C   UNL     1      -1.073   3.367  26.205  0.00  0.00    +0.304 C 
ATOM     33  H   UNL     1      -0.809   3.000  24.167  0.00  0.00    +0.150 HD
ATOM     34  H   UNL     1       0.711   2.609  25.493  0.00  0.00    +0.156 HD
BRANCH   6  26
ATOM     26  C   UNL     1       1.010   2.823  27.528  0.00  0.00    +0.036 A 
ATOM     27  C   UNL     1       0.375   2.668  28.761  0.00  0.00    +0.042 A 
ATOM     28  C   UNL     1       2.401   2.890  27.463  0.00  0.00    +0.023 A 
ATOM     29  C   UNL     1       1.133   2.578  29.928  0.00  0.00    +0.054 A 
ATOM     30  C   UNL     1       3.159   2.800  28.631  0.00  0.00    +0.003 A 
ATOM     31  C   UNL     1       2.525   2.645  29.863  0.00  0.00    +0.019 A 
BRANCH  29  32
ATOM      7  N   UNL     1      -0.043   2.290  32.218  0.00  0.00    -0.191 NA
ATOM     32  C   UNL     1       0.484   2.420  31.191  0.00  0.00    +0.099 C 
ENDBRANCH  29  32
ENDBRANCH   6  26
ENDBRANCH  16   4
ENDBRANCH  10  16
TORSDOF 6
ENDMDL
MODEL 6
REMARK VINA RESULT:       6.0      2.511      6.121
REMARK  Name = 40780140
REMARK  7 active torsions:
REMARK  status: ('A' for Active; 'I' for Inactive)
REMARK    1  A    between atoms: N_3  and  C_24
REMARK    2  A    between atoms: N_4  and  C_16
REMARK    3  A    between atoms: N_6  and  C_26
REMARK    4  A    between atoms: C_9  and  C_15
REMARK    5  A    between atoms: C_10  and  C_16
REMARK    6  A    between atoms: C_18  and  C_19
REMARK    7  A    between atoms: C_29  and  C_32
REMARK                            x       y       z     vdW  Elec       q    Type
REMARK                         _______ _______ _______ _____ _____    ______ ____
ROOT
ATOM      2  N   UNL     1      -1.570  -2.698  23.767  0.00  0.00    -0.297 NA
ATOM      8  C   UNL     1      -3.828  -1.984  24.851  0.00  0.00    +0.002 C 
ATOM      9  C   UNL     1      -3.454  -1.022  23.689  0.00  0.00    +0.055 C 
ATOM     10  C   UNL     1      -1.423  -2.621  25.244  0.00  0.00    +0.074 C 
ATOM     11  C   UNL     1      -2.684  -2.002  25.886  0.00  0.00    +0.024 C 
ATOM     12  C   UNL     1      -2.013  -1.387  23.231  0.00  0.00    +0.094 C 
ATOM     13  C   UNL     1      -3.914  -3.402  24.246  0.00  0.00    +0.019 C 
ATOM     14  C   UNL     1      -2.621  -3.700  23.467  0.00  0.00    +0.085 C 
ENDROOT
BRANCH   9  15
ATOM      3  N   UNL     1      -3.220   1.412  23.007  0.00  0.00    -0.271 N 
ATOM      5  N   UNL     1      -3.466   2.676  23.390  0.00  0.00    -0.176 NA
ATOM     15  C   UNL     1      -3.629   0.473  23.910  0.00  0.00    +0.044 A 
ATOM     17  C   UNL     1      -4.181   1.173  24.954  0.00  0.00    +0.048 A 
ATOM     19  C   UNL     1      -4.053   2.524  24.579  0.00  0.00    +0.066 A 
ATOM     24  C   UNL     1      -2.574   1.172  21.738  0.00  0.00    +0.172 C 
BRANCH  19  18
ATOM     18  C   UNL     1      -4.496   3.742  25.359  0.00  0.00    +0.040 C 
ATOM     20  C   UNL     1      -4.986   4.881  24.448  0.00  0.00    +0.010 C 
ATOM     21  C   UNL     1      -5.647   3.481  26.354  0.00  0.00    +0.010 C 
ATOM     22  C   UNL     1      -6.122   5.533  25.219  0.00  0.00    +0.001 C 
ATOM     23  C   UNL     1      -6.806   4.352  25.885  0.00  0.00    +0.001 C 
ENDBRANCH  19  18
ENDBRANCH   9  15
BRANCH  10  16
ATOM     16  C   UNL     1      -0.149  -1.884  25.665  0.00  0.00    +0.124 C 
BRANCH  16   4
ATOM      1  O   UNL     1      -0.177   0.514  24.099  0.00  0.00    -0.253 OA
ATOM      4  N   UNL     1      -0.451  -0.565  26.127  0.00  0.00    -0.298 N 
ATOM      6  N   UNL     1      -0.778   1.717  26.023  0.00  0.00    -0.269 N 
ATOM     25  C   UNL     1      -0.445   0.570  25.297  0.00  0.00    +0.304 C 
ATOM     33  H   UNL     1      -0.636  -0.434  27.117  0.00  0.00    +0.150 HD
ATOM     34  H   UNL     1      -0.973   1.590  27.013  0.00  0.00    +0.156 HD
BRANCH   6  26
ATOM     26  C   UNL     1      -0.879   3.047  25.549  0.00  0.00    +0.036 A 
ATOM     27  C   UNL     1      -0.155   3.443  24.424  0.00  0.00    +0.042 A 
ATOM     28  C   UNL     1      -1.702   3.960  26.205  0.00  0.00    +0.023 A 
ATOM     29  C   UNL     1      -0.255   4.753  23.956  0.00  0.00    +0.054 A 
ATOM     30  C   UNL     1      -1.802   5.271  25.737  0.00  0.00    +0.003 A 
ATOM     31  C   UNL     1      -1.079   5.667  24.613  0.00  0.00    +0.019 A 
BRANCH  29  32
ATOM      7  N   UNL     1       1.090   5.492  21.871  0.00  0.00    -0.191 NA
ATOM     32  C   UNL     1       0.487   5.160  22.805  0.00  0.00    +0.099 C 
ENDBRANCH  29  32
ENDBRANCH   6  26
ENDBRANCH  16   4
ENDBRANCH  10  16
TORSDOF 6
ENDMDL
MODEL 7
REMARK VINA RESULT:       6.4      2.030      4.580
REMARK  Name = 40780140
REMARK  7 active torsions:
REMARK  status: ('A' for Active; 'I' for Inactive)
REMARK    1  A    between atoms: N_3  and  C_24
REMARK    2  A    between atoms: N_4  and  C_16
REMARK    3  A    between atoms: N_6  and  C_26
REMARK    4  A    between atoms: C_9  and  C_15
REMARK    5  A    between atoms: C_10  and  C_16
REMARK    6  A    between atoms: C_18  and  C_19
REMARK    7  A    between atoms: C_29  and  C_32
REMARK                            x       y       z     vdW  Elec       q    Type
REMARK                         _______ _______ _______ _____ _____    ______ ____
ROOT
ATOM      2  N   UNL     1      -4.739   4.902  25.195  0.00  0.00    -0.297 NA
ATOM      8  C   UNL     1      -2.819   3.715  26.492  0.00  0.00    +0.002 C 
ATOM      9  C   UNL     1      -2.404   3.964  25.016  0.00  0.00    +0.055 C 
ATOM     10  C   UNL     1      -5.272   3.720  25.921  0.00  0.00    +0.074 C 
ATOM     11  C   UNL     1      -4.121   2.887  26.524  0.00  0.00    +0.024 C 
ATOM     12  C   UNL     1      -3.662   4.485  24.263  0.00  0.00    +0.094 C 
ATOM     13  C   UNL     1      -3.145   5.095  27.103  0.00  0.00    +0.019 C 
ATOM     14  C   UNL     1      -4.153   5.825  26.197  0.00  0.00    +0.085 C 
ENDROOT
BRANCH   9  15
ATOM      3  N   UNL     1      -2.142   2.365  23.062  0.00  0.00    -0.271 N 
ATOM      5  N   UNL     1      -1.388   1.370  22.566  0.00  0.00    -0.176 NA
ATOM     15  C   UNL     1      -1.707   2.838  24.266  0.00  0.00    +0.044 A 
ATOM     17  C   UNL     1      -0.592   2.102  24.577  0.00  0.00    +0.048 A 
ATOM     19  C   UNL     1      -0.443   1.213  23.495  0.00  0.00    +0.066 A 
ATOM     24  C   UNL     1      -3.291   2.820  22.314  0.00  0.00    +0.172 C 
BRANCH  19  18
ATOM     18  C   UNL     1       0.630   0.163  23.307  0.00  0.00    +0.040 C 
ATOM     20  C   UNL     1       0.723  -0.331  21.853  0.00  0.00    +0.010 C 
ATOM     21  C   UNL     1       2.053   0.627  23.682  0.00  0.00    +0.010 C 
ATOM     22  C   UNL     1       2.205  -0.587  21.625  0.00  0.00    +0.001 C 
ATOM     23  C   UNL     1       2.869   0.539  22.398  0.00  0.00    +0.001 C 
ENDBRANCH  19  18
ENDBRANCH   9  15
BRANCH  10  16
ATOM     16  C   UNL     1      -6.195   2.867  25.047  0.00  0.00    +0.124 C 
BRANCH  16   4
ATOM      1  O   UNL     1      -5.093   0.418  26.046  0.00  0.00    -0.253 OA
ATOM      4  N   UNL     1      -5.447   1.900  24.304  0.00  0.00    -0.298 N 
ATOM      6  N   UNL     1      -4.250  -0.031  23.902  0.00  0.00    -0.269 N 
ATOM     25  C   UNL     1      -4.935   0.716  24.864  0.00  0.00    +0.304 C 
ATOM     33  H   UNL     1      -5.235   2.102  23.332  0.00  0.00    +0.150 HD
ATOM     34  H   UNL     1      -4.211   0.359  22.964  0.00  0.00    +0.156 HD
BRANCH   6  26
ATOM     26  C   UNL     1      -3.597  -1.275  24.071  0.00  0.00    +0.036 A 
ATOM     27  C   UNL     1      -2.290  -1.317  24.559  0.00  0.00    +0.042 A 
ATOM     28  C   UNL     1      -4.259  -2.459  23.749  0.00  0.00    +0.023 A 
ATOM     29  C   UNL     1      -1.647  -2.543  24.726  0.00  0.00    +0.054 A 
ATOM     30  C   UNL     1      -3.615  -3.686  23.916  0.00  0.00    +0.003 A 
ATOM     31  C   UNL     1      -2.310  -3.728  24.405  0.00  0.00    +0.019 A 
BRANCH  29  32
ATOM      7  N   UNL     1       0.779  -2.622  25.629  0.00  0.00    -0.191 NA
ATOM     32  C   UNL     1      -0.309  -2.587  25.225  0.00  0.00    +0.099 C 
ENDBRANCH  29  32
ENDBRANCH   6  26
ENDBRANCH  16   4
ENDBRANCH  10  16
TORSDOF 6
ENDMDL
MODEL 8
REMARK VINA RESULT:       6.4      2.721      5.475
REMARK  Name = 40780140
REMARK  7 active torsions:
REMARK  status: ('A' for Active; 'I' for Inactive)
REMARK    1  A    between atoms: N_3  and  C_24
REMARK    2  A    between atoms: N_4  and  C_16
REMARK    3  A    between atoms: N_6  and  C_26
REMARK    4  A    between atoms: C_9  and  C_15
REMARK    5  A    between atoms: C_10  and  C_16
REMARK    6  A    between atoms: C_18  and  C_19
REMARK    7  A    between atoms: C_29  and  C_32
REMARK                            x       y       z     vdW  Elec       q    Type
REMARK                         _______ _______ _______ _____ _____    ______ ____
ROOT
ATOM      2  N   UNL     1      -4.367   4.010  23.830  0.00  0.00    -0.297 NA
ATOM      8  C   UNL     1      -2.428   5.343  24.947  0.00  0.00    +0.002 C 
ATOM      9  C   UNL     1      -1.901   4.003  24.362  0.00  0.00    +0.055 C 
ATOM     10  C   UNL     1      -4.767   4.441  25.195  0.00  0.00    +0.074 C 
ATOM     11  C   UNL     1      -3.565   5.049  25.949  0.00  0.00    +0.024 C 
ATOM     12  C   UNL     1      -3.138   3.182  23.898  0.00  0.00    +0.094 C 
ATOM     13  C   UNL     1      -3.051   6.128  23.772  0.00  0.00    +0.019 C 
ATOM     14  C   UNL     1      -4.062   5.227  23.040  0.00  0.00    +0.085 C 
ENDROOT
BRANCH   9  15
ATOM      3  N   UNL     1      -0.428   1.982  24.797  0.00  0.00    -0.271 N 
ATOM      5  N   UNL     1       0.398   1.412  25.690  0.00  0.00    -0.176 NA
ATOM     15  C   UNL     1      -0.943   3.177  25.208  0.00  0.00    +0.044 A 
ATOM     17  C   UNL     1      -0.416   3.404  26.455  0.00  0.00    +0.048 A 
ATOM     19  C   UNL     1       0.402   2.284  26.700  0.00  0.00    +0.066 A 
ATOM     24  C   UNL     1      -0.686   1.310  23.544  0.00  0.00    +0.172 C 
BRANCH  19  18
ATOM     18  C   UNL     1       1.233   2.004  27.932  0.00  0.00    +0.040 C 
ATOM     20  C   UNL     1       2.363   3.030  28.129  0.00  0.00    +0.010 C 
ATOM     21  C   UNL     1       0.438   2.001  29.255  0.00  0.00    +0.010 C 
ATOM     22  C   UNL     1       2.473   3.201  29.636  0.00  0.00    +0.001 C 
ATOM     23  C   UNL     1       1.027   3.128  30.095  0.00  0.00    +0.001 C 
ENDBRANCH  19  18
ENDBRANCH   9  15
BRANCH  10  16
ATOM     16  C   UNL     1      -5.428   3.314  25.992  0.00  0.00    +0.124 C 
BRANCH  16   4
ATOM      1  O   UNL     1      -3.481   1.216  26.116  0.00  0.00    -0.253 OA
ATOM      4  N   UNL     1      -5.435   2.095  25.243  0.00  0.00    -0.298 N 
ATOM      6  N   UNL     1      -4.711   0.032  24.507  0.00  0.00    -0.269 N 
ATOM     25  C   UNL     1      -4.441   1.107  25.357  0.00  0.00    +0.304 C 
ATOM     33  H   UNL     1      -6.173   1.956  24.560  0.00  0.00    +0.150 HD
ATOM     34  H   UNL     1      -5.553   0.098  23.940  0.00  0.00    +0.156 HD
BRANCH   6  26
ATOM     26  C   UNL     1      -3.953  -1.150  24.333  0.00  0.00    +0.036 A 
ATOM     27  C   UNL     1      -2.642  -1.215  24.808  0.00  0.00    +0.042 A 
ATOM     28  C   UNL     1      -4.515  -2.250  23.687  0.00  0.00    +0.023 A 
ATOM     29  C   UNL     1      -1.895  -2.380  24.637  0.00  0.00    +0.054 A 
ATOM     30  C   UNL     1      -3.768  -3.416  23.515  0.00  0.00    +0.003 A 
ATOM     31  C   UNL     1      -2.458  -3.481  23.990  0.00  0.00    +0.019 A 
BRANCH  29  32
ATOM      7  N   UNL     1       0.537  -2.503  25.516  0.00  0.00    -0.191 NA
ATOM     32  C   UNL     1      -0.553  -2.447  25.122  0.00  0.00    +0.099 C 
ENDBRANCH  29  32
ENDBRANCH   6  26
ENDBRANCH  16   4
ENDBRANCH  10  16
TORSDOF 6
ENDMDL
MODEL 9
REMARK VINA RESULT:       7.0      1.794      5.067
REMARK  Name = 40780140
REMARK  7 active torsions:
REMARK  status: ('A' for Active; 'I' for Inactive)
REMARK    1  A    between atoms: N_3  and  C_24
REMARK    2  A    between atoms: N_4  and  C_16
REMARK    3  A    between atoms: N_6  and  C_26
REMARK    4  A    between atoms: C_9  and  C_15
REMARK    5  A    between atoms: C_10  and  C_16
REMARK    6  A    between atoms: C_18  and  C_19
REMARK    7  A    between atoms: C_29  and  C_32
REMARK                            x       y       z     vdW  Elec       q    Type
REMARK                         _______ _______ _______ _____ _____    ______ ____
ROOT
ATOM      2  N   UNL     1      -2.772   5.407  24.113  0.00  0.00    -0.297 NA
ATOM      8  C   UNL     1      -1.863   3.960  26.079  0.00  0.00    +0.002 C 
ATOM      9  C   UNL     1      -0.794   4.089  24.959  0.00  0.00    +0.055 C 
ATOM     10  C   UNL     1      -3.759   4.354  24.467  0.00  0.00    +0.074 C 
ATOM     11  C   UNL     1      -3.156   3.362  25.484  0.00  0.00    +0.024 C 
ATOM     12  C   UNL     1      -1.475   4.787  23.746  0.00  0.00    +0.094 C 
ATOM     13  C   UNL     1      -2.200   5.394  26.541  0.00  0.00    +0.019 C 
ATOM     14  C   UNL     1      -2.558   6.252  25.314  0.00  0.00    +0.085 C 
ENDROOT
BRANCH   9  15
ATOM      3  N   UNL     1      -0.172   1.638  25.181  0.00  0.00    -0.271 N 
ATOM      5  N   UNL     1       0.593   0.660  24.668  0.00  0.00    -0.176 NA
ATOM     15  C   UNL     1      -0.028   2.839  24.550  0.00  0.00    +0.044 A 
ATOM     17  C   UNL     1       0.894   2.631  23.555  0.00  0.00    +0.048 A 
ATOM     19  C   UNL     1       1.242   1.272  23.674  0.00  0.00    +0.066 A 
ATOM     24  C   UNL     1      -1.034   1.344  26.302  0.00  0.00    +0.172 C 
BRANCH  19  18
ATOM     18  C   UNL     1       2.225   0.495  22.828  0.00  0.00    +0.040 C 
ATOM     20  C   UNL     1       3.591   1.196  22.716  0.00  0.00    +0.010 C 
ATOM     21  C   UNL     1       2.528  -0.928  23.341  0.00  0.00    +0.010 C 
ATOM     22  C   UNL     1       4.606   0.065  22.689  0.00  0.00    +0.001 C 
ATOM     23  C   UNL     1       4.019  -0.945  23.659  0.00  0.00    +0.001 C 
ENDBRANCH  19  18
ENDBRANCH   9  15
BRANCH  10  16
ATOM     16  C   UNL     1      -4.315   3.639  23.233  0.00  0.00    +0.124 C 
BRANCH  16   4
ATOM      1  O   UNL     1      -2.518   1.411  23.356  0.00  0.00    -0.253 OA
ATOM      4  N   UNL     1      -4.654   2.283  23.538  0.00  0.00    -0.298 N 
ATOM      6  N   UNL     1      -4.333   0.028  23.904  0.00  0.00    -0.269 N 
ATOM     25  C   UNL     1      -3.714   1.238  23.580  0.00  0.00    +0.304 C 
ATOM     33  H   UNL     1      -5.631   2.056  23.689  0.00  0.00    +0.150 HD
ATOM     34  H   UNL     1      -5.337   0.056  24.061  0.00  0.00    +0.156 HD
BRANCH   6  26
ATOM     26  C   UNL     1      -3.732  -1.246  24.043  0.00  0.00    +0.036 A 
ATOM     27  C   UNL     1      -2.432  -1.354  24.539  0.00  0.00    +0.042 A 
ATOM     28  C   UNL     1      -4.438  -2.393  23.684  0.00  0.00    +0.023 A 
ATOM     29  C   UNL     1      -1.841  -2.609  24.677  0.00  0.00    +0.054 A 
ATOM     30  C   UNL     1      -3.846  -3.649  23.821  0.00  0.00    +0.003 A 
ATOM     31  C   UNL     1      -2.548  -3.757  24.317  0.00  0.00    +0.019 A 
BRANCH  29  32
ATOM      7  N   UNL     1       0.571  -2.810  25.598  0.00  0.00    -0.191 NA
ATOM     32  C   UNL     1      -0.510  -2.721  25.185  0.00  0.00    +0.099 C 
ENDBRANCH  29  32
ENDBRANCH   6  26
ENDBRANCH  16   4
ENDBRANCH  10  16
TORSDOF 6
ENDMDL
MODEL 10
REMARK VINA RESULT:       7.8      2.786      4.386
REMARK  Name = 40780140
REMARK  7 active torsions:
REMARK  status: ('A' for Active; 'I' for Inactive)
REMARK    1  A    between atoms: N_3  and  C_24
REMARK    2  A    between atoms: N_4  and  C_16
REMARK    3  A    between atoms: N_6  and  C_26
REMARK    4  A    between atoms: C_9  and  C_15
REMARK    5  A    between atoms: C_10  and  C_16
REMARK    6  A    between atoms: C_18  and  C_19
REMARK    7  A    between atoms: C_29  and  C_32
REMARK                            x       y       z     vdW  Elec       q    Type
REMARK                         _______ _______ _______ _____ _____    ______ ____
ROOT
ATOM      2  N   UNL     1      -4.672   2.921  25.751  0.00  0.00    -0.297 NA
ATOM      8  C   UNL     1      -4.901   1.020  23.985  0.00  0.00    +0.002 C 
ATOM      9  C   UNL     1      -3.929   0.595  25.120  0.00  0.00    +0.055 C 
ATOM     10  C   UNL     1      -4.470   3.470  24.385  0.00  0.00    +0.074 C 
ATOM     11  C   UNL     1      -4.396   2.331  23.345  0.00  0.00    +0.024 C 
ATOM     12  C   UNL     1      -3.689   1.842  26.017  0.00  0.00    +0.094 C 
ATOM     13  C   UNL     1      -6.256   1.337  24.654  0.00  0.00    +0.019 C 
ATOM     14  C   UNL     1      -6.032   2.332  25.807  0.00  0.00    +0.085 C 
ENDROOT
BRANCH   9  15
ATOM      3  N   UNL     1      -2.489  -1.453  24.694  0.00  0.00    -0.271 N 
ATOM      5  N   UNL     1      -1.264  -1.861  24.326  0.00  0.00    -0.176 NA
ATOM     15  C   UNL     1      -2.629  -0.096  24.731  0.00  0.00    +0.044 A 
ATOM     17  C   UNL     1      -1.411   0.417  24.361  0.00  0.00    +0.048 A 
ATOM     19  C   UNL     1      -0.609  -0.716  24.123  0.00  0.00    +0.066 A 
ATOM     24  C   UNL     1      -3.498  -2.438  25.005  0.00  0.00    +0.172 C 
BRANCH  19  18
ATOM     18  C   UNL     1       0.838  -0.744  23.685  0.00  0.00    +0.040 C 
ATOM     20  C   UNL     1       0.991  -0.769  22.154  0.00  0.00    +0.010 C 
ATOM     21  C   UNL     1       1.677   0.458  24.168  0.00  0.00    +0.010 C 
ATOM     22  C   UNL     1       2.236   0.059  21.876  0.00  0.00    +0.001 C 
ATOM     23  C   UNL     1       2.144   1.171  22.905  0.00  0.00    +0.001 C 
ENDBRANCH  19  18
ENDBRANCH   9  15
BRANCH  10  16
ATOM     16  C   UNL     1      -3.254   4.396  24.303  0.00  0.00    +0.124 C 
BRANCH  16   4
ATOM      1  O   UNL     1      -2.168   4.407  26.954  0.00  0.00    -0.253 OA
ATOM      4  N   UNL     1      -2.071   3.726  24.745  0.00  0.00    -0.298 N 
ATOM      6  N   UNL     1      -0.424   3.028  26.203  0.00  0.00    -0.269 N 
ATOM     25  C   UNL     1      -1.596   3.777  26.068  0.00  0.00    +0.304 C 
ATOM     33  H   UNL     1      -1.519   3.223  24.057  0.00  0.00    +0.150 HD
ATOM     34  H   UNL     1      -0.080   2.563  25.367  0.00  0.00    +0.156 HD
BRANCH   6  26
ATOM     26  C   UNL     1       0.352   2.832  27.371  0.00  0.00    +0.036 A 
ATOM     27  C   UNL     1       1.741   2.738  27.277  0.00  0.00    +0.042 A 
ATOM     28  C   UNL     1      -0.271   2.733  28.613  0.00  0.00    +0.023 A 
ATOM     29  C   UNL     1       2.506   2.547  28.427  0.00  0.00    +0.054 A 
ATOM     30  C   UNL     1       0.494   2.541  29.764  0.00  0.00    +0.003 A 
ATOM     31  C   UNL     1       1.883   2.447  29.671  0.00  0.00    +0.019 A 
BRANCH  29  32
ATOM      7  N   UNL     1       5.084   2.372  28.253  0.00  0.00    -0.191 NA
ATOM     32  C   UNL     1       3.929   2.450  28.332  0.00  0.00    +0.099 C 
ENDBRANCH  29  32
ENDBRANCH   6  26
ENDBRANCH  16   4
ENDBRANCH  10  16
TORSDOF 6
ENDMDL
