MODEL 1
REMARK VINA RESULT:      -0.3      0.000      0.000
REMARK  Name = 71693487
REMARK  12 active torsions:
REMARK  status: ('A' for Active; 'I' for Inactive)
REMARK    1  A    between atoms: S_1  and  N_10
REMARK    2  A    between atoms: S_1  and  C_24
REMARK    3  A    between atoms: O_3  and  C_13
REMARK    4  A    between atoms: N_8  and  C_16
REMARK    5  A    between atoms: N_9  and  C_26
REMARK    6  A    between atoms: N_9  and  C_27
REMARK    7  A    between atoms: N_10  and  C_21
REMARK    8  A    between atoms: C_11  and  C_13
REMARK    9  A    between atoms: C_12  and  C_14
REMARK   10  A    between atoms: C_16  and  C_20
REMARK   11  A    between atoms: C_24  and  C_25
REMARK   12  A    between atoms: C_25  and  C_28
REMARK                            x       y       z     vdW  Elec       q    Type
REMARK                         _______ _______ _______ _____ _____    ______ ____
ROOT
ATOM      2  O   UNL     1      16.518  -7.451  24.993  0.00  0.00    -0.361 OA
ATOM      4  O   UNL     1      17.405  -5.036  22.528  0.00  0.00    -0.273 OA
ATOM      8  N   UNL     1      17.120  -4.747  24.824  0.00  0.00    -0.283 N 
ATOM     11  C   UNL     1      16.751  -5.348  26.129  0.00  0.00    +0.135 C 
ATOM     12  C   UNL     1      17.078  -6.854  26.162  0.00  0.00    +0.171 C 
ATOM     15  C   UNL     1      17.226  -5.504  23.655  0.00  0.00    +0.242 C 
ATOM     17  C   UNL     1      17.185  -7.009  23.835  0.00  0.00    +0.256 C 
ENDROOT
BRANCH  12  14
ATOM     14  C   UNL     1      16.504  -7.589  27.355  0.00  0.00    -0.017 A 
ATOM     18  C   UNL     1      16.355  -8.976  27.314  0.00  0.00    +0.008 A 
ATOM     19  C   UNL     1      16.126  -6.879  28.494  0.00  0.00    +0.008 A 
ATOM     21  C   UNL     1      15.449  -8.943  29.554  0.00  0.00    +0.048 A 
ATOM     22  C   UNL     1      15.827  -9.652  28.414  0.00  0.00    +0.025 A 
ATOM     23  C   UNL     1      15.599  -7.556  29.594  0.00  0.00    +0.025 A 
BRANCH  21  10
ATOM     10  N   UNL     1      14.909  -9.637  30.680  0.00  0.00    -0.221 N 
ATOM     30  H   UNL     1      14.532 -10.567  30.454  0.00  0.00    +0.173 HD
BRANCH  10   1
ATOM      1  S   UNL     1      13.995  -8.736  31.829  0.00  0.00    +0.043 S 
ATOM      6  O   UNL     1      14.905  -8.223  32.836  0.00  0.00    -0.155 OA
ATOM      7  O   UNL     1      13.057  -7.852  31.166  0.00  0.00    -0.155 OA
BRANCH   1  24
ATOM     24  C   UNL     1      13.067 -10.048  32.590  0.00  0.00    +0.188 C 
BRANCH  24  25
ATOM     25  C   UNL     1      12.164 -10.742  31.585  0.00  0.00    +0.021 C 
ATOM     28  C   UNL     1      10.696 -10.509  31.902  0.00  0.00    +0.005 C 
ENDBRANCH  24  25
ENDBRANCH   1  24
ENDBRANCH  10   1
ENDBRANCH  21  10
ENDBRANCH  12  14
BRANCH  11  13
ATOM     13  C   UNL     1      17.405  -4.626  27.315  0.00  0.00    +0.181 C 
BRANCH  13   3
ATOM      3  O   UNL     1      16.402  -3.904  28.000  0.00  0.00    -0.393 OA
ATOM     29  H   UNL     1      15.580  -4.420  27.936  0.00  0.00    +0.209 HD
ENDBRANCH  13   3
ENDBRANCH  11  13
BRANCH   8  16
ATOM     16  C   UNL     1      17.136  -3.291  24.717  0.00  0.00    +0.204 C 
BRANCH  16  20
ATOM      5  O   UNL     1      14.758  -3.174  24.441  0.00  0.00    -0.274 OA
ATOM      9  N   UNL     1      16.045  -1.938  22.958  0.00  0.00    -0.306 N 
ATOM     20  C   UNL     1      15.866  -2.806  24.041  0.00  0.00    +0.232 C 
ATOM     26  C   UNL     1      17.365  -1.519  22.504  0.00  0.00    +0.131 C 
ATOM     27  C   UNL     1      14.923  -1.387  22.203  0.00  0.00    +0.131 C 
ENDBRANCH  16  20
ENDBRANCH   8  16
TORSDOF 9
ENDMDL
MODEL 2
REMARK VINA RESULT:       1.6     16.146     19.065
REMARK  Name = 71693487
REMARK  12 active torsions:
REMARK  status: ('A' for Active; 'I' for Inactive)
REMARK    1  A    between atoms: S_1  and  N_10
REMARK    2  A    between atoms: S_1  and  C_24
REMARK    3  A    between atoms: O_3  and  C_13
REMARK    4  A    between atoms: N_8  and  C_16
REMARK    5  A    between atoms: N_9  and  C_26
REMARK    6  A    between atoms: N_9  and  C_27
REMARK    7  A    between atoms: N_10  and  C_21
REMARK    8  A    between atoms: C_11  and  C_13
REMARK    9  A    between atoms: C_12  and  C_14
REMARK   10  A    between atoms: C_16  and  C_20
REMARK   11  A    between atoms: C_24  and  C_25
REMARK   12  A    between atoms: C_25  and  C_28
REMARK                            x       y       z     vdW  Elec       q    Type
REMARK                         _______ _______ _______ _____ _____    ______ ____
ROOT
ATOM      2  O   UNL     1      -1.727  -0.504  24.645  0.00  0.00    -0.361 OA
ATOM      4  O   UNL     1      -5.152   0.202  25.329  0.00  0.00    -0.273 OA
ATOM      8  N   UNL     1      -3.598   1.487  24.156  0.00  0.00    -0.283 N 
ATOM     11  C   UNL     1      -2.201   1.647  23.686  0.00  0.00    +0.135 C 
ATOM     12  C   UNL     1      -1.525   0.278  23.468  0.00  0.00    +0.171 C 
ATOM     15  C   UNL     1      -4.041   0.334  24.810  0.00  0.00    +0.242 C 
ATOM     17  C   UNL     1      -3.084  -0.842  24.796  0.00  0.00    +0.256 C 
ENDROOT
BRANCH  12  14
ATOM     14  C   UNL     1      -0.031   0.352  23.234  0.00  0.00    -0.017 A 
ATOM     18  C   UNL     1       0.747   1.246  23.970  0.00  0.00    +0.008 A 
ATOM     19  C   UNL     1       0.567  -0.475  22.283  0.00  0.00    +0.008 A 
ATOM     21  C   UNL     1       2.722   0.486  22.805  0.00  0.00    +0.048 A 
ATOM     22  C   UNL     1       2.123   1.313  23.755  0.00  0.00    +0.025 A 
ATOM     23  C   UNL     1       1.943  -0.408  22.069  0.00  0.00    +0.025 A 
BRANCH  21  10
ATOM     10  N   UNL     1       4.132   0.554  22.585  0.00  0.00    -0.221 N 
ATOM     30  H   UNL     1       4.405   0.456  21.598  0.00  0.00    +0.173 HD
BRANCH  10   1
ATOM      1  S   UNL     1       5.170  -0.231  23.714  0.00  0.00    +0.043 S 
ATOM      6  O   UNL     1       5.422   0.680  24.815  0.00  0.00    -0.155 OA
ATOM      7  O   UNL     1       4.728  -1.588  23.967  0.00  0.00    -0.155 OA
BRANCH   1  24
ATOM     24  C   UNL     1       6.668  -0.313  22.758  0.00  0.00    +0.188 C 
BRANCH  24  25
ATOM     25  C   UNL     1       7.873   0.105  23.583  0.00  0.00    +0.021 C 
ATOM     28  C   UNL     1       9.175  -0.250  22.883  0.00  0.00    +0.005 C 
ENDBRANCH  24  25
ENDBRANCH   1  24
ENDBRANCH  10   1
ENDBRANCH  21  10
ENDBRANCH  12  14
BRANCH  11  13
ATOM     13  C   UNL     1      -2.101   2.506  22.419  0.00  0.00    +0.181 C 
BRANCH  13   3
ATOM      3  O   UNL     1      -2.424   1.693  21.308  0.00  0.00    -0.393 OA
ATOM     29  H   UNL     1      -2.001   2.091  20.527  0.00  0.00    +0.209 HD
ENDBRANCH  13   3
ENDBRANCH  11  13
BRANCH   8  16
ATOM     16  C   UNL     1      -4.465   2.662  24.147  0.00  0.00    +0.204 C 
BRANCH  16  20
ATOM      5  O   UNL     1      -5.592   3.013  26.234  0.00  0.00    -0.274 OA
ATOM      9  N   UNL     1      -3.501   3.991  25.997  0.00  0.00    -0.306 N 
ATOM     20  C   UNL     1      -4.587   3.227  25.551  0.00  0.00    +0.232 C 
ATOM     26  C   UNL     1      -2.325   4.230  25.170  0.00  0.00    +0.131 C 
ATOM     27  C   UNL     1      -3.468   4.604  27.322  0.00  0.00    +0.131 C 
ENDBRANCH  16  20
ENDBRANCH   8  16
TORSDOF 9
ENDMDL
MODEL 3
REMARK VINA RESULT:       1.7      1.770      2.146
REMARK  Name = 71693487
REMARK  12 active torsions:
REMARK  status: ('A' for Active; 'I' for Inactive)
REMARK    1  A    between atoms: S_1  and  N_10
REMARK    2  A    between atoms: S_1  and  C_24
REMARK    3  A    between atoms: O_3  and  C_13
REMARK    4  A    between atoms: N_8  and  C_16
REMARK    5  A    between atoms: N_9  and  C_26
REMARK    6  A    between atoms: N_9  and  C_27
REMARK    7  A    between atoms: N_10  and  C_21
REMARK    8  A    between atoms: C_11  and  C_13
REMARK    9  A    between atoms: C_12  and  C_14
REMARK   10  A    between atoms: C_16  and  C_20
REMARK   11  A    between atoms: C_24  and  C_25
REMARK   12  A    between atoms: C_25  and  C_28
REMARK                            x       y       z     vdW  Elec       q    Type
REMARK                         _______ _______ _______ _____ _____    ______ ____
ROOT
ATOM      2  O   UNL     1      16.377  -6.982  24.813  0.00  0.00    -0.361 OA
ATOM      4  O   UNL     1      17.405  -4.458  22.518  0.00  0.00    -0.273 OA
ATOM      8  N   UNL     1      17.126  -4.309  24.828  0.00  0.00    -0.283 N 
ATOM     11  C   UNL     1      16.718  -4.975  26.089  0.00  0.00    +0.135 C 
ATOM     12  C   UNL     1      16.963  -6.496  26.021  0.00  0.00    +0.171 C 
ATOM     15  C   UNL     1      17.196  -4.991  23.610  0.00  0.00    +0.242 C 
ATOM     17  C   UNL     1      17.072  -6.499  23.689  0.00  0.00    +0.256 C 
ENDROOT
BRANCH  12  14
ATOM     14  C   UNL     1      16.345  -7.277  27.161  0.00  0.00    -0.017 A 
ATOM     18  C   UNL     1      14.987  -7.134  27.449  0.00  0.00    +0.008 A 
ATOM     19  C   UNL     1      17.133  -8.141  27.922  0.00  0.00    +0.008 A 
ATOM     21  C   UNL     1      15.206  -8.719  29.259  0.00  0.00    +0.048 A 
ATOM     22  C   UNL     1      14.418  -7.855  28.498  0.00  0.00    +0.025 A 
ATOM     23  C   UNL     1      16.563  -8.862  28.971  0.00  0.00    +0.025 A 
BRANCH  21  10
ATOM     10  N   UNL     1      14.622  -9.458  30.334  0.00  0.00    -0.221 N 
ATOM     30  H   UNL     1      13.752  -9.946  30.080  0.00  0.00    +0.173 HD
BRANCH  10   1
ATOM      1  S   UNL     1      14.632  -8.753  31.905  0.00  0.00    +0.043 S 
ATOM      6  O   UNL     1      13.277  -8.766  32.423  0.00  0.00    -0.155 OA
ATOM      7  O   UNL     1      15.728  -9.272  32.698  0.00  0.00    -0.155 OA
BRANCH   1  24
ATOM     24  C   UNL     1      15.010  -7.065  31.490  0.00  0.00    +0.188 C 
BRANCH  24  25
ATOM     25  C   UNL     1      13.955  -6.113  32.028  0.00  0.00    +0.021 C 
ATOM     28  C   UNL     1      13.946  -4.802  31.260  0.00  0.00    +0.005 C 
ENDBRANCH  24  25
ENDBRANCH   1  24
ENDBRANCH  10   1
ENDBRANCH  21  10
ENDBRANCH  12  14
BRANCH  11  13
ATOM     13  C   UNL     1      17.405  -4.372  27.321  0.00  0.00    +0.181 C 
BRANCH  13   3
ATOM      3  O   UNL     1      17.153  -2.981  27.330  0.00  0.00    -0.393 OA
ATOM     29  H   UNL     1      17.378  -2.642  26.447  0.00  0.00    +0.209 HD
ENDBRANCH  13   3
ENDBRANCH  11  13
BRANCH   8  16
ATOM     16  C   UNL     1      17.221  -2.852  24.820  0.00  0.00    +0.204 C 
BRANCH  16  20
ATOM      5  O   UNL     1      15.337  -2.990  23.344  0.00  0.00    -0.274 OA
ATOM      9  N   UNL     1      16.284  -0.893  23.636  0.00  0.00    -0.306 N 
ATOM     20  C   UNL     1      16.190  -2.270  23.868  0.00  0.00    +0.232 C 
ATOM     26  C   UNL     1      17.304  -0.063  24.267  0.00  0.00    +0.131 C 
ATOM     27  C   UNL     1      15.369  -0.185  22.745  0.00  0.00    +0.131 C 
ENDBRANCH  16  20
ENDBRANCH   8  16
TORSDOF 9
ENDMDL
MODEL 4
REMARK VINA RESULT:       2.5     23.274     24.829
REMARK  Name = 71693487
REMARK  12 active torsions:
REMARK  status: ('A' for Active; 'I' for Inactive)
REMARK    1  A    between atoms: S_1  and  N_10
REMARK    2  A    between atoms: S_1  and  C_24
REMARK    3  A    between atoms: O_3  and  C_13
REMARK    4  A    between atoms: N_8  and  C_16
REMARK    5  A    between atoms: N_9  and  C_26
REMARK    6  A    between atoms: N_9  and  C_27
REMARK    7  A    between atoms: N_10  and  C_21
REMARK    8  A    between atoms: C_11  and  C_13
REMARK    9  A    between atoms: C_12  and  C_14
REMARK   10  A    between atoms: C_16  and  C_20
REMARK   11  A    between atoms: C_24  and  C_25
REMARK   12  A    between atoms: C_25  and  C_28
REMARK                            x       y       z     vdW  Elec       q    Type
REMARK                         _______ _______ _______ _____ _____    ______ ____
ROOT
ATOM      2  O   UNL     1      -4.639  -9.399  11.460  0.00  0.00    -0.361 OA
ATOM      4  O   UNL     1      -1.723  -8.832   9.492  0.00  0.00    -0.273 OA
ATOM      8  N   UNL     1      -1.877  -9.497  11.722  0.00  0.00    -0.283 N 
ATOM     11  C   UNL     1      -2.747  -9.794  12.886  0.00  0.00    +0.135 C 
ATOM     12  C   UNL     1      -4.128 -10.309  12.434  0.00  0.00    +0.171 C 
ATOM     15  C   UNL     1      -2.394  -9.207  10.456  0.00  0.00    +0.242 C 
ATOM     17  C   UNL     1      -3.879  -9.452  10.277  0.00  0.00    +0.256 C 
ENDROOT
BRANCH  12  14
ATOM     14  C   UNL     1      -5.154 -10.393  13.544  0.00  0.00    -0.017 A 
ATOM     18  C   UNL     1      -4.746 -10.331  14.877  0.00  0.00    +0.008 A 
ATOM     19  C   UNL     1      -6.507 -10.532  13.234  0.00  0.00    +0.008 A 
ATOM     21  C   UNL     1      -7.045 -10.546  15.589  0.00  0.00    +0.048 A 
ATOM     22  C   UNL     1      -5.692 -10.408  15.900  0.00  0.00    +0.025 A 
ATOM     23  C   UNL     1      -7.452 -10.608  14.256  0.00  0.00    +0.025 A 
BRANCH  21  10
ATOM     10  N   UNL     1      -8.013 -10.625  16.637  0.00  0.00    -0.221 N 
ATOM     30  H   UNL     1      -8.449 -11.551  16.733  0.00  0.00    +0.173 HD
BRANCH  10   1
ATOM      1  S   UNL     1      -9.077  -9.289  16.863  0.00  0.00    +0.043 S 
ATOM      6  O   UNL     1      -9.654  -9.382  18.191  0.00  0.00    -0.155 OA
ATOM      7  O   UNL     1      -8.463  -8.056  16.411  0.00  0.00    -0.155 OA
BRANCH   1  24
ATOM     24  C   UNL     1     -10.363  -9.713  15.710  0.00  0.00    +0.188 C 
BRANCH  24  25
ATOM     25  C   UNL     1     -10.446  -8.704  14.577  0.00  0.00    +0.021 C 
ATOM     28  C   UNL     1     -10.576  -9.393  13.228  0.00  0.00    +0.005 C 
ENDBRANCH  24  25
ENDBRANCH   1  24
ENDBRANCH  10   1
ENDBRANCH  21  10
ENDBRANCH  12  14
BRANCH  11  13
ATOM     13  C   UNL     1      -2.098 -10.778  13.868  0.00  0.00    +0.181 C 
BRANCH  13   3
ATOM      3  O   UNL     1      -1.812 -10.083  15.066  0.00  0.00    -0.393 OA
ATOM     29  H   UNL     1      -2.059 -10.667  15.804  0.00  0.00    +0.209 HD
ENDBRANCH  13   3
ENDBRANCH  11  13
BRANCH   8  16
ATOM     16  C   UNL     1      -0.456  -9.266  11.966  0.00  0.00    +0.204 C 
BRANCH  16  20
ATOM      5  O   UNL     1      -1.071  -7.294  13.181  0.00  0.00    -0.274 OA
ATOM      9  N   UNL     1       0.946  -7.231  12.037  0.00  0.00    -0.306 N 
ATOM     20  C   UNL     1      -0.238  -7.847  12.459  0.00  0.00    +0.232 C 
ATOM     26  C   UNL     1       1.914  -7.905  11.181  0.00  0.00    +0.131 C 
ATOM     27  C   UNL     1       1.299  -5.867  12.424  0.00  0.00    +0.131 C 
ENDBRANCH  16  20
ENDBRANCH   8  16
TORSDOF 9
ENDMDL
MODEL 5
REMARK VINA RESULT:       2.6     15.678     18.726
REMARK  Name = 71693487
REMARK  12 active torsions:
REMARK  status: ('A' for Active; 'I' for Inactive)
REMARK    1  A    between atoms: S_1  and  N_10
REMARK    2  A    between atoms: S_1  and  C_24
REMARK    3  A    between atoms: O_3  and  C_13
REMARK    4  A    between atoms: N_8  and  C_16
REMARK    5  A    between atoms: N_9  and  C_26
REMARK    6  A    between atoms: N_9  and  C_27
REMARK    7  A    between atoms: N_10  and  C_21
REMARK    8  A    between atoms: C_11  and  C_13
REMARK    9  A    between atoms: C_12  and  C_14
REMARK   10  A    between atoms: C_16  and  C_20
REMARK   11  A    between atoms: C_24  and  C_25
REMARK   12  A    between atoms: C_25  and  C_28
REMARK                            x       y       z     vdW  Elec       q    Type
REMARK                         _______ _______ _______ _____ _____    ______ ____
ROOT
ATOM      2  O   UNL     1      -1.911   1.978  22.781  0.00  0.00    -0.361 OA
ATOM      4  O   UNL     1      -5.254   2.082  24.007  0.00  0.00    -0.273 OA
ATOM      8  N   UNL     1      -3.420   0.920  24.856  0.00  0.00    -0.283 N 
ATOM     11  C   UNL     1      -1.991   0.548  24.709  0.00  0.00    +0.135 C 
ATOM     12  C   UNL     1      -1.201   1.650  23.975  0.00  0.00    +0.171 C 
ATOM     15  C   UNL     1      -4.046   1.836  24.007  0.00  0.00    +0.242 C 
ATOM     17  C   UNL     1      -3.131   2.612  23.081  0.00  0.00    +0.256 C 
ENDROOT
BRANCH  12  14
ATOM     14  C   UNL     1       0.197   1.242  23.563  0.00  0.00    -0.017 A 
ATOM     18  C   UNL     1       1.279   2.078  23.840  0.00  0.00    +0.008 A 
ATOM     19  C   UNL     1       0.404   0.029  22.906  0.00  0.00    +0.008 A 
ATOM     21  C   UNL     1       2.774   0.488  22.805  0.00  0.00    +0.048 A 
ATOM     22  C   UNL     1       2.567   1.702  23.461  0.00  0.00    +0.025 A 
ATOM     23  C   UNL     1       1.692  -0.349  22.527  0.00  0.00    +0.025 A 
BRANCH  21  10
ATOM     10  N   UNL     1       4.094   0.102  22.417  0.00  0.00    -0.221 N 
ATOM     30  H   UNL     1       4.129  -0.447  21.548  0.00  0.00    +0.173 HD
BRANCH  10   1
ATOM      1  S   UNL     1       5.187  -0.405  23.648  0.00  0.00    +0.043 S 
ATOM      6  O   UNL     1       5.311   0.665  24.620  0.00  0.00    -0.155 OA
ATOM      7  O   UNL     1       4.895  -1.758  24.075  0.00  0.00    -0.155 OA
BRANCH   1  24
ATOM     24  C   UNL     1       6.707  -0.440  22.723  0.00  0.00    +0.188 C 
BRANCH  24  25
ATOM     25  C   UNL     1       7.881   0.020  23.570  0.00  0.00    +0.021 C 
ATOM     28  C   UNL     1       9.204  -0.215  22.860  0.00  0.00    +0.005 C 
ENDBRANCH  24  25
ENDBRANCH   1  24
ENDBRANCH  10   1
ENDBRANCH  21  10
ENDBRANCH  12  14
BRANCH  11  13
ATOM     13  C   UNL     1      -1.330   0.212  26.052  0.00  0.00    +0.181 C 
BRANCH  13   3
ATOM      3  O   UNL     1      -0.606  -0.992  25.899  0.00  0.00    -0.393 OA
ATOM     29  H   UNL     1      -0.667  -1.247  24.962  0.00  0.00    +0.209 HD
ENDBRANCH  13   3
ENDBRANCH  11  13
BRANCH   8  16
ATOM     16  C   UNL     1      -4.247   0.127  25.761  0.00  0.00    +0.204 C 
BRANCH  16  20
ATOM      5  O   UNL     1      -3.186  -1.689  26.910  0.00  0.00    -0.274 OA
ATOM      9  N   UNL     1      -3.810  -2.067  24.708  0.00  0.00    -0.306 N 
ATOM     20  C   UNL     1      -3.698  -1.285  25.863  0.00  0.00    +0.232 C 
ATOM     26  C   UNL     1      -4.418  -1.565  23.482  0.00  0.00    +0.131 C 
ATOM     27  C   UNL     1      -3.328  -3.444  24.645  0.00  0.00    +0.131 C 
ENDBRANCH  16  20
ENDBRANCH   8  16
TORSDOF 9
ENDMDL
MODEL 6
REMARK VINA RESULT:       3.6     16.959     19.652
REMARK  Name = 71693487
REMARK  12 active torsions:
REMARK  status: ('A' for Active; 'I' for Inactive)
REMARK    1  A    between atoms: S_1  and  N_10
REMARK    2  A    between atoms: S_1  and  C_24
REMARK    3  A    between atoms: O_3  and  C_13
REMARK    4  A    between atoms: N_8  and  C_16
REMARK    5  A    between atoms: N_9  and  C_26
REMARK    6  A    between atoms: N_9  and  C_27
REMARK    7  A    between atoms: N_10  and  C_21
REMARK    8  A    between atoms: C_11  and  C_13
REMARK    9  A    between atoms: C_12  and  C_14
REMARK   10  A    between atoms: C_16  and  C_20
REMARK   11  A    between atoms: C_24  and  C_25
REMARK   12  A    between atoms: C_25  and  C_28
REMARK                            x       y       z     vdW  Elec       q    Type
REMARK                         _______ _______ _______ _____ _____    ______ ____
ROOT
ATOM      2  O   UNL     1      -2.969  -0.430  25.400  0.00  0.00    -0.361 OA
ATOM      4  O   UNL     1      -6.122   1.031  26.189  0.00  0.00    -0.273 OA
ATOM      8  N   UNL     1      -4.356   1.934  24.962  0.00  0.00    -0.283 N 
ATOM     11  C   UNL     1      -2.974   1.775  24.447  0.00  0.00    +0.135 C 
ATOM     12  C   UNL     1      -2.634   0.289  24.214  0.00  0.00    +0.171 C 
ATOM     15  C   UNL     1      -5.027   0.909  25.634  0.00  0.00    +0.242 C 
ATOM     17  C   UNL     1      -4.363  -0.453  25.595  0.00  0.00    +0.256 C 
ENDROOT
BRANCH  12  14
ATOM     14  C   UNL     1      -1.170   0.024  23.933  0.00  0.00    -0.017 A 
ATOM     18  C   UNL     1      -0.477   0.824  23.024  0.00  0.00    +0.008 A 
ATOM     19  C   UNL     1      -0.514  -1.021  24.584  0.00  0.00    +0.008 A 
ATOM     21  C   UNL     1       1.528  -0.464  23.418  0.00  0.00    +0.048 A 
ATOM     22  C   UNL     1       0.871   0.580  22.766  0.00  0.00    +0.025 A 
ATOM     23  C   UNL     1       0.835  -1.265  24.326  0.00  0.00    +0.025 A 
BRANCH  21  10
ATOM     10  N   UNL     1       2.910  -0.714  23.154  0.00  0.00    -0.221 N 
ATOM     30  H   UNL     1       3.383  -1.257  23.888  0.00  0.00    +0.173 HD
BRANCH  10   1
ATOM      1  S   UNL     1       3.848   0.556  22.464  0.00  0.00    +0.043 S 
ATOM      6  O   UNL     1       3.805   0.423  21.020  0.00  0.00    -0.155 OA
ATOM      7  O   UNL     1       3.548   1.824  23.096  0.00  0.00    -0.155 OA
BRANCH   1  24
ATOM     24  C   UNL     1       5.476   0.059  22.980  0.00  0.00    +0.188 C 
BRANCH  24  25
ATOM     25  C   UNL     1       5.432  -0.701  24.295  0.00  0.00    +0.021 C 
ATOM     28  C   UNL     1       5.011  -2.146  24.088  0.00  0.00    +0.005 C 
ENDBRANCH  24  25
ENDBRANCH   1  24
ENDBRANCH  10   1
ENDBRANCH  21  10
ENDBRANCH  12  14
BRANCH  11  13
ATOM     13  C   UNL     1      -2.723   2.593  23.173  0.00  0.00    +0.181 C 
BRANCH  13   3
ATOM      3  O   UNL     1      -3.359   1.937  22.095  0.00  0.00    -0.393 OA
ATOM     29  H   UNL     1      -4.318   2.008  22.240  0.00  0.00    +0.209 HD
ENDBRANCH  13   3
ENDBRANCH  11  13
BRANCH   8  16
ATOM     16  C   UNL     1      -4.935   3.275  24.975  0.00  0.00    +0.204 C 
BRANCH  16  20
ATOM      5  O   UNL     1      -3.929   4.818  23.442  0.00  0.00    -0.274 OA
ATOM      9  N   UNL     1      -2.906   4.583  25.510  0.00  0.00    -0.306 N 
ATOM     20  C   UNL     1      -3.890   4.294  24.558  0.00  0.00    +0.232 C 
ATOM     26  C   UNL     1      -2.881   3.950  26.823  0.00  0.00    +0.131 C 
ATOM     27  C   UNL     1      -1.831   5.540  25.259  0.00  0.00    +0.131 C 
ENDBRANCH  16  20
ENDBRANCH   8  16
TORSDOF 9
ENDMDL
