MODEL 1
REMARK VINA RESULT:       0.3      0.000      0.000
REMARK  Name = 26742999
REMARK  9 active torsions:
REMARK  status: ('A' for Active; 'I' for Inactive)
REMARK    1  A    between atoms: N_6  and  C_14
REMARK    2  A    between atoms: C_9  and  C_12
REMARK    3  A    between atoms: C_10  and  C_16
REMARK    4  A    between atoms: C_12  and  C_21
REMARK    5  A    between atoms: C_16  and  C_22
REMARK    6  A    between atoms: C_28  and  C_30
REMARK    7  A    between atoms: C_30  and  C_33
REMARK    8  A    between atoms: C_33  and  C_34
REMARK    9  A    between atoms: C_34  and  C_35
REMARK                            x       y       z     vdW  Elec       q    Type
REMARK                         _______ _______ _______ _____ _____    ______ ____
ROOT
ATOM      1  O   UNL     1      16.624  -5.742  23.507  0.00  0.00    -0.276 OA
ATOM      4  N   UNL     1      16.965  -7.010  25.423  0.00  0.00    -0.301 N 
ATOM     14  C   UNL     1      15.865  -9.134  27.055  0.00  0.00    +0.095 C 
ATOM     17  C   UNL     1      15.443  -8.941  25.595  0.00  0.00    +0.044 C 
ATOM     18  C   UNL     1      16.319  -7.804  27.667  0.00  0.00    +0.044 C 
ATOM     19  C   UNL     1      16.546  -8.261  24.788  0.00  0.00    +0.110 C 
ATOM     20  C   UNL     1      17.405  -7.146  26.818  0.00  0.00    +0.110 C 
ATOM     21  C   UNL     1      16.963  -5.824  24.690  0.00  0.00    +0.216 C 
ENDROOT
BRANCH  14   6
ATOM      3  O   UNL     1      13.404 -10.596  26.105  0.00  0.00    -0.247 OA
ATOM      6  N   UNL     1      14.790  -9.713  27.823  0.00  0.00    -0.289 N 
ATOM      7  N   UNL     1      12.880 -10.781  28.403  0.00  0.00    -0.306 N 
ATOM     23  C   UNL     1      14.694  -9.698  29.220  0.00  0.00    +0.070 A 
ATOM     24  C   UNL     1      13.664 -10.388  27.282  0.00  0.00    +0.328 A 
ATOM     25  C   UNL     1      13.517 -10.357  29.570  0.00  0.00    +0.067 A 
ATOM     27  C   UNL     1      15.535  -9.167  30.175  0.00  0.00    +0.028 A 
ATOM     29  C   UNL     1      13.122 -10.518  30.880  0.00  0.00    +0.028 A 
ATOM     31  C   UNL     1      15.155  -9.318  31.514  0.00  0.00    +0.002 A 
ATOM     32  C   UNL     1      13.962  -9.986  31.861  0.00  0.00    +0.002 A 
ATOM     37  H   UNL     1      12.004 -11.287  28.374  0.00  0.00    +0.170 HD
ENDBRANCH  14   6
BRANCH  21  12
ATOM     12  C   UNL     1      17.405  -4.579  25.417  0.00  0.00    +0.100 C 
BRANCH  12   9
ATOM      5  N   UNL     1      16.371  -0.949  25.500  0.00  0.00    -0.316 NA
ATOM      9  C   UNL     1      16.187  -3.851  25.998  0.00  0.00    +0.004 C 
ATOM     10  C   UNL     1      16.534  -2.833  27.110  0.00  0.00    +0.012 C 
ATOM     11  C   UNL     1      15.398  -3.136  24.889  0.00  0.00    +0.019 C 
ATOM     13  C   UNL     1      17.198  -1.570  26.536  0.00  0.00    +0.085 C 
ATOM     15  C   UNL     1      16.099  -1.869  24.399  0.00  0.00    +0.081 C 
ATOM     36  H   UNL     1      16.847  -0.123  25.139  0.00  0.00    +0.122 HD
BRANCH  10  16
ATOM     16  C   UNL     1      17.392  -3.432  28.225  0.00  0.00    +0.064 C 
BRANCH  16  22
ATOM      2  O   UNL     1      15.826  -2.917  31.426  0.00  0.00    -0.359 OA
ATOM      8  N   UNL     1      16.614  -2.498  30.361  0.00  0.00    -0.083 NA
ATOM     22  C   UNL     1      16.626  -3.530  29.512  0.00  0.00    +0.084 A 
ATOM     26  C   UNL     1      15.871  -4.618  29.985  0.00  0.00    +0.071 A 
ATOM     28  C   UNL     1      15.389  -4.181  31.190  0.00  0.00    +0.138 A 
BRANCH  28  30
ATOM     30  C   UNL     1      14.537  -4.783  32.222  0.00  0.00    +0.077 C 
BRANCH  30  33
ATOM     33  C   UNL     1      13.107  -5.088  31.724  0.00  0.00    +0.007 C 
BRANCH  33  34
ATOM     34  C   UNL     1      13.012  -6.428  30.993  0.00  0.00    -0.003 C 
ATOM     35  C   UNL     1      11.578  -6.929  30.933  0.00  0.00    +0.004 C 
ENDBRANCH  33  34
ENDBRANCH  30  33
ENDBRANCH  28  30
ENDBRANCH  16  22
ENDBRANCH  10  16
ENDBRANCH  12   9
ENDBRANCH  21  12
TORSDOF 8
ENDMDL
MODEL 2
REMARK VINA RESULT:       3.8     16.369     18.722
REMARK  Name = 26742999
REMARK  9 active torsions:
REMARK  status: ('A' for Active; 'I' for Inactive)
REMARK    1  A    between atoms: N_6  and  C_14
REMARK    2  A    between atoms: C_9  and  C_12
REMARK    3  A    between atoms: C_10  and  C_16
REMARK    4  A    between atoms: C_12  and  C_21
REMARK    5  A    between atoms: C_16  and  C_22
REMARK    6  A    between atoms: C_28  and  C_30
REMARK    7  A    between atoms: C_30  and  C_33
REMARK    8  A    between atoms: C_33  and  C_34
REMARK    9  A    between atoms: C_34  and  C_35
REMARK                            x       y       z     vdW  Elec       q    Type
REMARK                         _______ _______ _______ _____ _____    ______ ____
ROOT
ATOM      1  O   UNL     1      -3.312  -1.450  26.586  0.00  0.00    -0.276 OA
ATOM      4  N   UNL     1      -2.128  -1.175  24.607  0.00  0.00    -0.301 N 
ATOM     14  C   UNL     1       0.504  -0.699  23.498  0.00  0.00    +0.095 C 
ATOM     17  C   UNL     1       0.316  -1.234  24.921  0.00  0.00    +0.044 C 
ATOM     18  C   UNL     1      -0.712   0.129  23.066  0.00  0.00    +0.044 C 
ATOM     19  C   UNL     1      -1.000  -1.995  25.055  0.00  0.00    +0.110 C 
ATOM     20  C   UNL     1      -2.008  -0.660  23.237  0.00  0.00    +0.110 C 
ATOM     21  C   UNL     1      -3.219  -0.975  25.452  0.00  0.00    +0.216 C 
ENDROOT
BRANCH  14   6
ATOM      3  O   UNL     1       0.848   2.267  23.072  0.00  0.00    -0.247 OA
ATOM      6  N   UNL     1       1.715   0.078  23.401  0.00  0.00    -0.289 N 
ATOM      7  N   UNL     1       3.164   1.802  23.169  0.00  0.00    -0.306 N 
ATOM     23  C   UNL     1       3.015  -0.435  23.493  0.00  0.00    +0.070 A 
ATOM     24  C   UNL     1       1.777   1.482  23.198  0.00  0.00    +0.328 A 
ATOM     25  C   UNL     1       3.901   0.631  23.349  0.00  0.00    +0.067 A 
ATOM     27  C   UNL     1       3.464  -1.724  23.686  0.00  0.00    +0.028 A 
ATOM     29  C   UNL     1       5.269   0.466  23.391  0.00  0.00    +0.028 A 
ATOM     31  C   UNL     1       4.849  -1.917  23.733  0.00  0.00    +0.002 A 
ATOM     32  C   UNL     1       5.740  -0.834  23.586  0.00  0.00    +0.002 A 
ATOM     37  H   UNL     1       3.564   2.723  23.041  0.00  0.00    +0.170 HD
ENDBRANCH  14   6
BRANCH  21  12
ATOM     12  C   UNL     1      -4.338  -0.116  24.919  0.00  0.00    +0.100 C 
BRANCH  12   9
ATOM      5  N   UNL     1      -6.665   2.853  24.761  0.00  0.00    -0.316 NA
ATOM      9  C   UNL     1      -4.434   1.182  25.729  0.00  0.00    +0.004 C 
ATOM     10  C   UNL     1      -4.216   2.464  24.891  0.00  0.00    +0.012 C 
ATOM     11  C   UNL     1      -5.788   1.277  26.450  0.00  0.00    +0.019 C 
ATOM     13  C   UNL     1      -5.424   2.766  23.989  0.00  0.00    +0.085 C 
ATOM     15  C   UNL     1      -6.934   1.620  25.498  0.00  0.00    +0.081 C 
ATOM     36  H   UNL     1      -7.442   3.044  24.130  0.00  0.00    +0.122 HD
BRANCH  10  16
ATOM     16  C   UNL     1      -2.927   2.431  24.069  0.00  0.00    +0.064 C 
BRANCH  16  22
ATOM      2  O   UNL     1      -0.158   4.054  25.702  0.00  0.00    -0.359 OA
ATOM      8  N   UNL     1      -1.228   4.042  24.814  0.00  0.00    -0.083 NA
ATOM     22  C   UNL     1      -1.736   2.810  24.902  0.00  0.00    +0.084 A 
ATOM     26  C   UNL     1      -1.035   2.006  25.818  0.00  0.00    +0.071 A 
ATOM     28  C   UNL     1      -0.054   2.836  26.293  0.00  0.00    +0.138 A 
BRANCH  28  30
ATOM     30  C   UNL     1       1.032   2.671  27.267  0.00  0.00    +0.077 C 
BRANCH  30  33
ATOM     33  C   UNL     1       0.526   2.332  28.686  0.00  0.00    +0.007 C 
BRANCH  33  34
ATOM     34  C   UNL     1       1.640   2.373  29.733  0.00  0.00    -0.003 C 
ATOM     35  C   UNL     1       2.942   2.886  29.141  0.00  0.00    +0.004 C 
ENDBRANCH  33  34
ENDBRANCH  30  33
ENDBRANCH  28  30
ENDBRANCH  16  22
ENDBRANCH  10  16
ENDBRANCH  12   9
ENDBRANCH  21  12
TORSDOF 8
ENDMDL
