MODEL 1
REMARK VINA RESULT:       7.6      0.000      0.000
REMARK  Name = 7674049
REMARK  7 active torsions:
REMARK  status: ('A' for Active; 'I' for Inactive)
REMARK    1  A    between atoms: S_1  and  N_11
REMARK    2  A    between atoms: S_1  and  C_24
REMARK    3  A    between atoms: S_2  and  C_25
REMARK    4  A    between atoms: S_2  and  C_30
REMARK    5  A    between atoms: N_13  and  C_20
REMARK    6  A    between atoms: C_15  and  C_19
REMARK    7  A    between atoms: C_22  and  C_25
REMARK                            x       y       z     vdW  Elec       q    Type
REMARK                         _______ _______ _______ _____ _____    ______ ____
ROOT
ATOM      7  O   UNL     1      -0.634  -2.542  22.766  0.00  0.00    -0.274 OA
ATOM     11  N   UNL     1      -0.544   2.106  24.646  0.00  0.00    -0.162 NA
ATOM     12  N   UNL     1      -1.067  -0.656  24.057  0.00  0.00    -0.297 N 
ATOM     15  C   UNL     1      -0.088   1.526  23.352  0.00  0.00    +0.183 C 
ATOM     16  C   UNL     1      -0.865   0.276  22.947  0.00  0.00    +0.138 C 
ATOM     17  C   UNL     1      -1.716   1.426  25.255  0.00  0.00    +0.129 C 
ATOM     18  C   UNL     1      -1.432  -0.067  25.349  0.00  0.00    +0.125 C 
ATOM     22  C   UNL     1      -0.939  -2.030  23.846  0.00  0.00    +0.237 C 
ENDROOT
BRANCH  15  19
ATOM      6  O   UNL     1       1.997   1.726  24.491  0.00  0.00    -0.274 OA
ATOM     13  N   UNL     1       1.858   0.337  22.628  0.00  0.00    -0.303 N 
ATOM     19  C   UNL     1       1.359   1.217  23.573  0.00  0.00    +0.234 C 
ATOM     39  H   UNL     1       1.227  -0.047  21.930  0.00  0.00    +0.149 HD
BRANCH  13  20
ATOM      8  O   UNL     1       2.484  -1.993  23.910  0.00  0.00    -0.274 OA
ATOM     14  N   UNL     1       4.639  -1.306  24.234  0.00  0.00    -0.314 N 
ATOM     20  C   UNL     1       3.229  -0.102  22.607  0.00  0.00    +0.159 C 
ATOM     21  C   UNL     1       4.179   1.075  22.774  0.00  0.00    +0.033 C 
ATOM     23  C   UNL     1       5.603   0.564  22.924  0.00  0.00    +0.021 C 
ATOM     26  C   UNL     1       3.389  -1.193  23.662  0.00  0.00    +0.233 C 
ATOM     27  C   UNL     1       5.689  -0.307  24.163  0.00  0.00    +0.104 C 
ATOM     40  H   UNL     1       4.773  -2.064  24.896  0.00  0.00    +0.149 HD
ENDBRANCH  13  20
ENDBRANCH  15  19
BRANCH  11   1
ATOM      1  S   UNL     1      -0.512   3.812  24.776  0.00  0.00    +0.062 S 
ATOM      4  O   UNL     1      -0.142   4.378  23.497  0.00  0.00    -0.153 OA
ATOM      5  O   UNL     1       0.194   4.179  25.985  0.00  0.00    -0.153 OA
BRANCH   1  24
ATOM      3  F   UNL     1      -6.246   4.885  25.628  0.00  0.00    -0.205 F 
ATOM     24  C   UNL     1      -2.230   4.134  25.031  0.00  0.00    +0.106 A 
ATOM     28  C   UNL     1      -3.102   4.164  23.943  0.00  0.00    +0.031 A 
ATOM     29  C   UNL     1      -2.713   4.357  26.320  0.00  0.00    +0.031 A 
ATOM     31  C   UNL     1      -4.459   4.417  24.145  0.00  0.00    +0.040 A 
ATOM     32  C   UNL     1      -4.070   4.611  26.521  0.00  0.00    +0.040 A 
ATOM     33  C   UNL     1      -4.943   4.641  25.435  0.00  0.00    +0.124 A 
ENDBRANCH   1  24
ENDBRANCH  11   1
BRANCH  22  25
ATOM     25  C   UNL     1      -1.204  -2.911  25.042  0.00  0.00    +0.267 C 
BRANCH  25   2
ATOM      2  S   UNL     1      -2.910  -3.305  25.099  0.00  0.00    +0.005 S 
ATOM      9  O   UNL     1      -3.230  -3.870  26.403  0.00  0.00    -0.169 OA
ATOM     10  O   UNL     1      -3.249  -4.044  23.890  0.00  0.00    -0.169 OA
BRANCH   2  30
ATOM     30  C   UNL     1      -3.728  -1.737  25.013  0.00  0.00    +0.089 A 
ATOM     34  C   UNL     1      -4.151  -1.237  23.780  0.00  0.00    +0.027 A 
ATOM     35  C   UNL     1      -3.950  -1.001  26.177  0.00  0.00    +0.027 A 
ATOM     36  C   UNL     1      -4.795  -0.001  23.713  0.00  0.00    +0.002 A 
ATOM     37  C   UNL     1      -4.594   0.235  26.109  0.00  0.00    +0.002 A 
ATOM     38  C   UNL     1      -5.017   0.735  24.877  0.00  0.00    +0.000 A 
ENDBRANCH   2  30
ENDBRANCH  25   2
ENDBRANCH  22  25
TORSDOF 7
ENDMDL
MODEL 2
REMARK VINA RESULT:       8.1      2.603      6.384
REMARK  Name = 7674049
REMARK  7 active torsions:
REMARK  status: ('A' for Active; 'I' for Inactive)
REMARK    1  A    between atoms: S_1  and  N_11
REMARK    2  A    between atoms: S_1  and  C_24
REMARK    3  A    between atoms: S_2  and  C_25
REMARK    4  A    between atoms: S_2  and  C_30
REMARK    5  A    between atoms: N_13  and  C_20
REMARK    6  A    between atoms: C_15  and  C_19
REMARK    7  A    between atoms: C_22  and  C_25
REMARK                            x       y       z     vdW  Elec       q    Type
REMARK                         _______ _______ _______ _____ _____    ______ ____
ROOT
ATOM      7  O   UNL     1       1.431   1.145  25.405  0.00  0.00    -0.274 OA
ATOM     11  N   UNL     1      -2.727   3.378  23.712  0.00  0.00    -0.162 NA
ATOM     12  N   UNL     1      -0.035   2.540  24.258  0.00  0.00    -0.297 N 
ATOM     15  C   UNL     1      -2.441   2.541  24.910  0.00  0.00    +0.183 C 
ATOM     16  C   UNL     1      -0.987   2.621  25.366  0.00  0.00    +0.138 C 
ATOM     17  C   UNL     1      -1.583   4.199  23.238  0.00  0.00    +0.129 C 
ATOM     18  C   UNL     1      -0.369   3.299  23.050  0.00  0.00    +0.125 C 
ATOM     22  C   UNL     1       1.134   1.789  24.396  0.00  0.00    +0.237 C 
ENDROOT
BRANCH  15  19
ATOM      6  O   UNL     1      -3.110   0.887  23.327  0.00  0.00    -0.274 OA
ATOM     13  N   UNL     1      -2.761   0.256  25.540  0.00  0.00    -0.303 N 
ATOM     19  C   UNL     1      -2.801   1.152  24.487  0.00  0.00    +0.234 C 
ATOM     39  H   UNL     1      -2.459   0.581  26.455  0.00  0.00    +0.149 HD
BRANCH  13  20
ATOM      8  O   UNL     1      -0.719  -1.559  25.624  0.00  0.00    -0.274 OA
ATOM     14  N   UNL     1      -1.913  -3.049  24.370  0.00  0.00    -0.314 N 
ATOM     20  C   UNL     1      -3.086  -1.140  25.400  0.00  0.00    +0.159 C 
ATOM     21  C   UNL     1      -4.171  -1.342  24.351  0.00  0.00    +0.033 C 
ATOM     23  C   UNL     1      -4.367  -2.829  24.101  0.00  0.00    +0.021 C 
ATOM     26  C   UNL     1      -1.792  -1.898  25.120  0.00  0.00    +0.233 C 
ATOM     27  C   UNL     1      -3.071  -3.418  23.577  0.00  0.00    +0.104 C 
ATOM     40  H   UNL     1      -1.067  -3.593  24.225  0.00  0.00    +0.149 HD
ENDBRANCH  13  20
ENDBRANCH  15  19
BRANCH  11   1
ATOM      1  S   UNL     1      -4.266   4.123  23.645  0.00  0.00    +0.062 S 
ATOM      4  O   UNL     1      -4.858   3.873  22.347  0.00  0.00    -0.153 OA
ATOM      5  O   UNL     1      -4.162   5.468  24.169  0.00  0.00    -0.153 OA
BRANCH   1  24
ATOM      3  F   UNL     1      -7.165   0.853  27.602  0.00  0.00    -0.205 F 
ATOM     24  C   UNL     1      -5.135   3.143  24.830  0.00  0.00    +0.106 A 
ATOM     28  C   UNL     1      -5.077   3.474  26.184  0.00  0.00    +0.031 A 
ATOM     29  C   UNL     1      -5.878   2.040  24.413  0.00  0.00    +0.031 A 
ATOM     31  C   UNL     1      -5.763   2.701  27.120  0.00  0.00    +0.040 A 
ATOM     32  C   UNL     1      -6.564   1.266  25.349  0.00  0.00    +0.040 A 
ATOM     33  C   UNL     1      -6.507   1.596  26.703  0.00  0.00    +0.124 A 
ENDBRANCH   1  24
ENDBRANCH  11   1
BRANCH  22  25
ATOM     25  C   UNL     1       2.071   1.797  23.213  0.00  0.00    +0.267 C 
BRANCH  25   2
ATOM      2  S   UNL     1       2.307   0.152  22.658  0.00  0.00    +0.005 S 
ATOM      9  O   UNL     1       2.386   0.143  21.202  0.00  0.00    -0.169 OA
ATOM     10  O   UNL     1       1.340  -0.703  23.333  0.00  0.00    -0.169 OA
BRANCH   2  30
ATOM     30  C   UNL     1       3.916  -0.288  23.254  0.00  0.00    +0.089 A 
ATOM     34  C   UNL     1       4.152  -1.575  23.739  0.00  0.00    +0.027 A 
ATOM     35  C   UNL     1       4.947   0.651  23.239  0.00  0.00    +0.027 A 
ATOM     36  C   UNL     1       5.419  -1.921  24.209  0.00  0.00    +0.002 A 
ATOM     37  C   UNL     1       6.214   0.305  23.709  0.00  0.00    +0.002 A 
ATOM     38  C   UNL     1       6.450  -0.982  24.194  0.00  0.00    +0.000 A 
ENDBRANCH   2  30
ENDBRANCH  25   2
ENDBRANCH  22  25
TORSDOF 7
ENDMDL
MODEL 3
REMARK VINA RESULT:       9.5      2.250      6.399
REMARK  Name = 7674049
REMARK  7 active torsions:
REMARK  status: ('A' for Active; 'I' for Inactive)
REMARK    1  A    between atoms: S_1  and  N_11
REMARK    2  A    between atoms: S_1  and  C_24
REMARK    3  A    between atoms: S_2  and  C_25
REMARK    4  A    between atoms: S_2  and  C_30
REMARK    5  A    between atoms: N_13  and  C_20
REMARK    6  A    between atoms: C_15  and  C_19
REMARK    7  A    between atoms: C_22  and  C_25
REMARK                            x       y       z     vdW  Elec       q    Type
REMARK                         _______ _______ _______ _____ _____    ______ ____
ROOT
ATOM      7  O   UNL     1       1.605  -1.077  24.146  0.00  0.00    -0.274 OA
ATOM     11  N   UNL     1      -1.389   2.887  24.834  0.00  0.00    -0.162 NA
ATOM     12  N   UNL     1       0.676   1.053  24.044  0.00  0.00    -0.297 N 
ATOM     15  C   UNL     1      -1.202   1.614  25.585  0.00  0.00    +0.183 C 
ATOM     16  C   UNL     1       0.196   1.021  25.425  0.00  0.00    +0.138 C 
ATOM     17  C   UNL     1      -0.170   3.390  24.149  0.00  0.00    +0.129 C 
ATOM     18  C   UNL     1       0.410   2.279  23.286  0.00  0.00    +0.125 C 
ATOM     22  C   UNL     1       1.372  -0.038  23.522  0.00  0.00    +0.237 C 
ENDROOT
BRANCH  15  19
ATOM      6  O   UNL     1      -2.968   1.032  24.091  0.00  0.00    -0.274 OA
ATOM     13  N   UNL     1      -2.295  -0.511  25.700  0.00  0.00    -0.303 N 
ATOM     19  C   UNL     1      -2.245   0.698  25.028  0.00  0.00    +0.234 C 
ATOM     39  H   UNL     1      -1.625  -0.691  26.442  0.00  0.00    +0.149 HD
BRANCH  13  20
ATOM      8  O   UNL     1      -1.307  -3.007  25.191  0.00  0.00    -0.274 OA
ATOM     14  N   UNL     1      -3.107  -3.518  23.881  0.00  0.00    -0.314 N 
ATOM     20  C   UNL     1      -3.228  -1.557  25.372  0.00  0.00    +0.159 C 
ATOM     21  C   UNL     1      -4.334  -1.034  24.465  0.00  0.00    +0.033 C 
ATOM     23  C   UNL     1      -5.199  -2.193  23.995  0.00  0.00    +0.021 C 
ATOM     26  C   UNL     1      -2.439  -2.725  24.791  0.00  0.00    +0.233 C 
ATOM     27  C   UNL     1      -4.342  -3.163  23.205  0.00  0.00    +0.104 C 
ATOM     40  H   UNL     1      -2.611  -4.331  23.530  0.00  0.00    +0.149 HD
ENDBRANCH  13  20
ENDBRANCH  15  19
BRANCH  11   1
ATOM      1  S   UNL     1      -2.385   4.070  25.565  0.00  0.00    +0.062 S 
ATOM      4  O   UNL     1      -2.297   5.299  24.806  0.00  0.00    -0.153 OA
ATOM      5  O   UNL     1      -2.156   4.061  26.995  0.00  0.00    -0.153 OA
BRANCH   1  24
ATOM      3  F   UNL     1      -7.693   1.710  24.562  0.00  0.00    -0.205 F 
ATOM     24  C   UNL     1      -3.975   3.363  25.265  0.00  0.00    +0.106 A 
ATOM     28  C   UNL     1      -4.437   3.217  23.957  0.00  0.00    +0.031 A 
ATOM     29  C   UNL     1      -4.768   2.951  26.335  0.00  0.00    +0.031 A 
ATOM     31  C   UNL     1      -5.693   2.659  23.719  0.00  0.00    +0.040 A 
ATOM     32  C   UNL     1      -6.024   2.392  26.097  0.00  0.00    +0.040 A 
ATOM     33  C   UNL     1      -6.486   2.246  24.790  0.00  0.00    +0.124 A 
ENDBRANCH   1  24
ENDBRANCH  11   1
BRANCH  22  25
ATOM     25  C   UNL     1       1.859   0.103  22.101  0.00  0.00    +0.267 C 
BRANCH  25   2
ATOM      2  S   UNL     1       3.381   0.971  22.099  0.00  0.00    +0.005 S 
ATOM      9  O   UNL     1       3.207   2.248  22.780  0.00  0.00    -0.169 OA
ATOM     10  O   UNL     1       3.923   0.942  20.747  0.00  0.00    -0.169 OA
BRANCH   2  30
ATOM     30  C   UNL     1       4.447  -0.006  23.123  0.00  0.00    +0.089 A 
ATOM     34  C   UNL     1       5.512   0.595  23.795  0.00  0.00    +0.027 A 
ATOM     35  C   UNL     1       4.223  -1.376  23.257  0.00  0.00    +0.027 A 
ATOM     36  C   UNL     1       6.352  -0.174  24.599  0.00  0.00    +0.002 A 
ATOM     37  C   UNL     1       5.063  -2.146  24.062  0.00  0.00    +0.002 A 
ATOM     38  C   UNL     1       6.128  -1.544  24.734  0.00  0.00    +0.000 A 
ENDBRANCH   2  30
ENDBRANCH  25   2
ENDBRANCH  22  25
TORSDOF 7
ENDMDL
MODEL 4
REMARK VINA RESULT:       9.6      3.200      6.400
REMARK  Name = 7674049
REMARK  7 active torsions:
REMARK  status: ('A' for Active; 'I' for Inactive)
REMARK    1  A    between atoms: S_1  and  N_11
REMARK    2  A    between atoms: S_1  and  C_24
REMARK    3  A    between atoms: S_2  and  C_25
REMARK    4  A    between atoms: S_2  and  C_30
REMARK    5  A    between atoms: N_13  and  C_20
REMARK    6  A    between atoms: C_15  and  C_19
REMARK    7  A    between atoms: C_22  and  C_25
REMARK                            x       y       z     vdW  Elec       q    Type
REMARK                         _______ _______ _______ _____ _____    ______ ____
ROOT
ATOM      7  O   UNL     1      -1.739  -1.377  26.145  0.00  0.00    -0.274 OA
ATOM     11  N   UNL     1       1.603   0.324  22.817  0.00  0.00    -0.162 NA
ATOM     12  N   UNL     1      -0.402  -1.144  24.256  0.00  0.00    -0.297 N 
ATOM     15  C   UNL     1       1.392   0.587  24.268  0.00  0.00    +0.183 C 
ATOM     16  C   UNL     1       0.723  -0.575  24.998  0.00  0.00    +0.138 C 
ATOM     17  C   UNL     1       1.213  -1.037  22.368  0.00  0.00    +0.129 C 
ATOM     18  C   UNL     1      -0.215  -1.319  22.813  0.00  0.00    +0.125 C 
ATOM     22  C   UNL     1      -1.566  -1.517  24.932  0.00  0.00    +0.237 C 
ENDROOT
BRANCH  15  19
ATOM      6  O   UNL     1      -0.039   2.230  23.299  0.00  0.00    -0.274 OA
ATOM     13  N   UNL     1       0.504   2.395  25.557  0.00  0.00    -0.303 N 
ATOM     19  C   UNL     1       0.536   1.813  24.302  0.00  0.00    +0.234 C 
ATOM     39  H   UNL     1       0.993   1.942  26.325  0.00  0.00    +0.149 HD
BRANCH  13  20
ATOM      8  O   UNL     1      -1.938   2.154  26.760  0.00  0.00    -0.274 OA
ATOM     14  N   UNL     1      -2.638   4.140  25.873  0.00  0.00    -0.314 N 
ATOM     20  C   UNL     1      -0.231   3.598  25.849  0.00  0.00    +0.159 C 
ATOM     21  C   UNL     1      -0.096   4.606  24.716  0.00  0.00    +0.033 C 
ATOM     23  C   UNL     1      -1.020   5.787  24.971  0.00  0.00    +0.021 C 
ATOM     26  C   UNL     1      -1.669   3.204  26.171  0.00  0.00    +0.233 C 
ATOM     27  C   UNL     1      -2.453   5.294  25.013  0.00  0.00    +0.104 C 
ATOM     40  H   UNL     1      -3.592   3.912  26.135  0.00  0.00    +0.149 HD
ENDBRANCH  13  20
ENDBRANCH  15  19
BRANCH  11   1
ATOM      1  S   UNL     1       3.026   0.968  22.119  0.00  0.00    +0.062 S 
ATOM      4  O   UNL     1       3.093   2.386  22.402  0.00  0.00    -0.153 OA
ATOM      5  O   UNL     1       3.153   0.473  20.765  0.00  0.00    -0.153 OA
BRANCH   1  24
ATOM      3  F   UNL     1       7.102  -1.722  25.422  0.00  0.00    -0.205 F 
ATOM     24  C   UNL     1       4.247   0.162  23.109  0.00  0.00    +0.106 A 
ATOM     28  C   UNL     1       4.113  -1.192  23.416  0.00  0.00    +0.031 A 
ATOM     29  C   UNL     1       5.345   0.880  23.583  0.00  0.00    +0.031 A 
ATOM     31  C   UNL     1       5.077  -1.828  24.197  0.00  0.00    +0.040 A 
ATOM     32  C   UNL     1       6.309   0.243  24.363  0.00  0.00    +0.040 A 
ATOM     33  C   UNL     1       6.176  -1.110  24.671  0.00  0.00    +0.124 A 
ENDBRANCH   1  24
ENDBRANCH  11   1
BRANCH  22  25
ATOM     25  C   UNL     1      -2.656  -2.129  24.087  0.00  0.00    +0.267 C 
BRANCH  25   2
ATOM      2  S   UNL     1      -4.207  -1.507  24.613  0.00  0.00    +0.005 S 
ATOM      9  O   UNL     1      -4.282  -1.573  26.067  0.00  0.00    -0.169 OA
ATOM     10  O   UNL     1      -5.248  -2.132  23.808  0.00  0.00    -0.169 OA
BRANCH   2  30
ATOM     30  C   UNL     1      -4.162   0.211  24.187  0.00  0.00    +0.089 A 
ATOM     34  C   UNL     1      -5.034   1.107  24.806  0.00  0.00    +0.027 A 
ATOM     35  C   UNL     1      -3.254   0.670  23.232  0.00  0.00    +0.027 A 
ATOM     36  C   UNL     1      -4.999   2.460  24.469  0.00  0.00    +0.002 A 
ATOM     37  C   UNL     1      -3.219   2.024  22.895  0.00  0.00    +0.002 A 
ATOM     38  C   UNL     1      -4.092   2.919  23.514  0.00  0.00    +0.000 A 
ENDBRANCH   2  30
ENDBRANCH  25   2
ENDBRANCH  22  25
TORSDOF 7
ENDMDL
MODEL 5
REMARK VINA RESULT:      10.1      2.861      3.919
REMARK  Name = 7674049
REMARK  7 active torsions:
REMARK  status: ('A' for Active; 'I' for Inactive)
REMARK    1  A    between atoms: S_1  and  N_11
REMARK    2  A    between atoms: S_1  and  C_24
REMARK    3  A    between atoms: S_2  and  C_25
REMARK    4  A    between atoms: S_2  and  C_30
REMARK    5  A    between atoms: N_13  and  C_20
REMARK    6  A    between atoms: C_15  and  C_19
REMARK    7  A    between atoms: C_22  and  C_25
REMARK                            x       y       z     vdW  Elec       q    Type
REMARK                         _______ _______ _______ _____ _____    ______ ____
ROOT
ATOM      7  O   UNL     1       2.422  -0.394  23.847  0.00  0.00    -0.274 OA
ATOM     11  N   UNL     1      -1.444   2.728  24.520  0.00  0.00    -0.162 NA
ATOM     12  N   UNL     1       0.324   0.605  23.736  0.00  0.00    -0.297 N 
ATOM     15  C   UNL     1       0.024   2.867  24.738  0.00  0.00    +0.183 C 
ATOM     16  C   UNL     1       0.855   1.965  23.830  0.00  0.00    +0.138 C 
ATOM     17  C   UNL     1      -1.824   1.815  23.411  0.00  0.00    +0.129 C 
ATOM     18  C   UNL     1      -1.130   0.475  23.608  0.00  0.00    +0.125 C 
ATOM     22  C   UNL     1       1.197  -0.485  23.741  0.00  0.00    +0.237 C 
ENDROOT
BRANCH  15  19
ATOM      6  O   UNL     1      -0.295   1.517  26.677  0.00  0.00    -0.274 OA
ATOM     13  N   UNL     1       1.005   3.441  26.843  0.00  0.00    -0.303 N 
ATOM     19  C   UNL     1       0.220   2.515  26.179  0.00  0.00    +0.234 C 
ATOM     39  H   UNL     1       1.406   4.214  26.319  0.00  0.00    +0.149 HD
BRANCH  13  20
ATOM      8  O   UNL     1       3.551   2.727  27.536  0.00  0.00    -0.274 OA
ATOM     14  N   UNL     1       2.832   1.871  29.528  0.00  0.00    -0.314 N 
ATOM     20  C   UNL     1       1.326   3.342  28.242  0.00  0.00    +0.159 C 
ATOM     21  C   UNL     1       0.177   2.714  29.020  0.00  0.00    +0.033 C 
ATOM     23  C   UNL     1       0.611   2.463  30.456  0.00  0.00    +0.021 C 
ATOM     26  C   UNL     1       2.652   2.598  28.370  0.00  0.00    +0.233 C 
ATOM     27  C   UNL     1       1.782   1.499  30.458  0.00  0.00    +0.104 C 
ATOM     40  H   UNL     1       3.733   1.419  29.650  0.00  0.00    +0.149 HD
ENDBRANCH  13  20
ENDBRANCH  15  19
BRANCH  11   1
ATOM      1  S   UNL     1      -2.383   4.149  24.682  0.00  0.00    +0.062 S 
ATOM      4  O   UNL     1      -2.612   4.718  23.371  0.00  0.00    -0.153 OA
ATOM      5  O   UNL     1      -1.841   4.951  25.758  0.00  0.00    -0.153 OA
BRANCH   1  24
ATOM      3  F   UNL     1      -7.466   1.814  26.544  0.00  0.00    -0.205 F 
ATOM     24  C   UNL     1      -3.906   3.450  25.240  0.00  0.00    +0.106 A 
ATOM     28  C   UNL     1      -4.652   2.635  24.388  0.00  0.00    +0.031 A 
ATOM     29  C   UNL     1      -4.362   3.712  26.531  0.00  0.00    +0.031 A 
ATOM     31  C   UNL     1      -5.854   2.083  24.829  0.00  0.00    +0.040 A 
ATOM     32  C   UNL     1      -5.564   3.160  26.972  0.00  0.00    +0.040 A 
ATOM     33  C   UNL     1      -6.311   2.345  26.121  0.00  0.00    +0.124 A 
ENDBRANCH   1  24
ENDBRANCH  11   1
BRANCH  22  25
ATOM     25  C   UNL     1       0.559  -1.846  23.602  0.00  0.00    +0.267 C 
BRANCH  25   2
ATOM      2  S   UNL     1      -0.181  -2.291  25.126  0.00  0.00    +0.005 S 
ATOM      9  O   UNL     1       0.263  -1.369  26.163  0.00  0.00    -0.169 OA
ATOM     10  O   UNL     1      -0.011  -3.726  25.315  0.00  0.00    -0.169 OA
BRANCH   2  30
ATOM     30  C   UNL     1      -1.909  -1.986  24.885  0.00  0.00    +0.089 A 
ATOM     34  C   UNL     1      -2.621  -2.718  23.934  0.00  0.00    +0.027 A 
ATOM     35  C   UNL     1      -2.558  -1.013  25.644  0.00  0.00    +0.027 A 
ATOM     36  C   UNL     1      -3.981  -2.476  23.743  0.00  0.00    +0.002 A 
ATOM     37  C   UNL     1      -3.919  -0.771  25.454  0.00  0.00    +0.002 A 
ATOM     38  C   UNL     1      -4.631  -1.504  24.503  0.00  0.00    +0.000 A 
ENDBRANCH   2  30
ENDBRANCH  25   2
ENDBRANCH  22  25
TORSDOF 7
ENDMDL
MODEL 6
REMARK VINA RESULT:      10.8      2.182      6.718
REMARK  Name = 7674049
REMARK  7 active torsions:
REMARK  status: ('A' for Active; 'I' for Inactive)
REMARK    1  A    between atoms: S_1  and  N_11
REMARK    2  A    between atoms: S_1  and  C_24
REMARK    3  A    between atoms: S_2  and  C_25
REMARK    4  A    between atoms: S_2  and  C_30
REMARK    5  A    between atoms: N_13  and  C_20
REMARK    6  A    between atoms: C_15  and  C_19
REMARK    7  A    between atoms: C_22  and  C_25
REMARK                            x       y       z     vdW  Elec       q    Type
REMARK                         _______ _______ _______ _____ _____    ______ ____
ROOT
ATOM      7  O   UNL     1       1.283  -0.299  21.340  0.00  0.00    -0.274 OA
ATOM     11  N   UNL     1      -2.470  -0.682  24.643  0.00  0.00    -0.162 NA
ATOM     12  N   UNL     1       0.032  -0.793  23.238  0.00  0.00    -0.297 N 
ATOM     15  C   UNL     1      -2.431  -0.412  23.178  0.00  0.00    +0.183 C 
ATOM     16  C   UNL     1      -1.206  -1.010  22.490  0.00  0.00    +0.138 C 
ATOM     17  C   UNL     1      -1.373  -1.549  25.146  0.00  0.00    +0.129 C 
ATOM     18  C   UNL     1      -0.038  -0.977  24.690  0.00  0.00    +0.125 C 
ATOM     22  C   UNL     1       1.206  -0.458  22.561  0.00  0.00    +0.237 C 
ENDROOT
BRANCH  15  19
ATOM      6  O   UNL     1      -3.278   1.681  22.412  0.00  0.00    -0.274 OA
ATOM     13  N   UNL     1      -1.395   1.658  23.780  0.00  0.00    -0.303 N 
ATOM     19  C   UNL     1      -2.436   1.080  23.076  0.00  0.00    +0.234 C 
ATOM     39  H   UNL     1      -0.775   1.062  24.323  0.00  0.00    +0.149 HD
BRANCH  13  20
ATOM      8  O   UNL     1       0.428   2.616  25.577  0.00  0.00    -0.274 OA
ATOM     14  N   UNL     1      -0.622   4.644  25.651  0.00  0.00    -0.314 N 
ATOM     20  C   UNL     1      -1.166   3.078  23.824  0.00  0.00    +0.159 C 
ATOM     21  C   UNL     1      -2.472   3.845  23.663  0.00  0.00    +0.033 C 
ATOM     23  C   UNL     1      -2.224   5.328  23.888  0.00  0.00    +0.021 C 
ATOM     26  C   UNL     1      -0.408   3.393  25.110  0.00  0.00    +0.233 C 
ATOM     27  C   UNL     1      -1.712   5.536  25.300  0.00  0.00    +0.104 C 
ATOM     40  H   UNL     1      -0.079   4.885  26.475  0.00  0.00    +0.149 HD
ENDBRANCH  13  20
ENDBRANCH  15  19
BRANCH  11   1
ATOM      1  S   UNL     1      -4.013  -0.943  25.335  0.00  0.00    +0.062 S 
ATOM      4  O   UNL     1      -3.850  -1.408  26.696  0.00  0.00    -0.153 OA
ATOM      5  O   UNL     1      -4.835  -1.673  24.392  0.00  0.00    -0.153 OA
BRANCH   1  24
ATOM      3  F   UNL     1      -5.995   4.605  25.550  0.00  0.00    -0.205 F 
ATOM     24  C   UNL     1      -4.607   0.719  25.399  0.00  0.00    +0.106 A 
ATOM     28  C   UNL     1      -3.805   1.725  25.938  0.00  0.00    +0.031 A 
ATOM     29  C   UNL     1      -5.877   1.025  24.912  0.00  0.00    +0.031 A 
ATOM     31  C   UNL     1      -4.274   3.038  25.988  0.00  0.00    +0.040 A 
ATOM     32  C   UNL     1      -6.346   2.338  24.963  0.00  0.00    +0.040 A 
ATOM     33  C   UNL     1      -5.545   3.344  25.500  0.00  0.00    +0.124 A 
ENDBRANCH   1  24
ENDBRANCH  11   1
BRANCH  22  25
ATOM     25  C   UNL     1       2.440  -0.291  23.414  0.00  0.00    +0.267 C 
BRANCH  25   2
ATOM      2  S   UNL     1       3.618   0.665  22.539  0.00  0.00    +0.005 S 
ATOM      9  O   UNL     1       3.492   2.062  22.936  0.00  0.00    -0.169 OA
ATOM     10  O   UNL     1       3.544   0.306  21.129  0.00  0.00    -0.169 OA
BRANCH   2  30
ATOM     30  C   UNL     1       5.183   0.106  23.151  0.00  0.00    +0.089 A 
ATOM     34  C   UNL     1       6.219  -0.180  22.261  0.00  0.00    +0.027 A 
ATOM     35  C   UNL     1       5.381  -0.050  24.523  0.00  0.00    +0.027 A 
ATOM     36  C   UNL     1       7.451  -0.622  22.743  0.00  0.00    +0.002 A 
ATOM     37  C   UNL     1       6.613  -0.492  25.005  0.00  0.00    +0.002 A 
ATOM     38  C   UNL     1       7.649  -0.778  24.114  0.00  0.00    +0.000 A 
ENDBRANCH   2  30
ENDBRANCH  25   2
ENDBRANCH  22  25
TORSDOF 7
ENDMDL
MODEL 7
REMARK VINA RESULT:      10.8      3.080      6.113
REMARK  Name = 7674049
REMARK  7 active torsions:
REMARK  status: ('A' for Active; 'I' for Inactive)
REMARK    1  A    between atoms: S_1  and  N_11
REMARK    2  A    between atoms: S_1  and  C_24
REMARK    3  A    between atoms: S_2  and  C_25
REMARK    4  A    between atoms: S_2  and  C_30
REMARK    5  A    between atoms: N_13  and  C_20
REMARK    6  A    between atoms: C_15  and  C_19
REMARK    7  A    between atoms: C_22  and  C_25
REMARK                            x       y       z     vdW  Elec       q    Type
REMARK                         _______ _______ _______ _____ _____    ______ ____
ROOT
ATOM      7  O   UNL     1      -1.919  -0.737  27.315  0.00  0.00    -0.274 OA
ATOM     11  N   UNL     1       0.246  -0.896  22.795  0.00  0.00    -0.162 NA
ATOM     12  N   UNL     1      -1.359  -1.331  25.136  0.00  0.00    -0.297 N 
ATOM     15  C   UNL     1       0.650  -0.287  24.093  0.00  0.00    +0.183 C 
ATOM     16  C   UNL     1       0.057  -1.004  25.303  0.00  0.00    +0.138 C 
ATOM     17  C   UNL     1      -0.576  -2.128  22.914  0.00  0.00    +0.129 C 
ATOM     18  C   UNL     1      -1.762  -1.848  23.826  0.00  0.00    +0.125 C 
ATOM     22  C   UNL     1      -2.242  -1.171  26.206  0.00  0.00    +0.237 C 
ENDROOT
BRANCH  15  19
ATOM      6  O   UNL     1      -0.430   1.547  23.018  0.00  0.00    -0.274 OA
ATOM     13  N   UNL     1       0.487   1.859  25.135  0.00  0.00    -0.303 N 
ATOM     19  C   UNL     1       0.165   1.125  24.007  0.00  0.00    +0.234 C 
ATOM     39  H   UNL     1       0.954   1.396  25.910  0.00  0.00    +0.149 HD
BRANCH  13  20
ATOM      8  O   UNL     1      -1.289   2.545  27.097  0.00  0.00    -0.274 OA
ATOM     14  N   UNL     1      -1.915   4.422  25.956  0.00  0.00    -0.314 N 
ATOM     20  C   UNL     1       0.151   3.250  25.292  0.00  0.00    +0.159 C 
ATOM     21  C   UNL     1       0.007   3.930  23.937  0.00  0.00    +0.033 C 
ATOM     23  C   UNL     1      -0.517   5.345  24.130  0.00  0.00    +0.021 C 
ATOM     26  C   UNL     1      -1.091   3.338  26.174  0.00  0.00    +0.233 C 
ATOM     27  C   UNL     1      -1.882   5.282  24.788  0.00  0.00    +0.104 C 
ATOM     40  H   UNL     1      -2.714   4.522  26.575  0.00  0.00    +0.149 HD
ENDBRANCH  13  20
ENDBRANCH  15  19
BRANCH  11   1
ATOM      1  S   UNL     1       1.416  -0.890  21.546  0.00  0.00    +0.062 S 
ATOM      4  O   UNL     1       1.166   0.233  20.668  0.00  0.00    -0.153 OA
ATOM      5  O   UNL     1       1.551  -2.232  21.020  0.00  0.00    -0.153 OA
BRANCH   1  24
ATOM      3  F   UNL     1       6.260   0.322  24.680  0.00  0.00    -0.205 F 
ATOM     24  C   UNL     1       2.867  -0.527  22.485  0.00  0.00    +0.106 A 
ATOM     28  C   UNL     1       3.443  -1.512  23.288  0.00  0.00    +0.031 A 
ATOM     29  C   UNL     1       3.437   0.744  22.424  0.00  0.00    +0.031 A 
ATOM     31  C   UNL     1       4.589  -1.226  24.029  0.00  0.00    +0.040 A 
ATOM     32  C   UNL     1       4.583   1.031  23.165  0.00  0.00    +0.040 A 
ATOM     33  C   UNL     1       5.160   0.046  23.967  0.00  0.00    +0.124 A 
ENDBRANCH   1  24
ENDBRANCH  11   1
BRANCH  22  25
ATOM     25  C   UNL     1      -3.674  -1.570  25.948  0.00  0.00    +0.267 C 
BRANCH  25   2
ATOM      2  S   UNL     1      -4.219  -0.824  24.460  0.00  0.00    +0.005 S 
ATOM      9  O   UNL     1      -5.410  -1.515  23.984  0.00  0.00    -0.169 OA
ATOM     10  O   UNL     1      -3.071  -0.674  23.576  0.00  0.00    -0.169 OA
BRANCH   2  30
ATOM     30  C   UNL     1      -4.737   0.800  24.943  0.00  0.00    +0.089 A 
ATOM     34  C   UNL     1      -4.155   1.923  24.353  0.00  0.00    +0.027 A 
ATOM     35  C   UNL     1      -5.726   0.957  25.914  0.00  0.00    +0.027 A 
ATOM     36  C   UNL     1      -4.561   3.201  24.735  0.00  0.00    +0.002 A 
ATOM     37  C   UNL     1      -6.133   2.236  26.296  0.00  0.00    +0.002 A 
ATOM     38  C   UNL     1      -5.550   3.358  25.705  0.00  0.00    +0.000 A 
ENDBRANCH   2  30
ENDBRANCH  25   2
ENDBRANCH  22  25
TORSDOF 7
ENDMDL
