MODEL 1
REMARK VINA RESULT:      10.5      0.000      0.000
REMARK  Name = 28960230
REMARK  11 active torsions:
REMARK  status: ('A' for Active; 'I' for Inactive)
REMARK    1  A    between atoms: N_2  and  C_15
REMARK    2  A    between atoms: N_3  and  C_8
REMARK    3  A    between atoms: N_5  and  C_27
REMARK    4  A    between atoms: C_6  and  C_9
REMARK    5  A    between atoms: C_12  and  C_16
REMARK    6  A    between atoms: C_13  and  C_18
REMARK    7  A    between atoms: C_14  and  C_17
REMARK    8  A    between atoms: C_14  and  C_24
REMARK    9  A    between atoms: C_14  and  C_25
REMARK   10  A    between atoms: C_14  and  C_26
REMARK   11  A    between atoms: C_27  and  C_28
REMARK                            x       y       z     vdW  Elec       q    Type
REMARK                         _______ _______ _______ _____ _____    ______ ____
ROOT
ATOM      2  N   UNL     1      -0.864   0.835  23.578  0.00  0.00    -0.236 N 
ATOM      4  N   UNL     1      -0.787  -0.016  22.540  0.00  0.00    -0.171 NA
ATOM      9  C   UNL     1       1.286   0.609  23.268  0.00  0.00    +0.003 A 
ATOM     12  C   UNL     1       0.349   1.239  24.051  0.00  0.00    +0.046 A 
ATOM     13  C   UNL     1       0.529  -0.149  22.355  0.00  0.00    +0.064 A 
ATOM     16  C   UNL     1       0.508   2.174  25.184  0.00  0.00    +0.066 C 
ATOM     18  C   UNL     1       1.024  -1.026  21.279  0.00  0.00    +0.068 C 
ENDROOT
BRANCH   2  15
ATOM     15  C   UNL     1      -2.114   1.219  24.067  0.00  0.00    +0.066 A 
ATOM     17  C   UNL     1      -4.611   1.987  25.044  0.00  0.00    -0.042 A 
ATOM     19  C   UNL     1      -2.923   0.289  24.720  0.00  0.00    +0.028 A 
ATOM     20  C   UNL     1      -2.553   2.531  23.902  0.00  0.00    +0.028 A 
ATOM     22  C   UNL     1      -4.171   0.673  25.209  0.00  0.00    +0.006 A 
ATOM     23  C   UNL     1      -3.803   2.916  24.391  0.00  0.00    +0.006 A 
BRANCH  17  14
ATOM     14  C   UNL     1      -5.946   2.397  25.567  0.00  0.00    -0.013 C 
ATOM     24  C   UNL     1      -6.327   1.813  26.968  0.00  0.00    +0.015 C 
ATOM     25  C   UNL     1      -6.041   3.946  25.724  0.00  0.00    +0.015 C 
ATOM     26  C   UNL     1      -7.092   1.950  24.607  0.00  0.00    +0.015 C 
ENDBRANCH  17  14
ENDBRANCH   2  15
BRANCH   9   6
ATOM      6  C   UNL     1       2.791   0.712  23.366  0.00  0.00    +0.047 C 
ATOM      7  C   UNL     1       3.481  -0.649  23.578  0.00  0.00    +0.039 C 
ATOM      8  C   UNL     1       4.825  -0.568  22.835  0.00  0.00    +0.098 C 
ATOM     10  C   UNL     1       3.467   1.222  22.129  0.00  0.00    -0.021 C 
ATOM     11  C   UNL     1       4.576   0.530  21.847  0.00  0.00    -0.009 C 
BRANCH   8   3
ATOM      1  O   UNL     1       7.664  -0.692  22.258  0.00  0.00    -0.253 OA
ATOM      3  N   UNL     1       5.927  -0.238  23.732  0.00  0.00    -0.293 N 
ATOM      5  N   UNL     1       8.113   0.045  24.412  0.00  0.00    -0.300 N 
ATOM     21  C   UNL     1       7.273  -0.328  23.366  0.00  0.00    +0.300 C 
ATOM     29  H   UNL     1       5.708   0.035  24.686  0.00  0.00    +0.151 HD
ATOM     30  H   UNL     1       7.699   0.343  25.289  0.00  0.00    +0.150 HD
BRANCH   5  27
ATOM     27  C   UNL     1       9.553   0.042  24.298  0.00  0.00    +0.102 C 
ATOM     28  C   UNL     1      10.000   0.435  22.905  0.00  0.00    +0.024 C 
ENDBRANCH   5  27
ENDBRANCH   8   3
ENDBRANCH   9   6
TORSDOF 5
ENDMDL
MODEL 2
REMARK VINA RESULT:      11.6      3.421      9.852
REMARK  Name = 28960230
REMARK  11 active torsions:
REMARK  status: ('A' for Active; 'I' for Inactive)
REMARK    1  A    between atoms: N_2  and  C_15
REMARK    2  A    between atoms: N_3  and  C_8
REMARK    3  A    between atoms: N_5  and  C_27
REMARK    4  A    between atoms: C_6  and  C_9
REMARK    5  A    between atoms: C_12  and  C_16
REMARK    6  A    between atoms: C_13  and  C_18
REMARK    7  A    between atoms: C_14  and  C_17
REMARK    8  A    between atoms: C_14  and  C_24
REMARK    9  A    between atoms: C_14  and  C_25
REMARK   10  A    between atoms: C_14  and  C_26
REMARK   11  A    between atoms: C_27  and  C_28
REMARK                            x       y       z     vdW  Elec       q    Type
REMARK                         _______ _______ _______ _____ _____    ______ ____
ROOT
ATOM      2  N   UNL     1       0.540  -0.162  23.804  0.00  0.00    -0.236 N 
ATOM      4  N   UNL     1      -0.178  -1.299  23.776  0.00  0.00    -0.171 NA
ATOM      9  C   UNL     1      -1.521   0.536  23.997  0.00  0.00    +0.003 A 
ATOM     12  C   UNL     1      -0.217   0.964  23.935  0.00  0.00    +0.046 A 
ATOM     13  C   UNL     1      -1.435  -0.865  23.895  0.00  0.00    +0.064 A 
ATOM     16  C   UNL     1       0.356   2.325  23.991  0.00  0.00    +0.066 C 
ATOM     18  C   UNL     1      -2.539  -1.842  23.905  0.00  0.00    +0.068 C 
ENDROOT
BRANCH   2  15
ATOM     15  C   UNL     1       1.931  -0.219  23.702  0.00  0.00    +0.066 A 
ATOM     17  C   UNL     1       4.711  -0.331  23.497  0.00  0.00    -0.042 A 
ATOM     19  C   UNL     1       2.607  -1.392  24.035  0.00  0.00    +0.028 A 
ATOM     20  C   UNL     1       2.644   0.897  23.267  0.00  0.00    +0.028 A 
ATOM     22  C   UNL     1       3.997  -1.449  23.932  0.00  0.00    +0.006 A 
ATOM     23  C   UNL     1       4.034   0.842  23.164  0.00  0.00    +0.006 A 
BRANCH  17  14
ATOM     14  C   UNL     1       6.196  -0.392  23.387  0.00  0.00    -0.013 C 
ATOM     24  C   UNL     1       6.749  -0.853  21.997  0.00  0.00    +0.015 C 
ATOM     25  C   UNL     1       6.841   1.005  23.647  0.00  0.00    +0.015 C 
ATOM     26  C   UNL     1       6.800  -1.389  24.425  0.00  0.00    +0.015 C 
ENDBRANCH  17  14
ENDBRANCH   2  15
BRANCH   9   6
ATOM      6  C   UNL     1      -2.765   1.382  24.144  0.00  0.00    +0.047 C 
ATOM      7  C   UNL     1      -2.566   2.599  25.067  0.00  0.00    +0.039 C 
ATOM      8  C   UNL     1      -3.445   3.722  24.490  0.00  0.00    +0.098 C 
ATOM     10  C   UNL     1      -3.243   2.020  22.874  0.00  0.00    -0.021 C 
ATOM     11  C   UNL     1      -3.619   3.289  23.067  0.00  0.00    -0.009 C 
BRANCH   8   3
ATOM      1  O   UNL     1      -4.970   1.568  25.693  0.00  0.00    -0.253 OA
ATOM      3  N   UNL     1      -4.728   3.821  25.177  0.00  0.00    -0.293 N 
ATOM      5  N   UNL     1      -6.595   3.099  26.325  0.00  0.00    -0.300 N 
ATOM     21  C   UNL     1      -5.394   2.723  25.730  0.00  0.00    +0.300 C 
ATOM     29  H   UNL     1      -5.182   4.728  25.225  0.00  0.00    +0.151 HD
ATOM     30  H   UNL     1      -6.858   4.080  26.316  0.00  0.00    +0.150 HD
BRANCH   5  27
ATOM     27  C   UNL     1      -7.478   2.157  26.970  0.00  0.00    +0.102 C 
ATOM     28  C   UNL     1      -6.703   1.082  27.703  0.00  0.00    +0.024 C 
ENDBRANCH   5  27
ENDBRANCH   8   3
ENDBRANCH   9   6
TORSDOF 5
ENDMDL
MODEL 3
REMARK VINA RESULT:      11.7      1.484      2.084
REMARK  Name = 28960230
REMARK  11 active torsions:
REMARK  status: ('A' for Active; 'I' for Inactive)
REMARK    1  A    between atoms: N_2  and  C_15
REMARK    2  A    between atoms: N_3  and  C_8
REMARK    3  A    between atoms: N_5  and  C_27
REMARK    4  A    between atoms: C_6  and  C_9
REMARK    5  A    between atoms: C_12  and  C_16
REMARK    6  A    between atoms: C_13  and  C_18
REMARK    7  A    between atoms: C_14  and  C_17
REMARK    8  A    between atoms: C_14  and  C_24
REMARK    9  A    between atoms: C_14  and  C_25
REMARK   10  A    between atoms: C_14  and  C_26
REMARK   11  A    between atoms: C_27  and  C_28
REMARK                            x       y       z     vdW  Elec       q    Type
REMARK                         _______ _______ _______ _____ _____    ______ ____
ROOT
ATOM      2  N   UNL     1      -1.277   0.166  24.751  0.00  0.00    -0.236 N 
ATOM      4  N   UNL     1      -1.066  -1.122  25.076  0.00  0.00    -0.171 NA
ATOM      9  C   UNL     1       0.822  -0.148  24.235  0.00  0.00    +0.003 A 
ATOM     12  C   UNL     1      -0.178   0.794  24.244  0.00  0.00    +0.046 A 
ATOM     13  C   UNL     1       0.218  -1.307  24.758  0.00  0.00    +0.064 A 
ATOM     16  C   UNL     1      -0.177   2.208  23.816  0.00  0.00    +0.066 C 
ATOM     18  C   UNL     1       0.834  -2.628  24.975  0.00  0.00    +0.068 C 
ENDROOT
BRANCH   2  15
ATOM     15  C   UNL     1      -2.538   0.732  24.948  0.00  0.00    +0.066 A 
ATOM     17  C   UNL     1      -5.057   1.862  25.342  0.00  0.00    -0.042 A 
ATOM     19  C   UNL     1      -2.666   2.112  25.099  0.00  0.00    +0.028 A 
ATOM     20  C   UNL     1      -3.668  -0.083  24.994  0.00  0.00    +0.028 A 
ATOM     22  C   UNL     1      -3.926   2.677  25.296  0.00  0.00    +0.006 A 
ATOM     23  C   UNL     1      -4.929   0.481  25.191  0.00  0.00    +0.006 A 
BRANCH  17  14
ATOM     14  C   UNL     1      -6.404   2.466  25.552  0.00  0.00    -0.013 C 
ATOM     24  C   UNL     1      -6.438   4.030  25.598  0.00  0.00    +0.015 C 
ATOM     25  C   UNL     1      -7.390   2.064  24.412  0.00  0.00    +0.015 C 
ATOM     26  C   UNL     1      -7.030   1.998  26.902  0.00  0.00    +0.015 C 
ENDBRANCH  17  14
ENDBRANCH   2  15
BRANCH   9   6
ATOM      6  C   UNL     1       2.249   0.025  23.767  0.00  0.00    +0.047 C 
ATOM      7  C   UNL     1       2.500  -0.544  22.358  0.00  0.00    +0.039 C 
ATOM      8  C   UNL     1       3.547   0.374  21.706  0.00  0.00    +0.098 C 
ATOM     10  C   UNL     1       2.692   1.450  23.619  0.00  0.00    -0.021 C 
ATOM     11  C   UNL     1       3.404   1.635  22.501  0.00  0.00    -0.009 C 
BRANCH   8   3
ATOM      1  O   UNL     1       5.453   0.789  23.851  0.00  0.00    -0.253 OA
ATOM      3  N   UNL     1       4.895  -0.172  21.811  0.00  0.00    -0.293 N 
ATOM      5  N   UNL     1       6.974  -0.562  22.734  0.00  0.00    -0.300 N 
ATOM     21  C   UNL     1       5.749   0.082  22.888  0.00  0.00    +0.300 C 
ATOM     29  H   UNL     1       5.249  -0.736  21.044  0.00  0.00    +0.151 HD
ATOM     30  H   UNL     1       7.124  -1.134  21.909  0.00  0.00    +0.150 HD
BRANCH   5  27
ATOM     27  C   UNL     1       8.037  -0.464  23.706  0.00  0.00    +0.102 C 
ATOM     28  C   UNL     1       9.344  -0.059  23.059  0.00  0.00    +0.024 C 
ENDBRANCH   5  27
ENDBRANCH   8   3
ENDBRANCH   9   6
TORSDOF 5
ENDMDL
MODEL 4
REMARK VINA RESULT:      12.5      3.493      9.776
REMARK  Name = 28960230
REMARK  11 active torsions:
REMARK  status: ('A' for Active; 'I' for Inactive)
REMARK    1  A    between atoms: N_2  and  C_15
REMARK    2  A    between atoms: N_3  and  C_8
REMARK    3  A    between atoms: N_5  and  C_27
REMARK    4  A    between atoms: C_6  and  C_9
REMARK    5  A    between atoms: C_12  and  C_16
REMARK    6  A    between atoms: C_13  and  C_18
REMARK    7  A    between atoms: C_14  and  C_17
REMARK    8  A    between atoms: C_14  and  C_24
REMARK    9  A    between atoms: C_14  and  C_25
REMARK   10  A    between atoms: C_14  and  C_26
REMARK   11  A    between atoms: C_27  and  C_28
REMARK                            x       y       z     vdW  Elec       q    Type
REMARK                         _______ _______ _______ _____ _____    ______ ____
ROOT
ATOM      2  N   UNL     1       0.148  -0.671  24.076  0.00  0.00    -0.236 N 
ATOM      4  N   UNL     1      -0.473  -1.821  23.761  0.00  0.00    -0.171 NA
ATOM      9  C   UNL     1      -1.941  -0.271  24.574  0.00  0.00    +0.003 A 
ATOM     12  C   UNL     1      -0.687   0.289  24.567  0.00  0.00    +0.046 A 
ATOM     13  C   UNL     1      -1.748  -1.571  24.068  0.00  0.00    +0.064 A 
ATOM     16  C   UNL     1      -0.226   1.631  24.982  0.00  0.00    +0.066 C 
ATOM     18  C   UNL     1      -2.763  -2.618  23.856  0.00  0.00    +0.068 C 
ENDROOT
BRANCH   2  15
ATOM     15  C   UNL     1       1.526  -0.553  23.887  0.00  0.00    +0.066 A 
ATOM     17  C   UNL     1       4.279  -0.319  23.509  0.00  0.00    -0.042 A 
ATOM     19  C   UNL     1       2.062   0.633  23.387  0.00  0.00    +0.028 A 
ATOM     20  C   UNL     1       2.365  -1.622  24.198  0.00  0.00    +0.028 A 
ATOM     22  C   UNL     1       3.439   0.750  23.198  0.00  0.00    +0.006 A 
ATOM     23  C   UNL     1       3.743  -1.505  24.009  0.00  0.00    +0.006 A 
BRANCH  17  14
ATOM     14  C   UNL     1       5.751  -0.193  23.307  0.00  0.00    -0.013 C 
ATOM     24  C   UNL     1       6.255  -0.465  21.851  0.00  0.00    +0.015 C 
ATOM     25  C   UNL     1       6.250   1.244  23.656  0.00  0.00    +0.015 C 
ATOM     26  C   UNL     1       6.534  -1.195  24.211  0.00  0.00    +0.015 C 
ENDBRANCH  17  14
ENDBRANCH   2  15
BRANCH   9   6
ATOM      6  C   UNL     1      -3.235   0.366  25.025  0.00  0.00    +0.047 C 
ATOM      7  C   UNL     1      -4.082   0.916  23.861  0.00  0.00    +0.039 C 
ATOM      8  C   UNL     1      -5.551   0.716  24.269  0.00  0.00    +0.098 C 
ATOM     10  C   UNL     1      -4.193  -0.569  25.701  0.00  0.00    -0.021 C 
ATOM     11  C   UNL     1      -5.451  -0.371  25.293  0.00  0.00    -0.009 C 
BRANCH   8   3
ATOM      1  O   UNL     1      -4.188   3.200  24.886  0.00  0.00    -0.253 OA
ATOM      3  N   UNL     1      -6.132   1.929  24.833  0.00  0.00    -0.293 N 
ATOM      5  N   UNL     1      -6.195   4.092  25.634  0.00  0.00    -0.300 N 
ATOM     21  C   UNL     1      -5.394   3.086  25.098  0.00  0.00    +0.300 C 
ATOM     29  H   UNL     1      -7.116   1.923  25.083  0.00  0.00    +0.151 HD
ATOM     30  H   UNL     1      -7.185   3.910  25.764  0.00  0.00    +0.150 HD
BRANCH   5  27
ATOM     27  C   UNL     1      -5.680   5.391  25.998  0.00  0.00    +0.102 C 
ATOM     28  C   UNL     1      -4.209   5.327  26.350  0.00  0.00    +0.024 C 
ENDBRANCH   5  27
ENDBRANCH   8   3
ENDBRANCH   9   6
TORSDOF 5
ENDMDL
