MODEL 1
REMARK VINA RESULT:       8.5      0.000      0.000
REMARK  Name = 75536992
REMARK  4 active torsions:
REMARK  status: ('A' for Active; 'I' for Inactive)
REMARK    1  A    between atoms: N_8  and  C_16
REMARK    2  A    between atoms: C_16  and  C_18
REMARK    3  A    between atoms: C_17  and  C_19
REMARK    4  A    between atoms: C_28  and  C_30
REMARK                            x       y       z     vdW  Elec       q    Type
REMARK                         _______ _______ _______ _____ _____    ______ ____
ROOT
ATOM      5  O   UNL     1       2.560  -1.779  23.450  0.00  0.00    -0.252 OA
ATOM      6  O   UNL     1      -3.927  -1.306  26.002  0.00  0.00    -0.270 OA
ATOM      7  N   UNL     1       0.524  -0.822  24.126  0.00  0.00    -0.278 N 
ATOM      8  N   UNL     1       1.938   0.430  22.907  0.00  0.00    -0.279 N 
ATOM      9  N   UNL     1      -2.219  -0.650  24.549  0.00  0.00    -0.294 N 
ATOM     10  C   UNL     1      -0.099   0.490  24.076  0.00  0.00    +0.112 C 
ATOM     11  C   UNL     1       0.758   1.261  23.074  0.00  0.00    +0.133 C 
ATOM     12  C   UNL     1      -1.570   0.362  23.693  0.00  0.00    +0.132 C 
ATOM     13  C   UNL     1      -0.113  -1.896  24.869  0.00  0.00    +0.128 C 
ATOM     14  C   UNL     1      -1.593  -1.980  24.504  0.00  0.00    +0.127 C 
ATOM     15  C   UNL     1       1.774  -0.842  23.493  0.00  0.00    +0.306 C 
ATOM     17  C   UNL     1      -3.361  -0.450  25.323  0.00  0.00    +0.247 C 
ENDROOT
BRANCH  17  19
ATOM     19  C   UNL     1      -3.949   0.897  25.353  0.00  0.00    +0.037 A 
ATOM     22  C   UNL     1      -5.334   1.055  25.300  0.00  0.00    +0.013 A 
ATOM     23  C   UNL     1      -3.122   2.017  25.433  0.00  0.00    +0.013 A 
ATOM     26  C   UNL     1      -5.891   2.334  25.327  0.00  0.00    +0.013 A 
ATOM     27  C   UNL     1      -3.678   3.295  25.460  0.00  0.00    +0.013 A 
ATOM     28  C   UNL     1      -5.063   3.454  25.407  0.00  0.00    +0.055 A 
BRANCH  28  30
ATOM      2  F   UNL     1      -5.471   5.525  24.282  0.00  0.00    -0.166 F 
ATOM      3  F   UNL     1      -7.010   4.823  25.639  0.00  0.00    -0.166 F 
ATOM      4  F   UNL     1      -5.139   5.599  26.429  0.00  0.00    -0.166 F 
ATOM     30  C   UNL     1      -5.659   4.820  25.436  0.00  0.00    +0.417 C 
ENDBRANCH  28  30
ENDBRANCH  17  19
BRANCH   8  16
ATOM     16  C   UNL     1       3.065   0.853  22.109  0.00  0.00    +0.144 C 
BRANCH  16  18
ATOM      1  F   UNL     1       7.977  -0.535  24.487  0.00  0.00    -0.205 F 
ATOM     18  C   UNL     1       4.374   0.482  22.743  0.00  0.00    -0.030 A 
ATOM     20  C   UNL     1       5.318  -0.249  22.021  0.00  0.00    +0.008 A 
ATOM     21  C   UNL     1       4.649   0.870  24.055  0.00  0.00    +0.008 A 
ATOM     24  C   UNL     1       6.534  -0.592  22.609  0.00  0.00    +0.038 A 
ATOM     25  C   UNL     1       5.866   0.526  24.644  0.00  0.00    +0.038 A 
ATOM     29  C   UNL     1       6.808  -0.205  23.921  0.00  0.00    +0.123 A 
ENDBRANCH  16  18
ENDBRANCH   8  16
TORSDOF 4
ENDMDL
MODEL 2
REMARK VINA RESULT:      11.2      1.753      2.437
REMARK  Name = 75536992
REMARK  4 active torsions:
REMARK  status: ('A' for Active; 'I' for Inactive)
REMARK    1  A    between atoms: N_8  and  C_16
REMARK    2  A    between atoms: C_16  and  C_18
REMARK    3  A    between atoms: C_17  and  C_19
REMARK    4  A    between atoms: C_28  and  C_30
REMARK                            x       y       z     vdW  Elec       q    Type
REMARK                         _______ _______ _______ _____ _____    ______ ____
ROOT
ATOM      5  O   UNL     1       0.615  -2.902  25.220  0.00  0.00    -0.252 OA
ATOM      6  O   UNL     1      -5.075   0.957  26.464  0.00  0.00    -0.270 OA
ATOM      7  N   UNL     1      -0.890  -1.100  25.118  0.00  0.00    -0.278 N 
ATOM      8  N   UNL     1       0.791  -1.171  23.627  0.00  0.00    -0.279 N 
ATOM      9  N   UNL     1      -3.351   0.191  25.085  0.00  0.00    -0.294 N 
ATOM     10  C   UNL     1      -1.002   0.147  24.380  0.00  0.00    +0.112 C 
ATOM     11  C   UNL     1       0.002  -0.014  23.241  0.00  0.00    +0.133 C 
ATOM     12  C   UNL     1      -2.444   0.369  23.934  0.00  0.00    +0.132 C 
ATOM     13  C   UNL     1      -1.816  -1.385  26.201  0.00  0.00    +0.128 C 
ATOM     14  C   UNL     1      -3.249  -1.117  25.748  0.00  0.00    +0.127 C 
ATOM     15  C   UNL     1       0.223  -1.855  24.721  0.00  0.00    +0.306 C 
ATOM     17  C   UNL     1      -4.289   1.122  25.532  0.00  0.00    +0.247 C 
ENDROOT
BRANCH  17  19
ATOM     19  C   UNL     1      -4.351   2.423  24.852  0.00  0.00    +0.037 A 
ATOM     22  C   UNL     1      -3.865   2.554  23.551  0.00  0.00    +0.013 A 
ATOM     23  C   UNL     1      -4.896   3.527  25.507  0.00  0.00    +0.013 A 
ATOM     26  C   UNL     1      -3.923   3.790  22.906  0.00  0.00    +0.013 A 
ATOM     27  C   UNL     1      -4.954   4.762  24.863  0.00  0.00    +0.013 A 
ATOM     28  C   UNL     1      -4.468   4.894  23.562  0.00  0.00    +0.055 A 
BRANCH  28  30
ATOM      2  F   UNL     1      -3.465   7.025  23.143  0.00  0.00    -0.166 F 
ATOM      3  F   UNL     1      -4.568   6.118  21.510  0.00  0.00    -0.166 F 
ATOM      4  F   UNL     1      -5.636   6.936  23.219  0.00  0.00    -0.166 F 
ATOM     30  C   UNL     1      -4.530   6.214  22.873  0.00  0.00    +0.417 C 
ENDBRANCH  28  30
ENDBRANCH  17  19
BRANCH   8  16
ATOM     16  C   UNL     1       1.937  -1.606  22.862  0.00  0.00    +0.144 C 
BRANCH  16  18
ATOM      1  F   UNL     1       6.545   1.396  24.066  0.00  0.00    -0.205 F 
ATOM     18  C   UNL     1       3.165  -0.805  23.184  0.00  0.00    -0.030 A 
ATOM     20  C   UNL     1       4.180  -1.366  23.959  0.00  0.00    +0.008 A 
ATOM     21  C   UNL     1       3.293   0.499  22.706  0.00  0.00    +0.008 A 
ATOM     24  C   UNL     1       5.322  -0.623  24.257  0.00  0.00    +0.038 A 
ATOM     25  C   UNL     1       4.434   1.243  23.005  0.00  0.00    +0.038 A 
ATOM     29  C   UNL     1       5.449   0.681  23.780  0.00  0.00    +0.123 A 
ENDBRANCH  16  18
ENDBRANCH   8  16
TORSDOF 4
ENDMDL
MODEL 3
REMARK VINA RESULT:      12.4      2.303      8.481
REMARK  Name = 75536992
REMARK  4 active torsions:
REMARK  status: ('A' for Active; 'I' for Inactive)
REMARK    1  A    between atoms: N_8  and  C_16
REMARK    2  A    between atoms: C_16  and  C_18
REMARK    3  A    between atoms: C_17  and  C_19
REMARK    4  A    between atoms: C_28  and  C_30
REMARK                            x       y       z     vdW  Elec       q    Type
REMARK                         _______ _______ _______ _____ _____    ______ ____
ROOT
ATOM      5  O   UNL     1      -5.585  -0.117  24.929  0.00  0.00    -0.252 OA
ATOM      6  O   UNL     1       0.427  -3.672  25.104  0.00  0.00    -0.270 OA
ATOM      7  N   UNL     1      -3.305  -0.603  24.639  0.00  0.00    -0.278 N 
ATOM      8  N   UNL     1      -3.985   1.522  24.367  0.00  0.00    -0.279 N 
ATOM      9  N   UNL     1      -0.818  -1.698  25.225  0.00  0.00    -0.294 N 
ATOM     10  C   UNL     1      -2.119   0.106  24.191  0.00  0.00    +0.112 C 
ATOM     11  C   UNL     1      -2.541   1.574  24.219  0.00  0.00    +0.133 C 
ATOM     12  C   UNL     1      -0.931  -0.233  25.087  0.00  0.00    +0.132 C 
ATOM     13  C   UNL     1      -3.240  -2.032  24.892  0.00  0.00    +0.128 C 
ATOM     14  C   UNL     1      -2.022  -2.357  25.754  0.00  0.00    +0.127 C 
ATOM     15  C   UNL     1      -4.437   0.223  24.674  0.00  0.00    +0.306 C 
ATOM     17  C   UNL     1       0.319  -2.457  24.947  0.00  0.00    +0.247 C 
ENDROOT
BRANCH  17  19
ATOM     19  C   UNL     1       1.497  -1.764  24.407  0.00  0.00    +0.037 A 
ATOM     22  C   UNL     1       2.774  -2.276  24.637  0.00  0.00    +0.013 A 
ATOM     23  C   UNL     1       1.338  -0.594  23.666  0.00  0.00    +0.013 A 
ATOM     26  C   UNL     1       3.892  -1.617  24.125  0.00  0.00    +0.013 A 
ATOM     27  C   UNL     1       2.455   0.066  23.154  0.00  0.00    +0.013 A 
ATOM     28  C   UNL     1       3.733  -0.446  23.384  0.00  0.00    +0.055 A 
BRANCH  28  30
ATOM      2  F   UNL     1       5.411   1.237  23.657  0.00  0.00    -0.166 F 
ATOM      3  F   UNL     1       5.991  -0.569  22.606  0.00  0.00    -0.166 F 
ATOM      4  F   UNL     1       4.676   0.871  21.644  0.00  0.00    -0.166 F 
ATOM     30  C   UNL     1       4.928   0.257  22.837  0.00  0.00    +0.417 C 
ENDBRANCH  28  30
ENDBRANCH  17  19
BRANCH   8  16
ATOM     16  C   UNL     1      -4.802   2.714  24.330  0.00  0.00    +0.144 C 
BRANCH  16  18
ATOM      1  F   UNL     1      -1.752   7.383  25.105  0.00  0.00    -0.205 F 
ATOM     18  C   UNL     1      -3.989   3.959  24.537  0.00  0.00    -0.030 A 
ATOM     20  C   UNL     1      -3.270   4.134  25.719  0.00  0.00    +0.008 A 
ATOM     21  C   UNL     1      -3.951   4.941  23.546  0.00  0.00    +0.008 A 
ATOM     24  C   UNL     1      -2.514   5.290  25.911  0.00  0.00    +0.038 A 
ATOM     25  C   UNL     1      -3.196   6.097  23.738  0.00  0.00    +0.038 A 
ATOM     29  C   UNL     1      -2.477   6.272  24.921  0.00  0.00    +0.123 A 
ENDBRANCH  16  18
ENDBRANCH   8  16
TORSDOF 4
ENDMDL
