MODEL 1
REMARK VINA RESULT:      -4.7      0.000      0.000
REMARK  Name = 45783407
REMARK  9 active torsions:
REMARK  status: ('A' for Active; 'I' for Inactive)
REMARK    1  A    between atoms: O_2  and  C_22
REMARK    2  A    between atoms: O_2  and  C_26
REMARK    3  A    between atoms: O_3  and  C_27
REMARK    4  A    between atoms: O_3  and  C_28
REMARK    5  A    between atoms: N_4  and  C_12
REMARK    6  A    between atoms: C_8  and  C_13
REMARK    7  A    between atoms: C_12  and  C_14
REMARK    8  A    between atoms: C_17  and  C_18
REMARK    9  A    between atoms: C_26  and  C_27
REMARK                            x       y       z     vdW  Elec       q    Type
REMARK                         _______ _______ _______ _____ _____    ______ ____
ROOT
ATOM      1  O   UNL     1      -7.246  -9.696  14.738  0.00  0.00    -0.336 OA
ATOM      5  N   UNL     1      -5.764 -10.781  13.456  0.00  0.00    -0.190 NA
ATOM      6  N   UNL     1      -6.015  -9.603  15.401  0.00  0.00    -0.056 NA
ATOM     13  C   UNL     1      -7.009 -10.406  13.604  0.00  0.00    +0.245 A 
ATOM     17  C   UNL     1      -5.193 -10.266  14.583  0.00  0.00    +0.207 A 
ENDROOT
BRANCH  17  18
ATOM      7  N   UNL     1      -1.512 -10.565  14.080  0.00  0.00    -0.221 NA
ATOM     18  C   UNL     1      -3.796 -10.432  14.862  0.00  0.00    +0.084 A 
ATOM     22  C   UNL     1      -2.837 -10.413  13.862  0.00  0.00    +0.226 A 
ATOM     23  C   UNL     1      -3.365 -10.619  16.171  0.00  0.00    +0.018 A 
ATOM     24  C   UNL     1      -2.009 -10.780  16.436  0.00  0.00    +0.021 A 
ATOM     25  C   UNL     1      -1.132 -10.746  15.364  0.00  0.00    +0.114 A 
BRANCH  22   2
ATOM      2  O   UNL     1      -3.213 -10.232  12.555  0.00  0.00    -0.474 OA
BRANCH   2  26
ATOM     26  C   UNL     1      -2.170  -9.980  11.620  0.00  0.00    +0.258 C 
BRANCH  26  27
ATOM     27  C   UNL     1      -2.780  -9.513  10.313  0.00  0.00    +0.200 C 
BRANCH  27   3
ATOM      3  O   UNL     1      -4.121  -9.102  10.546  0.00  0.00    -0.380 OA
ATOM     28  C   UNL     1      -4.797  -8.816   9.330  0.00  0.00    +0.194 C 
ENDBRANCH  27   3
ENDBRANCH  26  27
ENDBRANCH   2  26
ENDBRANCH  22   2
ENDBRANCH  17  18
BRANCH  13   8
ATOM      4  N   UNL     1      -9.355  -9.794  13.040  0.00  0.00    -0.287 NA
ATOM      8  C   UNL     1      -8.199 -10.648  12.698  0.00  0.00    +0.146 C 
ATOM      9  C   UNL     1      -7.898 -10.327  11.222  0.00  0.00    +0.030 C 
ATOM     10  C   UNL     1      -8.972  -9.332  10.805  0.00  0.00    +0.017 C 
ATOM     11  C   UNL     1     -10.092  -9.580  11.795  0.00  0.00    +0.085 C 
BRANCH   4  12
ATOM     12  C   UNL     1     -10.197 -10.359  14.086  0.00  0.00    +0.120 C 
BRANCH  12  14
ATOM     14  C   UNL     1     -10.335  -9.428  15.261  0.00  0.00    -0.033 A 
ATOM     15  C   UNL     1     -10.409  -8.051  15.052  0.00  0.00    +0.005 A 
ATOM     16  C   UNL     1     -10.388  -9.941  16.556  0.00  0.00    +0.005 A 
ATOM     19  C   UNL     1     -10.536  -7.187  16.141  0.00  0.00    +0.000 A 
ATOM     20  C   UNL     1     -10.515  -9.078  17.644  0.00  0.00    +0.000 A 
ATOM     21  C   UNL     1     -10.590  -7.701  17.436  0.00  0.00    +0.000 A 
ENDBRANCH  12  14
ENDBRANCH   4  12
ENDBRANCH  13   8
TORSDOF 8
ENDMDL
MODEL 2
REMARK VINA RESULT:      -3.5     14.407     17.057
REMARK  Name = 45783407
REMARK  9 active torsions:
REMARK  status: ('A' for Active; 'I' for Inactive)
REMARK    1  A    between atoms: O_2  and  C_22
REMARK    2  A    between atoms: O_2  and  C_26
REMARK    3  A    between atoms: O_3  and  C_27
REMARK    4  A    between atoms: O_3  and  C_28
REMARK    5  A    between atoms: N_4  and  C_12
REMARK    6  A    between atoms: C_8  and  C_13
REMARK    7  A    between atoms: C_12  and  C_14
REMARK    8  A    between atoms: C_17  and  C_18
REMARK    9  A    between atoms: C_26  and  C_27
REMARK                            x       y       z     vdW  Elec       q    Type
REMARK                         _______ _______ _______ _____ _____    ______ ____
ROOT
ATOM      1  O   UNL     1      -1.265   1.521  22.623  0.00  0.00    -0.336 OA
ATOM      5  N   UNL     1      -1.825   1.374  24.787  0.00  0.00    -0.190 NA
ATOM      6  N   UNL     1      -2.587   1.976  22.715  0.00  0.00    -0.056 NA
ATOM     13  C   UNL     1      -0.894   1.185  23.886  0.00  0.00    +0.245 A 
ATOM     17  C   UNL     1      -2.845   1.860  24.021  0.00  0.00    +0.207 A 
ENDROOT
BRANCH  17  18
ATOM      7  N   UNL     1      -5.595   3.907  25.482  0.00  0.00    -0.221 NA
ATOM     18  C   UNL     1      -4.110   2.219  24.593  0.00  0.00    +0.084 A 
ATOM     22  C   UNL     1      -4.417   3.524  24.941  0.00  0.00    +0.226 A 
ATOM     23  C   UNL     1      -5.077   1.243  24.812  0.00  0.00    +0.018 A 
ATOM     24  C   UNL     1      -6.302   1.598  25.367  0.00  0.00    +0.021 A 
ATOM     25  C   UNL     1      -6.509   2.931  25.681  0.00  0.00    +0.114 A 
BRANCH  22   2
ATOM      2  O   UNL     1      -3.496   4.522  24.744  0.00  0.00    -0.474 OA
BRANCH   2  26
ATOM     26  C   UNL     1      -2.465   4.640  25.718  0.00  0.00    +0.258 C 
BRANCH  26  27
ATOM     27  C   UNL     1      -1.231   5.228  25.062  0.00  0.00    +0.200 C 
BRANCH  27   3
ATOM      3  O   UNL     1      -0.219   4.231  24.999  0.00  0.00    -0.380 OA
ATOM     28  C   UNL     1      -0.200   3.432  26.173  0.00  0.00    +0.194 C 
ENDBRANCH  27   3
ENDBRANCH  26  27
ENDBRANCH   2  26
ENDBRANCH  22   2
ENDBRANCH  17  18
BRANCH  13   8
ATOM      4  N   UNL     1       0.633  -0.771  23.698  0.00  0.00    -0.287 NA
ATOM      8  C   UNL     1       0.515   0.657  24.058  0.00  0.00    +0.146 C 
ATOM      9  C   UNL     1       1.533   1.374  23.152  0.00  0.00    +0.030 C 
ATOM     10  C   UNL     1       2.217   0.265  22.366  0.00  0.00    +0.017 C 
ATOM     11  C   UNL     1       2.004  -0.965  23.225  0.00  0.00    +0.085 C 
BRANCH   4  12
ATOM     12  C   UNL     1       0.299  -1.669  24.795  0.00  0.00    +0.120 C 
BRANCH  12  14
ATOM     14  C   UNL     1      -1.189  -1.825  24.959  0.00  0.00    -0.033 A 
ATOM     15  C   UNL     1      -1.825  -1.301  26.084  0.00  0.00    +0.005 A 
ATOM     16  C   UNL     1      -1.932  -2.494  23.987  0.00  0.00    +0.005 A 
ATOM     19  C   UNL     1      -3.204  -1.445  26.237  0.00  0.00    +0.000 A 
ATOM     20  C   UNL     1      -3.311  -2.639  24.140  0.00  0.00    +0.000 A 
ATOM     21  C   UNL     1      -3.947  -2.114  25.264  0.00  0.00    +0.000 A 
ENDBRANCH  12  14
ENDBRANCH   4  12
ENDBRANCH  13   8
TORSDOF 8
ENDMDL
MODEL 3
REMARK VINA RESULT:      -3.0     14.273     16.306
REMARK  Name = 45783407
REMARK  9 active torsions:
REMARK  status: ('A' for Active; 'I' for Inactive)
REMARK    1  A    between atoms: O_2  and  C_22
REMARK    2  A    between atoms: O_2  and  C_26
REMARK    3  A    between atoms: O_3  and  C_27
REMARK    4  A    between atoms: O_3  and  C_28
REMARK    5  A    between atoms: N_4  and  C_12
REMARK    6  A    between atoms: C_8  and  C_13
REMARK    7  A    between atoms: C_12  and  C_14
REMARK    8  A    between atoms: C_17  and  C_18
REMARK    9  A    between atoms: C_26  and  C_27
REMARK                            x       y       z     vdW  Elec       q    Type
REMARK                         _______ _______ _______ _____ _____    ______ ____
ROOT
ATOM      1  O   UNL     1      -3.163   2.599  22.298  0.00  0.00    -0.336 OA
ATOM      5  N   UNL     1      -2.279   1.389  23.963  0.00  0.00    -0.190 NA
ATOM      6  N   UNL     1      -1.859   2.281  21.898  0.00  0.00    -0.056 NA
ATOM     13  C   UNL     1      -3.328   2.037  23.524  0.00  0.00    +0.245 A 
ATOM     17  C   UNL     1      -1.403   1.566  22.932  0.00  0.00    +0.207 A 
ENDROOT
BRANCH  17  18
ATOM      7  N   UNL     1       2.191   1.090  23.795  0.00  0.00    -0.221 NA
ATOM     18  C   UNL     1      -0.078   1.017  22.965  0.00  0.00    +0.084 A 
ATOM     22  C   UNL     1       0.931   1.575  23.733  0.00  0.00    +0.226 A 
ATOM     23  C   UNL     1       0.226  -0.112  22.213  0.00  0.00    +0.018 A 
ATOM     24  C   UNL     1       1.512  -0.640  22.250  0.00  0.00    +0.021 A 
ATOM     25  C   UNL     1       2.449  -0.007  23.049  0.00  0.00    +0.114 A 
BRANCH  22   2
ATOM      2  O   UNL     1       0.679   2.690  24.493  0.00  0.00    -0.474 OA
BRANCH   2  26
ATOM     26  C   UNL     1       0.138   2.470  25.790  0.00  0.00    +0.258 C 
BRANCH  26  27
ATOM     27  C   UNL     1      -1.003   3.441  26.021  0.00  0.00    +0.200 C 
BRANCH  27   3
ATOM      3  O   UNL     1      -1.005   4.411  24.981  0.00  0.00    -0.380 OA
ATOM     28  C   UNL     1      -1.903   5.475  25.262  0.00  0.00    +0.194 C 
ENDBRANCH  27   3
ENDBRANCH  26  27
ENDBRANCH   2  26
ENDBRANCH  22   2
ENDBRANCH  17  18
BRANCH  13   8
ATOM      4  N   UNL     1      -4.845   1.413  25.396  0.00  0.00    -0.287 NA
ATOM      8  C   UNL     1      -4.677   2.239  24.183  0.00  0.00    +0.146 C 
ATOM      9  C   UNL     1      -4.893   3.687  24.662  0.00  0.00    +0.030 C 
ATOM     10  C   UNL     1      -5.237   3.569  26.140  0.00  0.00    +0.017 C 
ATOM     11  C   UNL     1      -5.753   2.151  26.274  0.00  0.00    +0.085 C 
BRANCH   4  12
ATOM     12  C   UNL     1      -5.328   0.069  25.113  0.00  0.00    +0.120 C 
BRANCH  12  14
ATOM     14  C   UNL     1      -4.197  -0.911  24.949  0.00  0.00    -0.033 A 
ATOM     15  C   UNL     1      -4.263  -1.893  23.961  0.00  0.00    +0.005 A 
ATOM     16  C   UNL     1      -3.084  -0.837  25.786  0.00  0.00    +0.005 A 
ATOM     19  C   UNL     1      -3.214  -2.801  23.809  0.00  0.00    +0.000 A 
ATOM     20  C   UNL     1      -2.036  -1.746  25.634  0.00  0.00    +0.000 A 
ATOM     21  C   UNL     1      -2.101  -2.727  24.646  0.00  0.00    +0.000 A 
ENDBRANCH  12  14
ENDBRANCH   4  12
ENDBRANCH  13   8
TORSDOF 8
ENDMDL
MODEL 4
REMARK VINA RESULT:      -2.9      1.754      7.810
REMARK  Name = 45783407
REMARK  9 active torsions:
REMARK  status: ('A' for Active; 'I' for Inactive)
REMARK    1  A    between atoms: O_2  and  C_22
REMARK    2  A    between atoms: O_2  and  C_26
REMARK    3  A    between atoms: O_3  and  C_27
REMARK    4  A    between atoms: O_3  and  C_28
REMARK    5  A    between atoms: N_4  and  C_12
REMARK    6  A    between atoms: C_8  and  C_13
REMARK    7  A    between atoms: C_12  and  C_14
REMARK    8  A    between atoms: C_17  and  C_18
REMARK    9  A    between atoms: C_26  and  C_27
REMARK                            x       y       z     vdW  Elec       q    Type
REMARK                         _______ _______ _______ _____ _____    ______ ____
ROOT
ATOM      1  O   UNL     1      -5.518  -8.895  12.920  0.00  0.00    -0.336 OA
ATOM      5  N   UNL     1      -6.224 -10.772  11.922  0.00  0.00    -0.190 NA
ATOM      6  N   UNL     1      -6.761  -8.590  12.353  0.00  0.00    -0.056 NA
ATOM     13  C   UNL     1      -5.276 -10.198  12.619  0.00  0.00    +0.245 A 
ATOM     17  C   UNL     1      -7.113  -9.746  11.783  0.00  0.00    +0.207 A 
ENDROOT
BRANCH  17  18
ATOM      7  N   UNL     1     -10.706 -10.433  11.067  0.00  0.00    -0.221 NA
ATOM     18  C   UNL     1      -8.345  -9.910  11.067  0.00  0.00    +0.084 A 
ATOM     22  C   UNL     1      -9.524 -10.268  11.701  0.00  0.00    +0.226 A 
ATOM     23  C   UNL     1      -8.383  -9.706   9.692  0.00  0.00    +0.018 A 
ATOM     24  C   UNL     1      -9.581  -9.867   9.003  0.00  0.00    +0.021 A 
ATOM     25  C   UNL     1     -10.703 -10.228   9.731  0.00  0.00    +0.114 A 
BRANCH  22   2
ATOM      2  O   UNL     1      -9.537 -10.480  13.057  0.00  0.00    -0.474 OA
BRANCH   2  26
ATOM     26  C   UNL     1     -10.003  -9.407  13.866  0.00  0.00    +0.258 C 
BRANCH  26  27
ATOM     27  C   UNL     1      -9.211  -9.381  15.158  0.00  0.00    +0.200 C 
BRANCH  27   3
ATOM      3  O   UNL     1      -9.517  -8.187  15.868  0.00  0.00    -0.380 OA
ATOM     28  C   UNL     1      -9.137  -8.280  17.233  0.00  0.00    +0.194 C 
ENDBRANCH  27   3
ENDBRANCH  26  27
ENDBRANCH   2  26
ENDBRANCH  22   2
ENDBRANCH  17  18
BRANCH  13   8
ATOM      4  N   UNL     1      -2.793 -10.034  12.644  0.00  0.00    -0.287 NA
ATOM      8  C   UNL     1      -3.973 -10.778  13.128  0.00  0.00    +0.146 C 
ATOM      9  C   UNL     1      -3.862 -10.732  14.664  0.00  0.00    +0.030 C 
ATOM     10  C   UNL     1      -2.559  -9.997  14.946  0.00  0.00    +0.017 C 
ATOM     11  C   UNL     1      -1.762 -10.182  13.671  0.00  0.00    +0.085 C 
BRANCH   4  12
ATOM     12  C   UNL     1      -2.331 -10.477  11.335  0.00  0.00    +0.120 C 
BRANCH  12  14
ATOM     14  C   UNL     1      -3.180  -9.920  10.223  0.00  0.00    -0.033 A 
ATOM     15  C   UNL     1      -3.382  -8.544  10.122  0.00  0.00    +0.005 A 
ATOM     16  C   UNL     1      -3.763 -10.781   9.293  0.00  0.00    +0.005 A 
ATOM     19  C   UNL     1      -4.168  -8.029   9.091  0.00  0.00    +0.000 A 
ATOM     20  C   UNL     1      -4.549 -10.265   8.262  0.00  0.00    +0.000 A 
ATOM     21  C   UNL     1      -4.751  -8.889   8.162  0.00  0.00    +0.000 A 
ENDBRANCH  12  14
ENDBRANCH   4  12
ENDBRANCH  13   8
TORSDOF 8
ENDMDL
MODEL 5
REMARK VINA RESULT:      -2.8     14.255     16.319
REMARK  Name = 45783407
REMARK  9 active torsions:
REMARK  status: ('A' for Active; 'I' for Inactive)
REMARK    1  A    between atoms: O_2  and  C_22
REMARK    2  A    between atoms: O_2  and  C_26
REMARK    3  A    between atoms: O_3  and  C_27
REMARK    4  A    between atoms: O_3  and  C_28
REMARK    5  A    between atoms: N_4  and  C_12
REMARK    6  A    between atoms: C_8  and  C_13
REMARK    7  A    between atoms: C_12  and  C_14
REMARK    8  A    between atoms: C_17  and  C_18
REMARK    9  A    between atoms: C_26  and  C_27
REMARK                            x       y       z     vdW  Elec       q    Type
REMARK                         _______ _______ _______ _____ _____    ______ ____
ROOT
ATOM      1  O   UNL     1      -0.686   2.967  25.777  0.00  0.00    -0.336 OA
ATOM      5  N   UNL     1      -0.854   2.234  23.668  0.00  0.00    -0.190 NA
ATOM      6  N   UNL     1       0.541   2.362  25.476  0.00  0.00    -0.056 NA
ATOM     13  C   UNL     1      -1.449   2.846  24.660  0.00  0.00    +0.245 A 
ATOM     17  C   UNL     1       0.364   1.955  24.216  0.00  0.00    +0.207 A 
ENDROOT
BRANCH  17  18
ATOM      7  N   UNL     1       2.047  -0.565  22.046  0.00  0.00    -0.221 NA
ATOM     18  C   UNL     1       1.383   1.267  23.477  0.00  0.00    +0.084 A 
ATOM     22  C   UNL     1       1.118   0.114  22.755  0.00  0.00    +0.226 A 
ATOM     23  C   UNL     1       2.685   1.756  23.468  0.00  0.00    +0.018 A 
ATOM     24  C   UNL     1       3.668   1.084  22.749  0.00  0.00    +0.021 A 
ATOM     25  C   UNL     1       3.301  -0.061  22.062  0.00  0.00    +0.114 A 
BRANCH  22   2
ATOM      2  O   UNL     1      -0.151  -0.406  22.734  0.00  0.00    -0.474 OA
BRANCH   2  26
ATOM     26  C   UNL     1      -0.431  -1.444  23.666  0.00  0.00    +0.258 C 
BRANCH  26  27
ATOM     27  C   UNL     1      -0.582  -0.841  25.048  0.00  0.00    +0.200 C 
BRANCH  27   3
ATOM      3  O   UNL     1      -0.233  -1.816  26.022  0.00  0.00    -0.380 OA
ATOM     28  C   UNL     1       0.509  -2.883  25.449  0.00  0.00    +0.194 C 
ENDBRANCH  27   3
ENDBRANCH  26  27
ENDBRANCH   2  26
ENDBRANCH  22   2
ENDBRANCH  17  18
BRANCH  13   8
ATOM      4  N   UNL     1      -3.836   2.472  25.259  0.00  0.00    -0.287 NA
ATOM      8  C   UNL     1      -2.845   3.430  24.729  0.00  0.00    +0.146 C 
ATOM      9  C   UNL     1      -2.934   4.646  25.671  0.00  0.00    +0.030 C 
ATOM     10  C   UNL     1      -4.042   4.304  26.657  0.00  0.00    +0.017 C 
ATOM     11  C   UNL     1      -4.868   3.269  25.921  0.00  0.00    +0.085 C 
BRANCH   4  12
ATOM     12  C   UNL     1      -4.391   1.596  24.236  0.00  0.00    +0.120 C 
BRANCH  12  14
ATOM     14  C   UNL     1      -4.133   0.144  24.540  0.00  0.00    -0.033 A 
ATOM     15  C   UNL     1      -4.233  -0.809  23.526  0.00  0.00    +0.005 A 
ATOM     16  C   UNL     1      -3.795  -0.248  25.835  0.00  0.00    +0.005 A 
ATOM     19  C   UNL     1      -3.995  -2.154  23.808  0.00  0.00    +0.000 A 
ATOM     20  C   UNL     1      -3.556  -1.594  26.117  0.00  0.00    +0.000 A 
ATOM     21  C   UNL     1      -3.656  -2.546  25.103  0.00  0.00    +0.000 A 
ENDBRANCH  12  14
ENDBRANCH   4  12
ENDBRANCH  13   8
TORSDOF 8
ENDMDL
MODEL 6
REMARK VINA RESULT:      -2.1     14.066     15.951
REMARK  Name = 45783407
REMARK  9 active torsions:
REMARK  status: ('A' for Active; 'I' for Inactive)
REMARK    1  A    between atoms: O_2  and  C_22
REMARK    2  A    between atoms: O_2  and  C_26
REMARK    3  A    between atoms: O_3  and  C_27
REMARK    4  A    between atoms: O_3  and  C_28
REMARK    5  A    between atoms: N_4  and  C_12
REMARK    6  A    between atoms: C_8  and  C_13
REMARK    7  A    between atoms: C_12  and  C_14
REMARK    8  A    between atoms: C_17  and  C_18
REMARK    9  A    between atoms: C_26  and  C_27
REMARK                            x       y       z     vdW  Elec       q    Type
REMARK                         _______ _______ _______ _____ _____    ______ ____
ROOT
ATOM      1  O   UNL     1      -0.751  -2.618  25.426  0.00  0.00    -0.336 OA
ATOM      5  N   UNL     1      -1.037  -0.832  24.107  0.00  0.00    -0.190 NA
ATOM      6  N   UNL     1       0.533  -2.149  25.123  0.00  0.00    -0.056 NA
ATOM     13  C   UNL     1      -1.616  -1.788  24.788  0.00  0.00    +0.245 A 
ATOM     17  C   UNL     1       0.281  -1.095  24.341  0.00  0.00    +0.207 A 
ENDROOT
BRANCH  17  18
ATOM      7  N   UNL     1       2.190   1.900  23.209  0.00  0.00    -0.221 NA
ATOM     18  C   UNL     1       1.323  -0.284  23.780  0.00  0.00    +0.084 A 
ATOM     22  C   UNL     1       1.234   1.098  23.729  0.00  0.00    +0.226 A 
ATOM     23  C   UNL     1       2.468  -0.881  23.265  0.00  0.00    +0.018 A 
ATOM     24  C   UNL     1       3.474  -0.089  22.721  0.00  0.00    +0.021 A 
ATOM     25  C   UNL     1       3.287   1.283  22.718  0.00  0.00    +0.114 A 
BRANCH  22   2
ATOM      2  O   UNL     1       0.123   1.733  24.224  0.00  0.00    -0.474 OA
BRANCH   2  26
ATOM     26  C   UNL     1       0.180   2.153  25.582  0.00  0.00    +0.258 C 
BRANCH  26  27
ATOM     27  C   UNL     1      -0.834   3.258  25.802  0.00  0.00    +0.200 C 
BRANCH  27   3
ATOM      3  O   UNL     1      -0.665   4.250  24.796  0.00  0.00    -0.380 OA
ATOM     28  C   UNL     1      -1.412   5.421  25.089  0.00  0.00    +0.194 C 
ENDBRANCH  27   3
ENDBRANCH  26  27
ENDBRANCH   2  26
ENDBRANCH  22   2
ENDBRANCH  17  18
BRANCH  13   8
ATOM      4  N   UNL     1      -3.952  -0.980  24.497  0.00  0.00    -0.287 NA
ATOM      8  C   UNL     1      -3.091  -2.086  24.961  0.00  0.00    +0.146 C 
ATOM      9  C   UNL     1      -3.549  -3.309  24.143  0.00  0.00    +0.030 C 
ATOM     10  C   UNL     1      -4.709  -2.807  23.296  0.00  0.00    +0.017 C 
ATOM     11  C   UNL     1      -5.205  -1.591  24.052  0.00  0.00    +0.085 C 
BRANCH   4  12
ATOM     12  C   UNL     1      -4.171   0.042  25.511  0.00  0.00    +0.120 C 
BRANCH  12  14
ATOM     14  C   UNL     1      -4.172   1.427  24.921  0.00  0.00    -0.033 A 
ATOM     15  C   UNL     1      -4.830   2.465  25.580  0.00  0.00    +0.005 A 
ATOM     16  C   UNL     1      -3.514   1.673  23.717  0.00  0.00    +0.005 A 
ATOM     19  C   UNL     1      -4.832   3.749  25.033  0.00  0.00    +0.000 A 
ATOM     20  C   UNL     1      -3.515   2.956  23.170  0.00  0.00    +0.000 A 
ATOM     21  C   UNL     1      -4.174   3.994  23.829  0.00  0.00    +0.000 A 
ENDBRANCH  12  14
ENDBRANCH   4  12
ENDBRANCH  13   8
TORSDOF 8
ENDMDL
MODEL 7
REMARK VINA RESULT:      -2.0     14.631     16.584
REMARK  Name = 45783407
REMARK  9 active torsions:
REMARK  status: ('A' for Active; 'I' for Inactive)
REMARK    1  A    between atoms: O_2  and  C_22
REMARK    2  A    between atoms: O_2  and  C_26
REMARK    3  A    between atoms: O_3  and  C_27
REMARK    4  A    between atoms: O_3  and  C_28
REMARK    5  A    between atoms: N_4  and  C_12
REMARK    6  A    between atoms: C_8  and  C_13
REMARK    7  A    between atoms: C_12  and  C_14
REMARK    8  A    between atoms: C_17  and  C_18
REMARK    9  A    between atoms: C_26  and  C_27
REMARK                            x       y       z     vdW  Elec       q    Type
REMARK                         _______ _______ _______ _____ _____    ______ ____
ROOT
ATOM      1  O   UNL     1      -0.882   2.314  25.785  0.00  0.00    -0.336 OA
ATOM      5  N   UNL     1      -2.043   1.465  24.069  0.00  0.00    -0.190 NA
ATOM      6  N   UNL     1      -0.991   0.940  26.031  0.00  0.00    -0.056 NA
ATOM     13  C   UNL     1      -1.529   2.539  24.611  0.00  0.00    +0.245 A 
ATOM     17  C   UNL     1      -1.688   0.509  24.976  0.00  0.00    +0.207 A 
ENDROOT
BRANCH  17  18
ATOM      7  N   UNL     1      -1.429  -3.122  24.178  0.00  0.00    -0.221 NA
ATOM     18  C   UNL     1      -2.046  -0.869  24.798  0.00  0.00    +0.084 A 
ATOM     22  C   UNL     1      -1.135  -1.816  24.359  0.00  0.00    +0.226 A 
ATOM     23  C   UNL     1      -3.343  -1.291  25.070  0.00  0.00    +0.018 A 
ATOM     24  C   UNL     1      -3.684  -2.628  24.895  0.00  0.00    +0.021 A 
ATOM     25  C   UNL     1      -2.699  -3.495  24.451  0.00  0.00    +0.114 A 
BRANCH  22   2
ATOM      2  O   UNL     1       0.157  -1.447  24.078  0.00  0.00    -0.474 OA
BRANCH   2  26
ATOM     26  C   UNL     1       0.353  -0.640  22.923  0.00  0.00    +0.258 C 
BRANCH  26  27
ATOM     27  C   UNL     1       1.467   0.351  23.195  0.00  0.00    +0.200 C 
BRANCH  27   3
ATOM      3  O   UNL     1       2.557   0.075  22.325  0.00  0.00    -0.380 OA
ATOM     28  C   UNL     1       3.733   0.763  22.728  0.00  0.00    +0.194 C 
ENDBRANCH  27   3
ENDBRANCH  26  27
ENDBRANCH   2  26
ENDBRANCH  22   2
ENDBRANCH  17  18
BRANCH  13   8
ATOM      4  N   UNL     1      -2.562   4.794  24.814  0.00  0.00    -0.287 NA
ATOM      8  C   UNL     1      -1.554   3.970  24.117  0.00  0.00    +0.146 C 
ATOM      9  C   UNL     1      -0.220   4.703  24.352  0.00  0.00    +0.030 C 
ATOM     10  C   UNL     1      -0.587   5.956  25.135  0.00  0.00    +0.017 C 
ATOM     11  C   UNL     1      -2.052   6.165  24.808  0.00  0.00    +0.085 C 
BRANCH   4  12
ATOM     12  C   UNL     1      -3.890   4.700  24.221  0.00  0.00    +0.120 C 
BRANCH  12  14
ATOM     14  C   UNL     1      -4.675   3.544  24.782  0.00  0.00    -0.033 A 
ATOM     15  C   UNL     1      -5.199   3.619  26.072  0.00  0.00    +0.005 A 
ATOM     16  C   UNL     1      -4.878   2.400  24.011  0.00  0.00    +0.005 A 
ATOM     19  C   UNL     1      -5.926   2.547  26.592  0.00  0.00    +0.000 A 
ATOM     20  C   UNL     1      -5.605   1.329  24.531  0.00  0.00    +0.000 A 
ATOM     21  C   UNL     1      -6.129   1.403  25.821  0.00  0.00    +0.000 A 
ENDBRANCH  12  14
ENDBRANCH   4  12
ENDBRANCH  13   8
TORSDOF 8
ENDMDL
MODEL 8
REMARK VINA RESULT:      -1.9      2.162      8.100
REMARK  Name = 45783407
REMARK  9 active torsions:
REMARK  status: ('A' for Active; 'I' for Inactive)
REMARK    1  A    between atoms: O_2  and  C_22
REMARK    2  A    between atoms: O_2  and  C_26
REMARK    3  A    between atoms: O_3  and  C_27
REMARK    4  A    between atoms: O_3  and  C_28
REMARK    5  A    between atoms: N_4  and  C_12
REMARK    6  A    between atoms: C_8  and  C_13
REMARK    7  A    between atoms: C_12  and  C_14
REMARK    8  A    between atoms: C_17  and  C_18
REMARK    9  A    between atoms: C_26  and  C_27
REMARK                            x       y       z     vdW  Elec       q    Type
REMARK                         _______ _______ _______ _____ _____    ______ ____
ROOT
ATOM      1  O   UNL     1      -4.901  -9.034  11.895  0.00  0.00    -0.336 OA
ATOM      5  N   UNL     1      -6.844 -10.127  12.106  0.00  0.00    -0.190 NA
ATOM      6  N   UNL     1      -5.772  -8.464  10.958  0.00  0.00    -0.056 NA
ATOM     13  C   UNL     1      -5.611 -10.005  12.527  0.00  0.00    +0.245 A 
ATOM     17  C   UNL     1      -6.897  -9.161  11.143  0.00  0.00    +0.207 A 
ENDROOT
BRANCH  17  18
ATOM      7  N   UNL     1     -10.465  -9.236  10.072  0.00  0.00    -0.221 NA
ATOM     18  C   UNL     1      -8.089  -8.919  10.384  0.00  0.00    +0.084 A 
ATOM     22  C   UNL     1      -9.318  -9.438  10.757  0.00  0.00    +0.226 A 
ATOM     23  C   UNL     1      -8.035  -8.140   9.234  0.00  0.00    +0.018 A 
ATOM     24  C   UNL     1      -9.194  -7.909   8.501  0.00  0.00    +0.021 A 
ATOM     25  C   UNL     1     -10.373  -8.474   8.959  0.00  0.00    +0.114 A 
BRANCH  22   2
ATOM      2  O   UNL     1      -9.422 -10.214  11.884  0.00  0.00    -0.474 OA
BRANCH   2  26
ATOM     26  C   UNL     1     -10.394  -9.817  12.844  0.00  0.00    +0.258 C 
BRANCH  26  27
ATOM     27  C   UNL     1      -9.701  -9.089  13.979  0.00  0.00    +0.200 C 
BRANCH  27   3
ATOM      3  O   UNL     1     -10.652  -8.801  14.996  0.00  0.00    -0.380 OA
ATOM     28  C   UNL     1     -10.058  -8.106  16.083  0.00  0.00    +0.194 C 
ENDBRANCH  27   3
ENDBRANCH  26  27
ENDBRANCH   2  26
ENDBRANCH  22   2
ENDBRANCH  17  18
BRANCH  13   8
ATOM      4  N   UNL     1      -3.532 -10.247  13.873  0.00  0.00    -0.287 NA
ATOM      8  C   UNL     1      -4.882 -10.781  13.604  0.00  0.00    +0.146 C 
ATOM      9  C   UNL     1      -5.602 -10.729  14.965  0.00  0.00    +0.030 C 
ATOM     10  C   UNL     1      -4.560 -10.212  15.946  0.00  0.00    +0.017 C 
ATOM     11  C   UNL     1      -3.243 -10.545  15.276  0.00  0.00    +0.085 C 
BRANCH   4  12
ATOM     12  C   UNL     1      -2.514 -10.781  12.978  0.00  0.00    +0.120 C 
BRANCH  12  14
ATOM     14  C   UNL     1      -1.470  -9.751  12.638  0.00  0.00    -0.033 A 
ATOM     15  C   UNL     1      -0.954  -8.926  13.637  0.00  0.00    +0.005 A 
ATOM     16  C   UNL     1      -1.018  -9.623  11.325  0.00  0.00    +0.005 A 
ATOM     19  C   UNL     1       0.014  -7.971  13.322  0.00  0.00    +0.000 A 
ATOM     20  C   UNL     1      -0.051  -8.669  11.010  0.00  0.00    +0.000 A 
ATOM     21  C   UNL     1       0.465  -7.843  12.009  0.00  0.00    +0.000 A 
ENDBRANCH  12  14
ENDBRANCH   4  12
ENDBRANCH  13   8
TORSDOF 8
ENDMDL
MODEL 9
REMARK VINA RESULT:      -1.4     14.526     16.323
REMARK  Name = 45783407
REMARK  9 active torsions:
REMARK  status: ('A' for Active; 'I' for Inactive)
REMARK    1  A    between atoms: O_2  and  C_22
REMARK    2  A    between atoms: O_2  and  C_26
REMARK    3  A    between atoms: O_3  and  C_27
REMARK    4  A    between atoms: O_3  and  C_28
REMARK    5  A    between atoms: N_4  and  C_12
REMARK    6  A    between atoms: C_8  and  C_13
REMARK    7  A    between atoms: C_12  and  C_14
REMARK    8  A    between atoms: C_17  and  C_18
REMARK    9  A    between atoms: C_26  and  C_27
REMARK                            x       y       z     vdW  Elec       q    Type
REMARK                         _______ _______ _______ _____ _____    ______ ____
ROOT
ATOM      1  O   UNL     1      -1.274  -0.375  26.424  0.00  0.00    -0.336 OA
ATOM      5  N   UNL     1      -2.360   0.905  24.941  0.00  0.00    -0.190 NA
ATOM      6  N   UNL     1      -0.605   0.855  26.408  0.00  0.00    -0.056 NA
ATOM     13  C   UNL     1      -2.293  -0.261  25.532  0.00  0.00    +0.245 A 
ATOM     17  C   UNL     1      -1.304   1.556  25.511  0.00  0.00    +0.207 A 
ENDROOT
BRANCH  17  18
ATOM      7  N   UNL     1       0.479   4.475  24.031  0.00  0.00    -0.221 NA
ATOM     18  C   UNL     1      -0.974   2.907  25.160  0.00  0.00    +0.084 A 
ATOM     22  C   UNL     1       0.132   3.218  24.385  0.00  0.00    +0.226 A 
ATOM     23  C   UNL     1      -1.776   3.955  25.599  0.00  0.00    +0.018 A 
ATOM     24  C   UNL     1      -1.450   5.263  25.255  0.00  0.00    +0.021 A 
ATOM     25  C   UNL     1      -0.323   5.467  24.477  0.00  0.00    +0.114 A 
BRANCH  22   2
ATOM      2  O   UNL     1       0.953   2.218  23.928  0.00  0.00    -0.474 OA
BRANCH   2  26
ATOM     26  C   UNL     1       0.336   1.180  23.175  0.00  0.00    +0.258 C 
BRANCH  26  27
ATOM     27  C   UNL     1       1.229  -0.045  23.198  0.00  0.00    +0.200 C 
BRANCH  27   3
ATOM      3  O   UNL     1       2.193   0.063  22.158  0.00  0.00    -0.380 OA
ATOM     28  C   UNL     1       3.451   0.496  22.657  0.00  0.00    +0.194 C 
ENDBRANCH  27   3
ENDBRANCH  26  27
ENDBRANCH   2  26
ENDBRANCH  22   2
ENDBRANCH  17  18
BRANCH  13   8
ATOM      4  N   UNL     1      -4.158  -1.315  24.267  0.00  0.00    -0.287 NA
ATOM      8  C   UNL     1      -3.180  -1.476  25.361  0.00  0.00    +0.146 C 
ATOM      9  C   UNL     1      -2.387  -2.745  24.995  0.00  0.00    +0.030 C 
ATOM     10  C   UNL     1      -3.031  -3.259  23.715  0.00  0.00    +0.017 C 
ATOM     11  C   UNL     1      -4.421  -2.658  23.747  0.00  0.00    +0.085 C 
BRANCH   4  12
ATOM     12  C   UNL     1      -5.380  -0.639  24.682  0.00  0.00    +0.120 C 
BRANCH  12  14
ATOM     14  C   UNL     1      -5.202   0.854  24.743  0.00  0.00    -0.033 A 
ATOM     15  C   UNL     1      -4.588   1.526  23.687  0.00  0.00    +0.005 A 
ATOM     16  C   UNL     1      -5.653   1.566  25.854  0.00  0.00    +0.005 A 
ATOM     19  C   UNL     1      -4.423   2.911  23.743  0.00  0.00    +0.000 A 
ATOM     20  C   UNL     1      -5.488   2.950  25.911  0.00  0.00    +0.000 A 
ATOM     21  C   UNL     1      -4.873   3.622  24.854  0.00  0.00    +0.000 A 
ENDBRANCH  12  14
ENDBRANCH   4  12
ENDBRANCH  13   8
TORSDOF 8
ENDMDL
