MODEL 1
REMARK VINA RESULT:       4.0      0.000      0.000
REMARK  Name = 45783515
REMARK  6 active torsions:
REMARK  status: ('A' for Active; 'I' for Inactive)
REMARK    1  A    between atoms: O_2  and  C_16
REMARK    2  A    between atoms: O_2  and  C_31
REMARK    3  A    between atoms: N_4  and  C_13
REMARK    4  A    between atoms: C_9  and  C_14
REMARK    5  A    between atoms: C_13  and  C_15
REMARK    6  A    between atoms: C_17  and  C_21
REMARK                            x       y       z     vdW  Elec       q    Type
REMARK                         _______ _______ _______ _____ _____    ______ ____
ROOT
ATOM      1  O   UNL     1      -3.287   2.262  22.272  0.00  0.00    -0.336 OA
ATOM      5  N   UNL     1      -2.224   1.377  24.035  0.00  0.00    -0.190 NA
ATOM      7  N   UNL     1      -1.961   2.064  21.869  0.00  0.00    -0.056 NA
ATOM     14  C   UNL     1      -3.357   1.832  23.560  0.00  0.00    +0.245 A 
ATOM     17  C   UNL     1      -1.397   1.540  22.961  0.00  0.00    +0.204 A 
ENDROOT
BRANCH  17  21
ATOM      3  O   UNL     1       6.761  -0.253  23.369  0.00  0.00    -0.377 OA
ATOM      6  N   UNL     1       3.988   0.177  23.225  0.00  0.00    -0.311 N 
ATOM      8  N   UNL     1       2.201   1.577  23.896  0.00  0.00    -0.240 NA
ATOM     19  C   UNL     1       4.717   0.447  24.472  0.00  0.00    +0.134 C 
ATOM     20  C   UNL     1       4.804   0.195  22.007  0.00  0.00    +0.134 C 
ATOM     21  C   UNL     1      -0.013   1.170  23.014  0.00  0.00    +0.041 A 
ATOM     23  C   UNL     1       2.635   0.527  23.164  0.00  0.00    +0.121 A 
ATOM     24  C   UNL     1       5.963  -0.430  24.539  0.00  0.00    +0.178 C 
ATOM     25  C   UNL     1       6.046  -0.668  22.206  0.00  0.00    +0.178 C 
ATOM     28  C   UNL     1       0.471   0.097  22.275  0.00  0.00    +0.016 A 
ATOM     29  C   UNL     1       1.819  -0.238  22.345  0.00  0.00    +0.044 A 
ATOM     30  C   UNL     1       0.885   1.872  23.803  0.00  0.00    +0.124 A 
ENDBRANCH  17  21
BRANCH  14   9
ATOM      4  N   UNL     1      -4.690   1.434  25.622  0.00  0.00    -0.287 NA
ATOM      9  C   UNL     1      -4.707   1.941  24.236  0.00  0.00    +0.146 C 
ATOM     10  C   UNL     1      -5.196   3.395  24.357  0.00  0.00    +0.030 C 
ATOM     11  C   UNL     1      -5.486   3.595  25.837  0.00  0.00    +0.017 C 
ATOM     12  C   UNL     1      -5.711   2.188  26.351  0.00  0.00    +0.085 C 
BRANCH   4  13
ATOM     13  C   UNL     1      -4.903  -0.006  25.712  0.00  0.00    +0.124 C 
BRANCH  13  15
ATOM     15  C   UNL     1      -3.630  -0.775  25.481  0.00  0.00    +0.008 A 
ATOM     16  C   UNL     1      -3.571  -1.784  24.520  0.00  0.00    +0.124 A 
ATOM     18  C   UNL     1      -2.500  -0.469  26.240  0.00  0.00    +0.008 A 
ATOM     22  C   UNL     1      -2.384  -2.488  24.317  0.00  0.00    +0.046 A 
ATOM     26  C   UNL     1      -1.312  -1.172  26.038  0.00  0.00    +0.001 A 
ATOM     27  C   UNL     1      -1.255  -2.182  25.077  0.00  0.00    +0.004 A 
BRANCH  16   2
ATOM      2  O   UNL     1      -4.666  -2.096  23.769  0.00  0.00    -0.495 OA
ATOM     31  C   UNL     1      -4.645  -3.347  23.084  0.00  0.00    +0.277 C 
ENDBRANCH  16   2
ENDBRANCH  13  15
ENDBRANCH   4  13
ENDBRANCH  14   9
TORSDOF 5
ENDMDL
MODEL 2
REMARK VINA RESULT:       5.2      0.930      1.694
REMARK  Name = 45783515
REMARK  6 active torsions:
REMARK  status: ('A' for Active; 'I' for Inactive)
REMARK    1  A    between atoms: O_2  and  C_16
REMARK    2  A    between atoms: O_2  and  C_31
REMARK    3  A    between atoms: N_4  and  C_13
REMARK    4  A    between atoms: C_9  and  C_14
REMARK    5  A    between atoms: C_13  and  C_15
REMARK    6  A    between atoms: C_17  and  C_21
REMARK                            x       y       z     vdW  Elec       q    Type
REMARK                         _______ _______ _______ _____ _____    ______ ____
ROOT
ATOM      1  O   UNL     1      -3.186   1.920  22.029  0.00  0.00    -0.336 OA
ATOM      5  N   UNL     1      -2.001   1.682  23.916  0.00  0.00    -0.190 NA
ATOM      7  N   UNL     1      -1.892   1.557  21.634  0.00  0.00    -0.056 NA
ATOM     14  C   UNL     1      -3.164   1.971  23.388  0.00  0.00    +0.245 A 
ATOM     17  C   UNL     1      -1.253   1.436  22.802  0.00  0.00    +0.204 A 
ENDROOT
BRANCH  17  21
ATOM      3  O   UNL     1       6.898  -0.329  23.424  0.00  0.00    -0.377 OA
ATOM      6  N   UNL     1       4.129   0.091  23.202  0.00  0.00    -0.311 N 
ATOM      8  N   UNL     1       2.313   1.465  23.852  0.00  0.00    -0.240 NA
ATOM     19  C   UNL     1       4.816   0.332  24.478  0.00  0.00    +0.134 C 
ATOM     20  C   UNL     1       4.983   0.145  22.012  0.00  0.00    +0.134 C 
ATOM     21  C   UNL     1       0.131   1.071  22.889  0.00  0.00    +0.041 A 
ATOM     23  C   UNL     1       2.776   0.436  23.107  0.00  0.00    +0.121 A 
ATOM     24  C   UNL     1       6.064  -0.540  24.563  0.00  0.00    +0.178 C 
ATOM     25  C   UNL     1       6.222  -0.716  22.228  0.00  0.00    +0.178 C 
ATOM     28  C   UNL     1       0.644   0.020  22.138  0.00  0.00    +0.016 A 
ATOM     29  C   UNL     1       1.991  -0.310  22.242  0.00  0.00    +0.044 A 
ATOM     30  C   UNL     1       1.000   1.756  23.725  0.00  0.00    +0.124 A 
ENDBRANCH  17  21
BRANCH  14   9
ATOM      4  N   UNL     1      -4.684   1.592  25.320  0.00  0.00    -0.287 NA
ATOM      9  C   UNL     1      -4.463   2.346  24.070  0.00  0.00    +0.146 C 
ATOM     10  C   UNL     1      -4.507   3.826  24.492  0.00  0.00    +0.030 C 
ATOM     11  C   UNL     1      -4.819   3.805  25.981  0.00  0.00    +0.017 C 
ATOM     12  C   UNL     1      -5.482   2.459  26.189  0.00  0.00    +0.085 C 
BRANCH   4  13
ATOM     13  C   UNL     1      -5.319   0.297  25.107  0.00  0.00    +0.124 C 
BRANCH  13  15
ATOM     15  C   UNL     1      -4.309  -0.778  24.808  0.00  0.00    +0.008 A 
ATOM     16  C   UNL     1      -3.037  -0.741  25.379  0.00  0.00    +0.124 A 
ATOM     18  C   UNL     1      -4.657  -1.822  23.949  0.00  0.00    +0.008 A 
ATOM     22  C   UNL     1      -2.112  -1.745  25.092  0.00  0.00    +0.046 A 
ATOM     26  C   UNL     1      -3.733  -2.826  23.662  0.00  0.00    +0.001 A 
ATOM     27  C   UNL     1      -2.461  -2.788  24.233  0.00  0.00    +0.004 A 
BRANCH  16   2
ATOM      2  O   UNL     1      -2.680   0.271  26.219  0.00  0.00    -0.495 OA
ATOM     31  C   UNL     1      -1.284   0.510  26.389  0.00  0.00    +0.277 C 
ENDBRANCH  16   2
ENDBRANCH  13  15
ENDBRANCH   4  13
ENDBRANCH  14   9
TORSDOF 5
ENDMDL
MODEL 3
REMARK VINA RESULT:       7.4      1.039      2.081
REMARK  Name = 45783515
REMARK  6 active torsions:
REMARK  status: ('A' for Active; 'I' for Inactive)
REMARK    1  A    between atoms: O_2  and  C_16
REMARK    2  A    between atoms: O_2  and  C_31
REMARK    3  A    between atoms: N_4  and  C_13
REMARK    4  A    between atoms: C_9  and  C_14
REMARK    5  A    between atoms: C_13  and  C_15
REMARK    6  A    between atoms: C_17  and  C_21
REMARK                            x       y       z     vdW  Elec       q    Type
REMARK                         _______ _______ _______ _____ _____    ______ ____
ROOT
ATOM      1  O   UNL     1      -3.226   1.859  22.094  0.00  0.00    -0.336 OA
ATOM      5  N   UNL     1      -2.046   1.696  23.991  0.00  0.00    -0.190 NA
ATOM      7  N   UNL     1      -1.913   1.559  21.711  0.00  0.00    -0.056 NA
ATOM     14  C   UNL     1      -3.218   1.922  23.452  0.00  0.00    +0.245 A 
ATOM     17  C   UNL     1      -1.278   1.478  22.884  0.00  0.00    +0.204 A 
ENDROOT
BRANCH  17  21
ATOM      3  O   UNL     1       6.802  -0.609  23.439  0.00  0.00    -0.377 OA
ATOM      6  N   UNL     1       4.138   0.259  23.229  0.00  0.00    -0.311 N 
ATOM      8  N   UNL     1       1.957  -0.317  22.511  0.00  0.00    -0.240 NA
ATOM     19  C   UNL     1       4.743  -0.543  22.158  0.00  0.00    +0.134 C 
ATOM     20  C   UNL     1       4.771   0.126  24.545  0.00  0.00    +0.134 C 
ATOM     21  C   UNL     1       0.122   1.185  22.985  0.00  0.00    +0.041 A 
ATOM     23  C   UNL     1       2.774   0.558  23.139  0.00  0.00    +0.121 A 
ATOM     24  C   UNL     1       6.253  -0.335  22.150  0.00  0.00    +0.178 C 
ATOM     25  C   UNL     1       6.280   0.298  24.410  0.00  0.00    +0.178 C 
ATOM     28  C   UNL     1       0.994   2.060  23.623  0.00  0.00    +0.016 A 
ATOM     29  C   UNL     1       2.347   1.749  23.707  0.00  0.00    +0.044 A 
ATOM     30  C   UNL     1       0.650   0.020  22.449  0.00  0.00    +0.124 A 
ENDBRANCH  17  21
BRANCH  14   9
ATOM      4  N   UNL     1      -4.759   1.437  25.343  0.00  0.00    -0.287 NA
ATOM      9  C   UNL     1      -4.539   2.236  24.121  0.00  0.00    +0.146 C 
ATOM     10  C   UNL     1      -4.635   3.700  24.589  0.00  0.00    +0.030 C 
ATOM     11  C   UNL     1      -4.972   3.622  26.071  0.00  0.00    +0.017 C 
ATOM     12  C   UNL     1      -5.598   2.251  26.224  0.00  0.00    +0.085 C 
BRANCH   4  13
ATOM     13  C   UNL     1      -5.351   0.131  25.077  0.00  0.00    +0.124 C 
BRANCH  13  15
ATOM     15  C   UNL     1      -4.301  -0.913  24.800  0.00  0.00    +0.008 A 
ATOM     16  C   UNL     1      -3.042  -0.834  25.395  0.00  0.00    +0.124 A 
ATOM     18  C   UNL     1      -4.600  -1.968  23.938  0.00  0.00    +0.008 A 
ATOM     22  C   UNL     1      -2.081  -1.809  25.128  0.00  0.00    +0.046 A 
ATOM     26  C   UNL     1      -3.639  -2.944  23.671  0.00  0.00    +0.001 A 
ATOM     27  C   UNL     1      -2.380  -2.864  24.266  0.00  0.00    +0.004 A 
BRANCH  16   2
ATOM      2  O   UNL     1      -2.734   0.191  26.240  0.00  0.00    -0.495 OA
ATOM     31  C   UNL     1      -1.350   0.473  26.436  0.00  0.00    +0.277 C 
ENDBRANCH  16   2
ENDBRANCH  13  15
ENDBRANCH   4  13
ENDBRANCH  14   9
TORSDOF 5
ENDMDL
MODEL 4
REMARK VINA RESULT:       7.6      2.085      4.276
REMARK  Name = 45783515
REMARK  6 active torsions:
REMARK  status: ('A' for Active; 'I' for Inactive)
REMARK    1  A    between atoms: O_2  and  C_16
REMARK    2  A    between atoms: O_2  and  C_31
REMARK    3  A    between atoms: N_4  and  C_13
REMARK    4  A    between atoms: C_9  and  C_14
REMARK    5  A    between atoms: C_13  and  C_15
REMARK    6  A    between atoms: C_17  and  C_21
REMARK                            x       y       z     vdW  Elec       q    Type
REMARK                         _______ _______ _______ _____ _____    ______ ____
ROOT
ATOM      1  O   UNL     1      -1.190   0.133  23.124  0.00  0.00    -0.336 OA
ATOM      5  N   UNL     1       0.254  -1.091  24.322  0.00  0.00    -0.190 NA
ATOM      7  N   UNL     1       0.089   0.527  22.713  0.00  0.00    -0.056 NA
ATOM     14  C   UNL     1      -1.003  -0.822  24.073  0.00  0.00    +0.245 A 
ATOM     17  C   UNL     1       0.886  -0.238  23.464  0.00  0.00    +0.204 A 
ENDROOT
BRANCH  17  21
ATOM      3  O   UNL     1       9.247  -0.158  23.247  0.00  0.00    -0.377 OA
ATOM      6  N   UNL     1       6.438  -0.081  23.178  0.00  0.00    -0.311 N 
ATOM      8  N   UNL     1       4.450  -1.289  23.614  0.00  0.00    -0.240 NA
ATOM     19  C   UNL     1       7.156  -1.315  22.828  0.00  0.00    +0.134 C 
ATOM     20  C   UNL     1       7.184   0.858  24.022  0.00  0.00    +0.134 C 
ATOM     21  C   UNL     1       2.316  -0.175  23.384  0.00  0.00    +0.041 A 
ATOM     23  C   UNL     1       5.042  -0.129  23.253  0.00  0.00    +0.121 A 
ATOM     24  C   UNL     1       8.546  -0.971  22.305  0.00  0.00    +0.178 C 
ATOM     25  C   UNL     1       8.573   1.086  23.436  0.00  0.00    +0.178 C 
ATOM     28  C   UNL     1       2.962   1.001  23.017  0.00  0.00    +0.016 A 
ATOM     29  C   UNL     1       4.351   1.033  22.948  0.00  0.00    +0.044 A 
ATOM     30  C   UNL     1       3.099  -1.282  23.669  0.00  0.00    +0.124 A 
ENDBRANCH  17  21
BRANCH  14   9
ATOM      4  N   UNL     1      -3.428  -0.536  24.551  0.00  0.00    -0.287 NA
ATOM      9  C   UNL     1      -2.253  -1.420  24.684  0.00  0.00    +0.146 C 
ATOM     10  C   UNL     1      -2.675  -2.737  24.007  0.00  0.00    +0.030 C 
ATOM     11  C   UNL     1      -4.119  -2.519  23.581  0.00  0.00    +0.017 C 
ATOM     12  C   UNL     1      -4.599  -1.411  24.496  0.00  0.00    +0.085 C 
BRANCH   4  13
ATOM     13  C   UNL     1      -3.530   0.450  25.620  0.00  0.00    +0.124 C 
BRANCH  13  15
ATOM     15  C   UNL     1      -3.339   1.852  25.108  0.00  0.00    +0.008 A 
ATOM     16  C   UNL     1      -2.141   2.534  25.323  0.00  0.00    +0.124 A 
ATOM     18  C   UNL     1      -4.377   2.471  24.409  0.00  0.00    +0.008 A 
ATOM     22  C   UNL     1      -1.980   3.833  24.841  0.00  0.00    +0.046 A 
ATOM     26  C   UNL     1      -4.216   3.770  23.927  0.00  0.00    +0.001 A 
ATOM     27  C   UNL     1      -3.018   4.451  24.143  0.00  0.00    +0.004 A 
BRANCH  16   2
ATOM      2  O   UNL     1      -1.118   1.944  26.003  0.00  0.00    -0.495 OA
ATOM     31  C   UNL     1       0.179   2.519  25.847  0.00  0.00    +0.277 C 
ENDBRANCH  16   2
ENDBRANCH  13  15
ENDBRANCH   4  13
ENDBRANCH  14   9
TORSDOF 5
ENDMDL
