MODEL 1
REMARK VINA RESULT:      -5.4      0.000      0.000
REMARK  Name = 38027141
REMARK  13 active torsions:
REMARK  status: ('A' for Active; 'I' for Inactive)
REMARK    1  A    between atoms: N_3  and  C_13
REMARK    2  A    between atoms: N_4  and  C_20
REMARK    3  A    between atoms: N_4  and  C_21
REMARK    4  A    between atoms: N_5  and  C_23
REMARK    5  A    between atoms: C_6  and  C_10
REMARK    6  A    between atoms: C_7  and  C_13
REMARK    7  A    between atoms: C_9  and  C_14
REMARK    8  A    between atoms: C_10  and  C_15
REMARK    9  A    between atoms: C_10  and  C_16
REMARK   10  A    between atoms: C_11  and  C_17
REMARK   11  A    between atoms: C_14  and  C_18
REMARK   12  A    between atoms: C_20  and  C_22
REMARK   13  A    between atoms: C_23  and  C_26
REMARK                            x       y       z     vdW  Elec       q    Type
REMARK                         _______ _______ _______ _____ _____    ______ ____
ROOT
ATOM      6  C   UNL     1      -1.017   0.546  24.457  0.00  0.00    +0.000 C 
ATOM      7  C   UNL     1      -0.249  -0.788  24.292  0.00  0.00    +0.032 C 
ATOM      8  C   UNL     1      -2.100   0.412  25.538  0.00  0.00    +0.012 C 
ATOM      9  C   UNL     1      -3.116  -0.698  25.209  0.00  0.00    +0.023 C 
ATOM     11  C   UNL     1      -2.431  -1.978  24.774  0.00  0.00    -0.073 C 
ATOM     12  C   UNL     1      -1.145  -2.001  24.380  0.00  0.00    -0.022 C 
ATOM     17  C   UNL     1      -3.245  -3.240  24.845  0.00  0.00    +0.039 C 
ENDROOT
BRANCH   6  10
ATOM     10  C   UNL     1      -0.076   1.704  24.807  0.00  0.00    -0.013 C 
ATOM     15  C   UNL     1      -0.332   2.894  23.887  0.00  0.00    +0.007 C 
ATOM     16  C   UNL     1      -0.247   2.105  26.269  0.00  0.00    +0.007 C 
ENDBRANCH   6  10
BRANCH   7  13
ATOM     13  C   UNL     1       0.526  -0.821  22.969  0.00  0.00    +0.113 C 
BRANCH  13   3
ATOM      2  O   UNL     1       3.312  -1.483  23.320  0.00  0.00    -0.253 OA
ATOM      3  N   UNL     1       1.629   0.088  23.005  0.00  0.00    -0.299 N 
ATOM      5  N   UNL     1       3.831   0.774  23.176  0.00  0.00    -0.300 N 
ATOM     19  C   UNL     1       2.960  -0.312  23.180  0.00  0.00    +0.300 C 
ATOM     30  H   UNL     1       1.452   1.072  22.830  0.00  0.00    +0.150 HD
ATOM     31  H   UNL     1       3.446   1.707  23.068  0.00  0.00    +0.150 HD
BRANCH   5  23
ATOM     23  C   UNL     1       5.258   0.634  23.338  0.00  0.00    +0.102 C 
ATOM     26  C   UNL     1       5.598  -0.392  24.400  0.00  0.00    +0.024 C 
ENDBRANCH   5  23
ENDBRANCH  13   3
ENDBRANCH   7  13
BRANCH   9  14
ATOM     14  C   UNL     1      -4.123  -0.229  24.154  0.00  0.00    +0.103 C 
BRANCH  14  18
ATOM      1  O   UNL     1      -3.576   1.945  23.304  0.00  0.00    -0.276 OA
ATOM      4  N   UNL     1      -5.140   1.852  25.013  0.00  0.00    -0.300 N 
ATOM     18  C   UNL     1      -4.242   1.283  24.105  0.00  0.00    +0.216 C 
ATOM     21  C   UNL     1      -5.917   1.050  25.951  0.00  0.00    +0.132 C 
BRANCH   4  20
ATOM     20  C   UNL     1      -5.369   3.293  25.091  0.00  0.00    +0.142 C 
BRANCH  20  22
ATOM     22  C   UNL     1      -4.083   4.066  25.127  0.00  0.00    -0.030 A 
ATOM     24  C   UNL     1      -3.242   3.969  26.235  0.00  0.00    +0.005 A 
ATOM     25  C   UNL     1      -3.728   4.880  24.052  0.00  0.00    +0.005 A 
ATOM     27  C   UNL     1      -2.046   4.686  26.269  0.00  0.00    +0.000 A 
ATOM     28  C   UNL     1      -2.534   5.599  24.085  0.00  0.00    +0.000 A 
ATOM     29  C   UNL     1      -1.692   5.502  25.194  0.00  0.00    +0.000 A 
ENDBRANCH  20  22
ENDBRANCH   4  20
ENDBRANCH  14  18
ENDBRANCH   9  14
TORSDOF 8
ENDMDL
MODEL 2
REMARK VINA RESULT:      -3.8      1.508      3.185
REMARK  Name = 38027141
REMARK  13 active torsions:
REMARK  status: ('A' for Active; 'I' for Inactive)
REMARK    1  A    between atoms: N_3  and  C_13
REMARK    2  A    between atoms: N_4  and  C_20
REMARK    3  A    between atoms: N_4  and  C_21
REMARK    4  A    between atoms: N_5  and  C_23
REMARK    5  A    between atoms: C_6  and  C_10
REMARK    6  A    between atoms: C_7  and  C_13
REMARK    7  A    between atoms: C_9  and  C_14
REMARK    8  A    between atoms: C_10  and  C_15
REMARK    9  A    between atoms: C_10  and  C_16
REMARK   10  A    between atoms: C_11  and  C_17
REMARK   11  A    between atoms: C_14  and  C_18
REMARK   12  A    between atoms: C_20  and  C_22
REMARK   13  A    between atoms: C_23  and  C_26
REMARK                            x       y       z     vdW  Elec       q    Type
REMARK                         _______ _______ _______ _____ _____    ______ ____
ROOT
ATOM      6  C   UNL     1      -2.960  -1.031  24.604  0.00  0.00    +0.000 C 
ATOM      7  C   UNL     1      -1.831  -0.329  23.811  0.00  0.00    +0.032 C 
ATOM      8  C   UNL     1      -4.311  -0.842  23.896  0.00  0.00    +0.012 C 
ATOM      9  C   UNL     1      -4.680   0.644  23.734  0.00  0.00    +0.023 C 
ATOM     11  C   UNL     1      -3.518   1.459  23.203  0.00  0.00    -0.073 C 
ATOM     12  C   UNL     1      -2.253   1.002  23.234  0.00  0.00    -0.022 C 
ATOM     17  C   UNL     1      -3.848   2.794  22.595  0.00  0.00    +0.039 C 
ENDROOT
BRANCH   6  10
ATOM     10  C   UNL     1      -2.678  -2.525  24.792  0.00  0.00    -0.013 C 
ATOM     15  C   UNL     1      -3.878  -3.354  24.342  0.00  0.00    +0.007 C 
ATOM     16  C   UNL     1      -1.424  -2.931  24.026  0.00  0.00    +0.007 C 
ENDBRANCH   6  10
BRANCH   7  13
ATOM     13  C   UNL     1      -0.582  -0.136  24.679  0.00  0.00    +0.113 C 
BRANCH  13   3
ATOM      2  O   UNL     1       1.518   1.639  23.804  0.00  0.00    -0.253 OA
ATOM      3  N   UNL     1       0.598  -0.490  23.954  0.00  0.00    -0.299 N 
ATOM      5  N   UNL     1       2.619  -0.179  22.872  0.00  0.00    -0.300 N 
ATOM     19  C   UNL     1       1.577   0.433  23.563  0.00  0.00    +0.300 C 
ATOM     30  H   UNL     1       0.775  -1.472  23.765  0.00  0.00    +0.150 HD
ATOM     31  H   UNL     1       2.573  -1.179  22.707  0.00  0.00    +0.150 HD
BRANCH   5  23
ATOM     23  C   UNL     1       3.754   0.551  22.359  0.00  0.00    +0.102 C 
ATOM     26  C   UNL     1       4.910   0.538  23.337  0.00  0.00    +0.024 C 
ENDBRANCH   5  23
ENDBRANCH  13   3
ENDBRANCH   7  13
BRANCH   9  14
ATOM     14  C   UNL     1      -5.204   1.229  25.050  0.00  0.00    +0.103 C 
BRANCH  14  18
ATOM      1  O   UNL     1      -3.101   1.577  26.147  0.00  0.00    -0.276 OA
ATOM      4  N   UNL     1      -4.487   3.423  25.932  0.00  0.00    -0.300 N 
ATOM     18  C   UNL     1      -4.161   2.074  25.759  0.00  0.00    +0.216 C 
ATOM     21  C   UNL     1      -5.747   3.989  25.464  0.00  0.00    +0.132 C 
BRANCH   4  20
ATOM     20  C   UNL     1      -3.590   4.368  26.593  0.00  0.00    +0.142 C 
BRANCH  20  22
ATOM     22  C   UNL     1      -2.281   4.500  25.871  0.00  0.00    -0.030 A 
ATOM     24  C   UNL     1      -1.348   3.464  25.923  0.00  0.00    +0.005 A 
ATOM     25  C   UNL     1      -1.997   5.658  25.146  0.00  0.00    +0.005 A 
ATOM     27  C   UNL     1      -0.131   3.586  25.252  0.00  0.00    +0.000 A 
ATOM     28  C   UNL     1      -0.780   5.780  24.476  0.00  0.00    +0.000 A 
ATOM     29  C   UNL     1       0.153   4.744  24.528  0.00  0.00    +0.000 A 
ENDBRANCH  20  22
ENDBRANCH   4  20
ENDBRANCH  14  18
ENDBRANCH   9  14
TORSDOF 8
ENDMDL
MODEL 3
REMARK VINA RESULT:      -2.9      1.673      4.813
REMARK  Name = 38027141
REMARK  13 active torsions:
REMARK  status: ('A' for Active; 'I' for Inactive)
REMARK    1  A    between atoms: N_3  and  C_13
REMARK    2  A    between atoms: N_4  and  C_20
REMARK    3  A    between atoms: N_4  and  C_21
REMARK    4  A    between atoms: N_5  and  C_23
REMARK    5  A    between atoms: C_6  and  C_10
REMARK    6  A    between atoms: C_7  and  C_13
REMARK    7  A    between atoms: C_9  and  C_14
REMARK    8  A    between atoms: C_10  and  C_15
REMARK    9  A    between atoms: C_10  and  C_16
REMARK   10  A    between atoms: C_11  and  C_17
REMARK   11  A    between atoms: C_14  and  C_18
REMARK   12  A    between atoms: C_20  and  C_22
REMARK   13  A    between atoms: C_23  and  C_26
REMARK                            x       y       z     vdW  Elec       q    Type
REMARK                         _______ _______ _______ _____ _____    ______ ____
ROOT
ATOM      6  C   UNL     1      -2.806   2.623  23.861  0.00  0.00    +0.000 C 
ATOM      7  C   UNL     1      -1.513   2.911  24.662  0.00  0.00    +0.032 C 
ATOM      8  C   UNL     1      -3.818   3.764  24.047  0.00  0.00    +0.012 C 
ATOM      9  C   UNL     1      -4.197   3.971  25.526  0.00  0.00    +0.023 C 
ATOM     11  C   UNL     1      -2.975   3.996  26.421  0.00  0.00    -0.073 C 
ATOM     12  C   UNL     1      -1.781   3.531  26.014  0.00  0.00    -0.022 C 
ATOM     17  C   UNL     1      -3.146   4.612  27.783  0.00  0.00    +0.039 C 
ENDROOT
BRANCH   6  10
ATOM     10  C   UNL     1      -2.518   2.424  22.369  0.00  0.00    -0.013 C 
ATOM     15  C   UNL     1      -2.411   0.937  22.041  0.00  0.00    +0.007 C 
ATOM     16  C   UNL     1      -3.602   3.086  21.525  0.00  0.00    +0.007 C 
ENDBRANCH   6  10
BRANCH   7  13
ATOM     13  C   UNL     1      -0.677   1.638  24.841  0.00  0.00    +0.113 C 
BRANCH  13   3
ATOM      2  O   UNL     1       0.891  -0.093  23.146  0.00  0.00    -0.253 OA
ATOM      3  N   UNL     1       0.667   1.849  24.404  0.00  0.00    -0.299 N 
ATOM      5  N   UNL     1       2.654   1.407  23.306  0.00  0.00    -0.300 N 
ATOM     19  C   UNL     1       1.365   0.958  23.577  0.00  0.00    +0.300 C 
ATOM     30  H   UNL     1       1.125   2.721  24.649  0.00  0.00    +0.150 HD
ATOM     31  H   UNL     1       2.964   2.281  23.719  0.00  0.00    +0.150 HD
BRANCH   5  23
ATOM     23  C   UNL     1       3.581   0.672  22.478  0.00  0.00    +0.102 C 
ATOM     26  C   UNL     1       4.851   0.334  23.232  0.00  0.00    +0.024 C 
ENDBRANCH   5  23
ENDBRANCH  13   3
ENDBRANCH   7  13
BRANCH   9  14
ATOM     14  C   UNL     1      -5.197   2.907  25.993  0.00  0.00    +0.103 C 
BRANCH  14  18
ATOM      1  O   UNL     1      -6.185   2.111  23.959  0.00  0.00    -0.276 OA
ATOM      4  N   UNL     1      -4.841   0.623  25.123  0.00  0.00    -0.300 N 
ATOM     18  C   UNL     1      -5.463   1.860  24.927  0.00  0.00    +0.216 C 
ATOM     21  C   UNL     1      -3.990   0.349  26.275  0.00  0.00    +0.132 C 
BRANCH   4  20
ATOM     20  C   UNL     1      -4.995  -0.489  24.187  0.00  0.00    +0.142 C 
BRANCH  20  22
ATOM     22  C   UNL     1      -3.834  -1.438  24.244  0.00  0.00    -0.030 A 
ATOM     24  C   UNL     1      -2.577  -0.979  24.639  0.00  0.00    +0.005 A 
ATOM     25  C   UNL     1      -4.011  -2.779  23.905  0.00  0.00    +0.005 A 
ATOM     27  C   UNL     1      -1.497  -1.860  24.694  0.00  0.00    +0.000 A 
ATOM     28  C   UNL     1      -2.932  -3.661  23.958  0.00  0.00    +0.000 A 
ATOM     29  C   UNL     1      -1.675  -3.202  24.353  0.00  0.00    +0.000 A 
ENDBRANCH  20  22
ENDBRANCH   4  20
ENDBRANCH  14  18
ENDBRANCH   9  14
TORSDOF 8
ENDMDL
MODEL 4
REMARK VINA RESULT:      -2.1      2.556      5.461
REMARK  Name = 38027141
REMARK  13 active torsions:
REMARK  status: ('A' for Active; 'I' for Inactive)
REMARK    1  A    between atoms: N_3  and  C_13
REMARK    2  A    between atoms: N_4  and  C_20
REMARK    3  A    between atoms: N_4  and  C_21
REMARK    4  A    between atoms: N_5  and  C_23
REMARK    5  A    between atoms: C_6  and  C_10
REMARK    6  A    between atoms: C_7  and  C_13
REMARK    7  A    between atoms: C_9  and  C_14
REMARK    8  A    between atoms: C_10  and  C_15
REMARK    9  A    between atoms: C_10  and  C_16
REMARK   10  A    between atoms: C_11  and  C_17
REMARK   11  A    between atoms: C_14  and  C_18
REMARK   12  A    between atoms: C_20  and  C_22
REMARK   13  A    between atoms: C_23  and  C_26
REMARK                            x       y       z     vdW  Elec       q    Type
REMARK                         _______ _______ _______ _____ _____    ______ ____
ROOT
ATOM      6  C   UNL     1      -3.534   2.319  23.952  0.00  0.00    +0.000 C 
ATOM      7  C   UNL     1      -4.170   3.495  24.734  0.00  0.00    +0.032 C 
ATOM      8  C   UNL     1      -4.588   1.243  23.650  0.00  0.00    +0.012 C 
ATOM      9  C   UNL     1      -5.233   0.683  24.932  0.00  0.00    +0.023 C 
ATOM     11  C   UNL     1      -5.648   1.788  25.882  0.00  0.00    -0.073 C 
ATOM     12  C   UNL     1      -5.172   3.042  25.770  0.00  0.00    -0.022 C 
ATOM     17  C   UNL     1      -6.657   1.431  26.938  0.00  0.00    +0.039 C 
ENDROOT
BRANCH   6  10
ATOM     10  C   UNL     1      -2.884   2.790  22.647  0.00  0.00    -0.013 C 
ATOM     15  C   UNL     1      -2.355   1.598  21.856  0.00  0.00    +0.007 C 
ATOM     16  C   UNL     1      -3.881   3.590  21.815  0.00  0.00    +0.007 C 
ENDBRANCH   6  10
BRANCH   7  13
ATOM     13  C   UNL     1      -3.097   4.359  25.406  0.00  0.00    +0.113 C 
BRANCH  13   3
ATOM      2  O   UNL     1      -0.216   4.198  25.406  0.00  0.00    -0.253 OA
ATOM      3  N   UNL     1      -2.278   3.568  26.271  0.00  0.00    -0.299 N 
ATOM      5  N   UNL     1      -0.334   2.690  27.165  0.00  0.00    -0.300 N 
ATOM     19  C   UNL     1      -0.879   3.543  26.210  0.00  0.00    +0.300 C 
ATOM     30  H   UNL     1      -2.726   3.043  27.016  0.00  0.00    +0.150 HD
ATOM     31  H   UNL     1      -0.962   2.179  27.777  0.00  0.00    +0.150 HD
BRANCH   5  23
ATOM     23  C   UNL     1       1.087   2.484  27.312  0.00  0.00    +0.102 C 
ATOM     26  C   UNL     1       1.516   2.587  28.761  0.00  0.00    +0.024 C 
ENDBRANCH   5  23
ENDBRANCH  13   3
ENDBRANCH   7  13
BRANCH   9  14
ATOM     14  C   UNL     1      -4.303  -0.317  25.626  0.00  0.00    +0.103 C 
BRANCH  14  18
ATOM      1  O   UNL     1      -3.787  -1.537  23.628  0.00  0.00    -0.276 OA
ATOM      4  N   UNL     1      -2.003  -0.963  24.994  0.00  0.00    -0.300 N 
ATOM     18  C   UNL     1      -3.359  -0.997  24.651  0.00  0.00    +0.216 C 
ATOM     21  C   UNL     1      -1.521  -0.318  26.209  0.00  0.00    +0.132 C 
BRANCH   4  20
ATOM     20  C   UNL     1      -0.969  -1.571  24.160  0.00  0.00    +0.142 C 
BRANCH  20  22
ATOM     22  C   UNL     1       0.091  -0.583  23.769  0.00  0.00    -0.030 A 
ATOM     24  C   UNL     1       1.179  -0.995  22.999  0.00  0.00    +0.005 A 
ATOM     25  C   UNL     1      -0.012   0.748  24.173  0.00  0.00    +0.005 A 
ATOM     27  C   UNL     1       2.164  -0.078  22.634  0.00  0.00    +0.000 A 
ATOM     28  C   UNL     1       0.973   1.666  23.810  0.00  0.00    +0.000 A 
ATOM     29  C   UNL     1       2.061   1.253  23.040  0.00  0.00    +0.000 A 
ENDBRANCH  20  22
ENDBRANCH   4  20
ENDBRANCH  14  18
ENDBRANCH   9  14
TORSDOF 8
ENDMDL
MODEL 5
REMARK VINA RESULT:      -2.1      1.835      6.913
REMARK  Name = 38027141
REMARK  13 active torsions:
REMARK  status: ('A' for Active; 'I' for Inactive)
REMARK    1  A    between atoms: N_3  and  C_13
REMARK    2  A    between atoms: N_4  and  C_20
REMARK    3  A    between atoms: N_4  and  C_21
REMARK    4  A    between atoms: N_5  and  C_23
REMARK    5  A    between atoms: C_6  and  C_10
REMARK    6  A    between atoms: C_7  and  C_13
REMARK    7  A    between atoms: C_9  and  C_14
REMARK    8  A    between atoms: C_10  and  C_15
REMARK    9  A    between atoms: C_10  and  C_16
REMARK   10  A    between atoms: C_11  and  C_17
REMARK   11  A    between atoms: C_14  and  C_18
REMARK   12  A    between atoms: C_20  and  C_22
REMARK   13  A    between atoms: C_23  and  C_26
REMARK                            x       y       z     vdW  Elec       q    Type
REMARK                         _______ _______ _______ _____ _____    ______ ____
ROOT
ATOM      6  C   UNL     1      -3.265   2.762  25.435  0.00  0.00    +0.000 C 
ATOM      7  C   UNL     1      -4.331   2.420  24.366  0.00  0.00    +0.032 C 
ATOM      8  C   UNL     1      -2.078   3.497  24.793  0.00  0.00    +0.012 C 
ATOM      9  C   UNL     1      -1.407   2.664  23.684  0.00  0.00    +0.023 C 
ATOM     11  C   UNL     1      -2.426   2.066  22.736  0.00  0.00    -0.073 C 
ATOM     12  C   UNL     1      -3.731   1.977  23.052  0.00  0.00    -0.022 C 
ATOM     17  C   UNL     1      -1.919   1.611  21.395  0.00  0.00    +0.039 C 
ENDROOT
BRANCH   6  10
ATOM     10  C   UNL     1      -3.848   3.611  26.569  0.00  0.00    -0.013 C 
ATOM     15  C   UNL     1      -2.923   4.782  26.887  0.00  0.00    +0.007 C 
ATOM     16  C   UNL     1      -5.241   4.109  26.198  0.00  0.00    +0.007 C 
ENDBRANCH   6  10
BRANCH   7  13
ATOM     13  C   UNL     1      -5.299   1.345  24.873  0.00  0.00    +0.113 C 
BRANCH  13   3
ATOM      2  O   UNL     1      -3.637  -0.730  25.996  0.00  0.00    -0.253 OA
ATOM      3  N   UNL     1      -4.996   0.075  24.291  0.00  0.00    -0.299 N 
ATOM      5  N   UNL     1      -4.049  -2.028  24.118  0.00  0.00    -0.300 N 
ATOM     19  C   UNL     1      -4.177  -0.884  24.901  0.00  0.00    +0.300 C 
ATOM     30  H   UNL     1      -5.448  -0.178  23.418  0.00  0.00    +0.150 HD
ATOM     31  H   UNL     1      -4.520  -2.059  23.219  0.00  0.00    +0.150 HD
BRANCH   5  23
ATOM     23  C   UNL     1      -3.258  -3.167  24.518  0.00  0.00    +0.102 C 
ATOM     26  C   UNL     1      -1.778  -2.842  24.518  0.00  0.00    +0.024 C 
ENDBRANCH   5  23
ENDBRANCH  13   3
ENDBRANCH   7  13
BRANCH   9  14
ATOM     14  C   UNL     1      -0.507   1.576  24.280  0.00  0.00    +0.103 C 
BRANCH  14  18
ATOM      1  O   UNL     1       1.639   2.262  23.460  0.00  0.00    -0.276 OA
ATOM      4  N   UNL     1       0.881   0.174  22.792  0.00  0.00    -0.300 N 
ATOM     18  C   UNL     1       0.770   1.386  23.482  0.00  0.00    +0.216 C 
ATOM     21  C   UNL     1      -0.159  -0.846  22.833  0.00  0.00    +0.132 C 
BRANCH   4  20
ATOM     20  C   UNL     1       2.049  -0.161  21.980  0.00  0.00    +0.142 C 
BRANCH  20  22
ATOM     22  C   UNL     1       3.304  -0.226  22.800  0.00  0.00    -0.030 A 
ATOM     24  C   UNL     1       4.167   0.869  22.843  0.00  0.00    +0.005 A 
ATOM     25  C   UNL     1       3.609  -1.382  23.520  0.00  0.00    +0.005 A 
ATOM     27  C   UNL     1       5.333   0.810  23.605  0.00  0.00    +0.000 A 
ATOM     28  C   UNL     1       4.776  -1.443  24.281  0.00  0.00    +0.000 A 
ATOM     29  C   UNL     1       5.638  -0.347  24.324  0.00  0.00    +0.000 A 
ENDBRANCH  20  22
ENDBRANCH   4  20
ENDBRANCH  14  18
ENDBRANCH   9  14
TORSDOF 8
ENDMDL
MODEL 6
REMARK VINA RESULT:      -1.5      1.394      7.304
REMARK  Name = 38027141
REMARK  13 active torsions:
REMARK  status: ('A' for Active; 'I' for Inactive)
REMARK    1  A    between atoms: N_3  and  C_13
REMARK    2  A    between atoms: N_4  and  C_20
REMARK    3  A    between atoms: N_4  and  C_21
REMARK    4  A    between atoms: N_5  and  C_23
REMARK    5  A    between atoms: C_6  and  C_10
REMARK    6  A    between atoms: C_7  and  C_13
REMARK    7  A    between atoms: C_9  and  C_14
REMARK    8  A    between atoms: C_10  and  C_15
REMARK    9  A    between atoms: C_10  and  C_16
REMARK   10  A    between atoms: C_11  and  C_17
REMARK   11  A    between atoms: C_14  and  C_18
REMARK   12  A    between atoms: C_20  and  C_22
REMARK   13  A    between atoms: C_23  and  C_26
REMARK                            x       y       z     vdW  Elec       q    Type
REMARK                         _______ _______ _______ _____ _____    ______ ____
ROOT
ATOM      6  C   UNL     1      -2.787  -1.257  24.527  0.00  0.00    +0.000 C 
ATOM      7  C   UNL     1      -3.361  -0.399  25.680  0.00  0.00    +0.032 C 
ATOM      8  C   UNL     1      -1.280  -1.481  24.723  0.00  0.00    +0.012 C 
ATOM      9  C   UNL     1      -0.497  -0.156  24.781  0.00  0.00    +0.023 C 
ATOM     11  C   UNL     1      -1.158   0.849  25.703  0.00  0.00    -0.073 C 
ATOM     12  C   UNL     1      -2.435   0.717  26.104  0.00  0.00    -0.022 C 
ATOM     17  C   UNL     1      -0.304   1.987  26.189  0.00  0.00    +0.039 C 
ENDROOT
BRANCH   6  10
ATOM     10  C   UNL     1      -3.501  -2.608  24.413  0.00  0.00    -0.013 C 
ATOM     15  C   UNL     1      -4.715  -2.493  23.496  0.00  0.00    +0.007 C 
ATOM     16  C   UNL     1      -2.540  -3.677  23.905  0.00  0.00    +0.007 C 
ENDBRANCH   6  10
BRANCH   7  13
ATOM     13  C   UNL     1      -4.728   0.187  25.307  0.00  0.00    +0.113 C 
BRANCH  13   3
ATOM      2  O   UNL     1      -3.464   2.129  23.589  0.00  0.00    -0.253 OA
ATOM      3  N   UNL     1      -4.731   1.607  25.465  0.00  0.00    -0.299 N 
ATOM      5  N   UNL     1      -4.252   3.816  24.973  0.00  0.00    -0.300 N 
ATOM     19  C   UNL     1      -4.091   2.489  24.584  0.00  0.00    +0.300 C 
ATOM     30  H   UNL     1      -5.279   2.010  26.219  0.00  0.00    +0.150 HD
ATOM     31  H   UNL     1      -4.774   4.016  25.820  0.00  0.00    +0.150 HD
BRANCH   5  23
ATOM     23  C   UNL     1      -3.689   4.922  24.236  0.00  0.00    +0.102 C 
ATOM     26  C   UNL     1      -2.273   5.223  24.681  0.00  0.00    +0.024 C 
ENDBRANCH   5  23
ENDBRANCH  13   3
ENDBRANCH   7  13
BRANCH   9  14
ATOM     14  C   UNL     1      -0.302   0.432  23.379  0.00  0.00    +0.103 C 
BRANCH  14  18
ATOM      1  O   UNL     1       1.735   1.625  23.792  0.00  0.00    -0.276 OA
ATOM      4  N   UNL     1       1.745   0.117  22.032  0.00  0.00    -0.300 N 
ATOM     18  C   UNL     1       1.146   0.790  23.102  0.00  0.00    +0.216 C 
ATOM     21  C   UNL     1       1.029  -0.867  21.229  0.00  0.00    +0.132 C 
BRANCH   4  20
ATOM     20  C   UNL     1       3.133   0.348  21.638  0.00  0.00    +0.142 C 
BRANCH  20  22
ATOM     22  C   UNL     1       4.096  -0.034  22.723  0.00  0.00    -0.030 A 
ATOM     24  C   UNL     1       4.086  -1.330  23.241  0.00  0.00    +0.005 A 
ATOM     25  C   UNL     1       5.004   0.905  23.214  0.00  0.00    +0.005 A 
ATOM     27  C   UNL     1       4.981  -1.686  24.249  0.00  0.00    +0.000 A 
ATOM     28  C   UNL     1       5.899   0.550  24.222  0.00  0.00    +0.000 A 
ATOM     29  C   UNL     1       5.888  -0.746  24.740  0.00  0.00    +0.000 A 
ENDBRANCH  20  22
ENDBRANCH   4  20
ENDBRANCH  14  18
ENDBRANCH   9  14
TORSDOF 8
ENDMDL
