MODEL 1
REMARK VINA RESULT:       2.8      0.000      0.000
REMARK  Name = 11867216
REMARK  4 active torsions:
REMARK  status: ('A' for Active; 'I' for Inactive)
REMARK    1  A    between atoms: S_1  and  N_9
REMARK    2  A    between atoms: S_1  and  C_25
REMARK    3  A    between atoms: N_9  and  C_20
REMARK    4  A    between atoms: C_19  and  C_22
REMARK                            x       y       z     vdW  Elec       q    Type
REMARK                         _______ _______ _______ _____ _____    ______ ____
ROOT
ATOM      3  O   UNL     1       0.068   2.752  25.664  0.00  0.00    -0.266 OA
ATOM      4  O   UNL     1      -4.017  -0.015  27.248  0.00  0.00    -0.270 OA
ATOM      7  N   UNL     1      -4.719   1.332  25.469  0.00  0.00    -0.297 N 
ATOM      8  N   UNL     1      -2.022   2.760  24.605  0.00  0.00    -0.310 N 
ATOM     10  C   UNL     1      -4.128   3.741  25.681  0.00  0.00    +0.027 C 
ATOM     11  C   UNL     1      -4.261   2.706  23.451  0.00  0.00    +0.054 C 
ATOM     12  C   UNL     1      -4.583   3.972  24.244  0.00  0.00    +0.018 C 
ATOM     13  C   UNL     1      -4.863   2.533  26.290  0.00  0.00    +0.113 C 
ATOM     14  C   UNL     1      -2.606   3.556  25.693  0.00  0.00    +0.130 C 
ATOM     15  C   UNL     1      -5.039   1.513  24.043  0.00  0.00    +0.117 C 
ATOM     16  C   UNL     1      -2.774   2.409  23.476  0.00  0.00    +0.027 A 
ATOM     17  C   UNL     1      -2.193   1.779  22.438  0.00  0.00    +0.024 A 
ATOM     18  C   UNL     1      -0.648   2.457  24.708  0.00  0.00    +0.274 A 
ATOM     19  C   UNL     1      -4.285   0.143  26.058  0.00  0.00    +0.247 C 
ATOM     20  C   UNL     1      -0.071   1.740  23.544  0.00  0.00    +0.112 A 
ATOM     21  C   UNL     1      -0.798   1.431  22.470  0.00  0.00    +0.031 A 
ENDROOT
BRANCH  19  22
ATOM      2  F   UNL     1      -3.620  -4.323  22.760  0.00  0.00    -0.205 F 
ATOM     22  C   UNL     1      -4.110  -1.028  25.194  0.00  0.00    +0.037 A 
ATOM     23  C   UNL     1      -3.320  -2.093  25.619  0.00  0.00    +0.016 A 
ATOM     24  C   UNL     1      -4.737  -1.072  23.950  0.00  0.00    +0.016 A 
ATOM     26  C   UNL     1      -3.154  -3.207  24.796  0.00  0.00    +0.039 A 
ATOM     27  C   UNL     1      -4.572  -2.186  23.128  0.00  0.00    +0.039 A 
ATOM     28  C   UNL     1      -3.780  -3.254  23.550  0.00  0.00    +0.123 A 
ENDBRANCH  19  22
BRANCH  20   9
ATOM      9  N   UNL     1       1.287   1.372  23.541  0.00  0.00    -0.211 N 
ATOM     34  H   UNL     1       1.903   2.123  23.198  0.00  0.00    +0.174 HD
BRANCH   9   1
ATOM      1  S   UNL     1       1.665  -0.171  22.959  0.00  0.00    +0.072 S 
ATOM      5  O   UNL     1       1.007  -1.176  23.774  0.00  0.00    -0.150 OA
ATOM      6  O   UNL     1       1.527  -0.196  21.515  0.00  0.00    -0.150 OA
BRANCH   1  25
ATOM     25  C   UNL     1       3.393  -0.246  23.326  0.00  0.00    +0.108 A 
ATOM     29  C   UNL     1       4.174   0.880  23.134  0.00  0.00    +0.029 A 
ATOM     30  C   UNL     1       3.932  -1.431  23.797  0.00  0.00    +0.029 A 
ATOM     31  C   UNL     1       5.537   0.820  23.422  0.00  0.00    +0.002 A 
ATOM     32  C   UNL     1       5.296  -1.490  24.086  0.00  0.00    +0.002 A 
ATOM     33  C   UNL     1       6.098  -0.365  23.899  0.00  0.00    +0.000 A 
ENDBRANCH   1  25
ENDBRANCH   9   1
ENDBRANCH  20   9
TORSDOF 4
ENDMDL
MODEL 2
REMARK VINA RESULT:       6.0      3.211      5.928
REMARK  Name = 11867216
REMARK  4 active torsions:
REMARK  status: ('A' for Active; 'I' for Inactive)
REMARK    1  A    between atoms: S_1  and  N_9
REMARK    2  A    between atoms: S_1  and  C_25
REMARK    3  A    between atoms: N_9  and  C_20
REMARK    4  A    between atoms: C_19  and  C_22
REMARK                            x       y       z     vdW  Elec       q    Type
REMARK                         _______ _______ _______ _____ _____    ______ ____
ROOT
ATOM      3  O   UNL     1       0.559   0.520  22.696  0.00  0.00    -0.266 OA
ATOM      4  O   UNL     1      -4.405  -0.954  22.884  0.00  0.00    -0.270 OA
ATOM      7  N   UNL     1      -3.395  -1.604  24.893  0.00  0.00    -0.297 N 
ATOM      8  N   UNL     1      -0.461  -0.441  24.573  0.00  0.00    -0.310 N 
ATOM     10  C   UNL     1      -1.267  -2.870  24.634  0.00  0.00    +0.027 C 
ATOM     11  C   UNL     1      -1.598  -1.422  26.597  0.00  0.00    +0.054 C 
ATOM     12  C   UNL     1      -1.030  -2.763  26.136  0.00  0.00    +0.018 C 
ATOM     13  C   UNL     1      -2.773  -2.798  24.321  0.00  0.00    +0.113 C 
ATOM     14  C   UNL     1      -0.478  -1.761  23.928  0.00  0.00    +0.130 C 
ATOM     15  C   UNL     1      -3.115  -1.380  26.321  0.00  0.00    +0.117 C 
ATOM     16  C   UNL     1      -0.918  -0.267  25.887  0.00  0.00    +0.027 A 
ATOM     17  C   UNL     1      -0.790   0.924  26.502  0.00  0.00    +0.024 A 
ATOM     18  C   UNL     1       0.127   0.614  23.844  0.00  0.00    +0.274 A 
ATOM     19  C   UNL     1      -4.166  -0.773  24.078  0.00  0.00    +0.247 C 
ATOM     20  C   UNL     1       0.217   1.908  24.566  0.00  0.00    +0.112 A 
ATOM     21  C   UNL     1      -0.206   2.049  25.823  0.00  0.00    +0.031 A 
ENDROOT
BRANCH  19  22
ATOM      2  F   UNL     1      -6.339   3.847  26.359  0.00  0.00    -0.205 F 
ATOM     22  C   UNL     1      -4.737   0.439  24.676  0.00  0.00    +0.037 A 
ATOM     23  C   UNL     1      -6.095   0.708  24.535  0.00  0.00    +0.016 A 
ATOM     24  C   UNL     1      -3.916   1.314  25.383  0.00  0.00    +0.016 A 
ATOM     26  C   UNL     1      -6.637   1.861  25.104  0.00  0.00    +0.039 A 
ATOM     27  C   UNL     1      -4.458   2.466  25.953  0.00  0.00    +0.039 A 
ATOM     28  C   UNL     1      -5.819   2.740  25.813  0.00  0.00    +0.123 A 
ENDBRANCH  19  22
BRANCH  20   9
ATOM      9  N   UNL     1       0.771   3.035  23.933  0.00  0.00    -0.211 N 
ATOM     34  H   UNL     1       1.765   3.174  24.164  0.00  0.00    +0.174 HD
BRANCH   9   1
ATOM      1  S   UNL     1      -0.157   4.449  23.929  0.00  0.00    +0.072 S 
ATOM      5  O   UNL     1      -0.367   4.900  25.292  0.00  0.00    -0.150 OA
ATOM      6  O   UNL     1       0.354   5.366  22.928  0.00  0.00    -0.150 OA
BRANCH   1  25
ATOM     25  C   UNL     1      -1.703   3.828  23.336  0.00  0.00    +0.108 A 
ATOM     29  C   UNL     1      -1.712   2.716  22.512  0.00  0.00    +0.029 A 
ATOM     30  C   UNL     1      -2.873   4.467  23.706  0.00  0.00    +0.029 A 
ATOM     31  C   UNL     1      -2.931   2.227  22.044  0.00  0.00    +0.002 A 
ATOM     32  C   UNL     1      -4.092   3.976  23.238  0.00  0.00    +0.002 A 
ATOM     33  C   UNL     1      -4.122   2.857  22.407  0.00  0.00    +0.000 A 
ENDBRANCH   1  25
ENDBRANCH   9   1
ENDBRANCH  20   9
TORSDOF 4
ENDMDL
MODEL 3
REMARK VINA RESULT:       6.5      2.753      4.764
REMARK  Name = 11867216
REMARK  4 active torsions:
REMARK  status: ('A' for Active; 'I' for Inactive)
REMARK    1  A    between atoms: S_1  and  N_9
REMARK    2  A    between atoms: S_1  and  C_25
REMARK    3  A    between atoms: N_9  and  C_20
REMARK    4  A    between atoms: C_19  and  C_22
REMARK                            x       y       z     vdW  Elec       q    Type
REMARK                         _______ _______ _______ _____ _____    ______ ____
ROOT
ATOM      3  O   UNL     1      -1.079  -1.953  22.486  0.00  0.00    -0.266 OA
ATOM      4  O   UNL     1      -3.986   2.333  22.320  0.00  0.00    -0.270 OA
ATOM      7  N   UNL     1      -4.272   1.363  24.430  0.00  0.00    -0.297 N 
ATOM      8  N   UNL     1      -2.279  -1.101  24.309  0.00  0.00    -0.310 N 
ATOM     10  C   UNL     1      -4.837  -1.061  24.401  0.00  0.00    +0.027 C 
ATOM     11  C   UNL     1      -3.531  -0.131  26.270  0.00  0.00    +0.054 C 
ATOM     12  C   UNL     1      -4.643  -1.117  25.912  0.00  0.00    +0.018 C 
ATOM     13  C   UNL     1      -5.229   0.361  23.961  0.00  0.00    +0.113 C 
ATOM     14  C   UNL     1      -3.550  -1.542  23.719  0.00  0.00    +0.130 C 
ATOM     15  C   UNL     1      -3.955   1.295  25.866  0.00  0.00    +0.117 C 
ATOM     16  C   UNL     1      -2.234  -0.495  25.572  0.00  0.00    +0.027 A 
ATOM     17  C   UNL     1      -1.052  -0.202  26.147  0.00  0.00    +0.024 A 
ATOM     18  C   UNL     1      -1.105  -1.409  23.589  0.00  0.00    +0.274 A 
ATOM     19  C   UNL     1      -3.726   2.270  23.521  0.00  0.00    +0.247 C 
ATOM     20  C   UNL     1       0.164  -1.039  24.263  0.00  0.00    +0.112 A 
ATOM     21  C   UNL     1       0.188  -0.480  25.474  0.00  0.00    +0.031 A 
ENDROOT
BRANCH  19  22
ATOM      2  F   UNL     1       0.049   5.932  25.421  0.00  0.00    -0.205 F 
ATOM     22  C   UNL     1      -2.736   3.231  24.019  0.00  0.00    +0.037 A 
ATOM     23  C   UNL     1      -3.159   4.422  24.604  0.00  0.00    +0.016 A 
ATOM     24  C   UNL     1      -1.377   2.948  23.906  0.00  0.00    +0.016 A 
ATOM     26  C   UNL     1      -2.217   5.335  25.078  0.00  0.00    +0.039 A 
ATOM     27  C   UNL     1      -0.435   3.861  24.381  0.00  0.00    +0.039 A 
ATOM     28  C   UNL     1      -0.856   5.055  24.967  0.00  0.00    +0.123 A 
ENDBRANCH  19  22
BRANCH  20   9
ATOM      9  N   UNL     1       1.398  -1.283  23.633  0.00  0.00    -0.211 N 
ATOM     34  H   UNL     1       2.053  -1.810  24.229  0.00  0.00    +0.174 HD
BRANCH   9   1
ATOM      1  S   UNL     1       2.096   0.001  22.782  0.00  0.00    +0.072 S 
ATOM      5  O   UNL     1       2.018  -0.257  21.356  0.00  0.00    -0.150 OA
ATOM      6  O   UNL     1       1.622   1.261  23.324  0.00  0.00    -0.150 OA
BRANCH   1  25
ATOM     25  C   UNL     1       3.791  -0.173  23.256  0.00  0.00    +0.108 A 
ATOM     29  C   UNL     1       4.221  -1.372  23.798  0.00  0.00    +0.029 A 
ATOM     30  C   UNL     1       4.655   0.894  23.078  0.00  0.00    +0.029 A 
ATOM     31  C   UNL     1       5.557  -1.508  24.173  0.00  0.00    +0.002 A 
ATOM     32  C   UNL     1       5.991   0.756  23.452  0.00  0.00    +0.002 A 
ATOM     33  C   UNL     1       6.443  -0.444  24.000  0.00  0.00    +0.000 A 
ENDBRANCH   1  25
ENDBRANCH   9   1
ENDBRANCH  20   9
TORSDOF 4
ENDMDL
