MODEL 1
REMARK VINA RESULT:       3.2      0.000      0.000
REMARK  Name = 7143829
REMARK  7 active torsions:
REMARK  status: ('A' for Active; 'I' for Inactive)
REMARK    1  A    between atoms: S_1  and  C_27
REMARK    2  A    between atoms: S_1  and  C_28
REMARK    3  A    between atoms: N_6  and  C_19
REMARK    4  A    between atoms: N_6  and  C_23
REMARK    5  A    between atoms: N_6  and  C_24
REMARK    6  A    between atoms: C_16  and  C_19
REMARK    7  A    between atoms: C_17  and  C_20
REMARK                            x       y       z     vdW  Elec       q    Type
REMARK                         _______ _______ _______ _____ _____    ______ ____
ROOT
ATOM      2  O   UNL     1      -0.060   2.223  25.690  0.00  0.00    -0.267 OA
ATOM      3  O   UNL     1      -5.431   0.233  26.737  0.00  0.00    -0.274 OA
ATOM      4  N   UNL     1      -5.048   1.931  25.198  0.00  0.00    -0.299 N 
ATOM      5  N   UNL     1      -2.037   2.813  24.604  0.00  0.00    -0.311 N 
ATOM      7  C   UNL     1      -3.925   4.086  25.774  0.00  0.00    +0.027 C 
ATOM      8  C   UNL     1      -4.172   3.432  23.417  0.00  0.00    +0.054 C 
ATOM      9  C   UNL     1      -4.246   4.613  24.381  0.00  0.00    +0.018 C 
ATOM     10  C   UNL     1      -4.938   3.005  26.188  0.00  0.00    +0.113 C 
ATOM     11  C   UNL     1      -2.485   3.562  25.786  0.00  0.00    +0.130 C 
ATOM     12  C   UNL     1      -5.228   2.379  23.809  0.00  0.00    +0.117 C 
ATOM     13  C   UNL     1      -2.791   2.802  23.428  0.00  0.00    +0.027 A 
ATOM     14  C   UNL     1      -2.307   2.214  22.323  0.00  0.00    +0.022 A 
ATOM     15  C   UNL     1      -0.769   2.205  24.682  0.00  0.00    +0.259 A 
ATOM     16  C   UNL     1      -5.057   0.602  25.621  0.00  0.00    +0.230 C 
ATOM     17  C   UNL     1      -0.269   1.521  23.438  0.00  0.00    +0.047 A 
ATOM     18  C   UNL     1      -1.030   1.560  22.334  0.00  0.00    +0.015 A 
ENDROOT
BRANCH  17  20
ATOM     20  C   UNL     1       1.023   0.813  23.423  0.00  0.00    -0.013 A 
ATOM     21  C   UNL     1       1.072  -0.555  23.690  0.00  0.00    +0.010 A 
ATOM     22  C   UNL     1       2.199   1.510  23.139  0.00  0.00    +0.010 A 
ATOM     25  C   UNL     1       2.295  -1.226  23.677  0.00  0.00    +0.015 A 
ATOM     26  C   UNL     1       3.421   0.840  23.126  0.00  0.00    +0.015 A 
ATOM     27  C   UNL     1       3.470  -0.528  23.394  0.00  0.00    +0.008 A 
BRANCH  27   1
ATOM      1  S   UNL     1       5.032  -1.385  23.377  0.00  0.00    -0.129 S 
ATOM     28  C   UNL     1       6.210  -0.010  23.514  0.00  0.00    +0.090 C 
ENDBRANCH  27   1
ENDBRANCH  17  20
BRANCH  16  19
ATOM     19  C   UNL     1      -4.569  -0.425  24.630  0.00  0.00    +0.180 C 
BRANCH  19   6
ATOM      6  N   UNL     1      -3.700  -1.317  25.367  0.00  0.00    -0.300 NA
ATOM     23  C   UNL     1      -2.369  -0.725  25.549  0.00  0.00    +0.105 C 
ATOM     24  C   UNL     1      -3.580  -2.614  24.690  0.00  0.00    +0.105 C 
ENDBRANCH  19   6
ENDBRANCH  16  19
TORSDOF 4
ENDMDL
MODEL 2
REMARK VINA RESULT:       4.7      1.951      3.381
REMARK  Name = 7143829
REMARK  7 active torsions:
REMARK  status: ('A' for Active; 'I' for Inactive)
REMARK    1  A    between atoms: S_1  and  C_27
REMARK    2  A    between atoms: S_1  and  C_28
REMARK    3  A    between atoms: N_6  and  C_19
REMARK    4  A    between atoms: N_6  and  C_23
REMARK    5  A    between atoms: N_6  and  C_24
REMARK    6  A    between atoms: C_16  and  C_19
REMARK    7  A    between atoms: C_17  and  C_20
REMARK                            x       y       z     vdW  Elec       q    Type
REMARK                         _______ _______ _______ _____ _____    ______ ____
ROOT
ATOM      2  O   UNL     1      -1.685   2.207  22.271  0.00  0.00    -0.267 OA
ATOM      3  O   UNL     1      -3.862   5.601  26.473  0.00  0.00    -0.274 OA
ATOM      4  N   UNL     1      -4.702   3.470  26.080  0.00  0.00    -0.299 N 
ATOM      5  N   UNL     1      -3.307   1.656  23.853  0.00  0.00    -0.311 N 
ATOM      7  C   UNL     1      -5.628   2.737  23.879  0.00  0.00    +0.027 C 
ATOM      8  C   UNL     1      -5.044   1.058  25.578  0.00  0.00    +0.054 C 
ATOM      9  C   UNL     1      -6.078   1.429  24.517  0.00  0.00    +0.018 C 
ATOM     10  C   UNL     1      -5.537   3.850  24.938  0.00  0.00    +0.113 C 
ATOM     11  C   UNL     1      -4.289   2.508  23.168  0.00  0.00    +0.130 C 
ATOM     12  C   UNL     1      -5.001   2.153  26.661  0.00  0.00    +0.117 C 
ATOM     13  C   UNL     1      -3.666   0.889  24.963  0.00  0.00    +0.027 A 
ATOM     14  C   UNL     1      -2.788   0.027  25.499  0.00  0.00    +0.022 A 
ATOM     15  C   UNL     1      -2.027   1.572  23.271  0.00  0.00    +0.259 A 
ATOM     16  C   UNL     1      -3.767   4.376  26.581  0.00  0.00    +0.230 C 
ATOM     17  C   UNL     1      -1.052   0.625  23.916  0.00  0.00    +0.047 A 
ATOM     18  C   UNL     1      -1.460  -0.099  24.969  0.00  0.00    +0.015 A 
ENDROOT
BRANCH  17  20
ATOM     20  C   UNL     1       0.328   0.494  23.418  0.00  0.00    -0.013 A 
ATOM     21  C   UNL     1       1.328   1.341  23.898  0.00  0.00    +0.010 A 
ATOM     22  C   UNL     1       0.638  -0.479  22.465  0.00  0.00    +0.010 A 
ATOM     25  C   UNL     1       2.635   1.217  23.426  0.00  0.00    +0.015 A 
ATOM     26  C   UNL     1       1.944  -0.603  21.993  0.00  0.00    +0.015 A 
ATOM     27  C   UNL     1       2.942   0.245  22.473  0.00  0.00    +0.008 A 
BRANCH  27   1
ATOM      1  S   UNL     1       4.611   0.087  21.870  0.00  0.00    -0.129 S 
ATOM     28  C   UNL     1       5.559   0.018  23.417  0.00  0.00    +0.090 C 
ENDBRANCH  27   1
ENDBRANCH  17  20
BRANCH  16  19
ATOM     19  C   UNL     1      -2.572   3.790  27.290  0.00  0.00    +0.180 C 
BRANCH  19   6
ATOM      6  N   UNL     1      -1.661   3.353  26.254  0.00  0.00    -0.300 NA
ATOM     23  C   UNL     1      -0.438   2.782  26.833  0.00  0.00    +0.105 C 
ATOM     24  C   UNL     1      -1.316   4.461  25.355  0.00  0.00    +0.105 C 
ENDBRANCH  19   6
ENDBRANCH  16  19
TORSDOF 4
ENDMDL
