MODEL 1
REMARK VINA RESULT:       0.5      0.000      0.000
REMARK  Name = 45783372
REMARK  10 active torsions:
REMARK  status: ('A' for Active; 'I' for Inactive)
REMARK    1  A    between atoms: O_2  and  C_26
REMARK    2  A    between atoms: O_4  and  C_30
REMARK    3  A    between atoms: O_4  and  C_31
REMARK    4  A    between atoms: N_5  and  C_14
REMARK    5  A    between atoms: N_8  and  C_28
REMARK    6  A    between atoms: C_10  and  C_15
REMARK    7  A    between atoms: C_14  and  C_16
REMARK    8  A    between atoms: C_19  and  C_22
REMARK    9  A    between atoms: C_23  and  C_26
REMARK   10  A    between atoms: C_28  and  C_30
REMARK                            x       y       z     vdW  Elec       q    Type
REMARK                         _______ _______ _______ _____ _____    ______ ____
ROOT
ATOM      1  O   UNL     1      -0.464   3.264  25.889  0.00  0.00    -0.336 OA
ATOM      6  N   UNL     1      -0.437   2.857  23.687  0.00  0.00    -0.190 NA
ATOM      7  N   UNL     1       0.604   2.385  25.669  0.00  0.00    -0.056 NA
ATOM     15  C   UNL     1      -1.024   3.490  24.672  0.00  0.00    +0.245 A 
ATOM     19  C   UNL     1       0.555   2.193  24.347  0.00  0.00    +0.205 A 
ENDROOT
BRANCH  19  22
ATOM      8  N   UNL     1      -0.015  -0.540  23.829  0.00  0.00    -0.326 N 
ATOM      9  N   UNL     1       2.071  -0.818  22.746  0.00  0.00    -0.240 NA
ATOM     22  C   UNL     1       1.481   1.343  23.656  0.00  0.00    +0.062 A 
ATOM     24  C   UNL     1       1.219   0.007  23.395  0.00  0.00    +0.130 A 
ATOM     25  C   UNL     1       2.696   1.865  23.224  0.00  0.00    +0.016 A 
ATOM     27  C   UNL     1       3.598   1.047  22.553  0.00  0.00    +0.020 A 
ATOM     29  C   UNL     1       3.241  -0.275  22.340  0.00  0.00    +0.113 A 
ATOM     32  H   UNL     1      -0.771   0.120  23.973  0.00  0.00    +0.148 HD
BRANCH   8  28
ATOM     28  C   UNL     1      -0.373  -1.903  23.605  0.00  0.00    +0.131 C 
BRANCH  28  30
ATOM     30  C   UNL     1      -0.645  -2.593  24.930  0.00  0.00    +0.178 C 
BRANCH  30   4
ATOM      4  O   UNL     1      -0.275  -1.731  25.998  0.00  0.00    -0.381 OA
ATOM     31  C   UNL     1      -1.290  -0.777  26.273  0.00  0.00    +0.194 C 
ENDBRANCH  30   4
ENDBRANCH  28  30
ENDBRANCH   8  28
ENDBRANCH  19  22
BRANCH  15  10
ATOM      5  N   UNL     1      -3.478   3.744  25.000  0.00  0.00    -0.287 NA
ATOM     10  C   UNL     1      -2.216   4.422  24.640  0.00  0.00    +0.146 C 
ATOM     11  C   UNL     1      -2.093   5.579  25.649  0.00  0.00    +0.030 C 
ATOM     12  C   UNL     1      -3.358   5.508  26.492  0.00  0.00    +0.017 C 
ATOM     13  C   UNL     1      -4.336   4.761  25.607  0.00  0.00    +0.085 C 
BRANCH   5  14
ATOM     14  C   UNL     1      -4.120   3.088  23.868  0.00  0.00    +0.120 C 
BRANCH  14  16
ATOM     16  C   UNL     1      -4.092   1.589  23.998  0.00  0.00    -0.033 A 
ATOM     17  C   UNL     1      -3.424   0.819  23.045  0.00  0.00    +0.006 A 
ATOM     18  C   UNL     1      -4.733   0.970  25.070  0.00  0.00    +0.006 A 
ATOM     20  C   UNL     1      -3.398  -0.570  23.165  0.00  0.00    +0.015 A 
ATOM     21  C   UNL     1      -4.708  -0.421  25.190  0.00  0.00    +0.015 A 
ATOM     23  C   UNL     1      -4.040  -1.190  24.237  0.00  0.00    +0.059 A 
BRANCH  23  26
ATOM      3  O   UNL     1      -3.582  -3.264  25.340  0.00  0.00    -0.245 OA
ATOM     26  C   UNL     1      -4.012  -2.639  24.364  0.00  0.00    +0.337 C 
BRANCH  26   2
ATOM      2  O   UNL     1      -4.521  -3.267  23.269  0.00  0.00    -0.477 OA
ATOM     33  H   UNL     1      -5.493  -3.380  23.333  0.00  0.00    +0.295 HD
ENDBRANCH  26   2
ENDBRANCH  23  26
ENDBRANCH  14  16
ENDBRANCH   5  14
ENDBRANCH  15  10
TORSDOF 9
ENDMDL
MODEL 2
REMARK VINA RESULT:       0.9      1.617      2.911
REMARK  Name = 45783372
REMARK  10 active torsions:
REMARK  status: ('A' for Active; 'I' for Inactive)
REMARK    1  A    between atoms: O_2  and  C_26
REMARK    2  A    between atoms: O_4  and  C_30
REMARK    3  A    between atoms: O_4  and  C_31
REMARK    4  A    between atoms: N_5  and  C_14
REMARK    5  A    between atoms: N_8  and  C_28
REMARK    6  A    between atoms: C_10  and  C_15
REMARK    7  A    between atoms: C_14  and  C_16
REMARK    8  A    between atoms: C_19  and  C_22
REMARK    9  A    between atoms: C_23  and  C_26
REMARK   10  A    between atoms: C_28  and  C_30
REMARK                            x       y       z     vdW  Elec       q    Type
REMARK                         _______ _______ _______ _____ _____    ______ ____
ROOT
ATOM      1  O   UNL     1      -0.493   3.593  24.164  0.00  0.00    -0.336 OA
ATOM      6  N   UNL     1      -1.738   1.819  24.728  0.00  0.00    -0.190 NA
ATOM      7  N   UNL     1       0.370   2.490  24.143  0.00  0.00    -0.056 NA
ATOM     15  C   UNL     1      -1.713   3.111  24.518  0.00  0.00    +0.245 A 
ATOM     19  C   UNL     1      -0.438   1.481  24.486  0.00  0.00    +0.205 A 
ENDROOT
BRANCH  19  22
ATOM      8  N   UNL     1       1.838   0.547  23.068  0.00  0.00    -0.326 N 
ATOM      9  N   UNL     1       1.588  -1.614  23.998  0.00  0.00    -0.240 NA
ATOM     22  C   UNL     1       0.022   0.128  24.597  0.00  0.00    +0.062 A 
ATOM     24  C   UNL     1       1.131  -0.345  23.913  0.00  0.00    +0.130 A 
ATOM     25  C   UNL     1      -0.661  -0.760  25.422  0.00  0.00    +0.016 A 
ATOM     27  C   UNL     1      -0.221  -2.073  25.536  0.00  0.00    +0.020 A 
ATOM     29  C   UNL     1       0.899  -2.448  24.810  0.00  0.00    +0.113 A 
ATOM     32  H   UNL     1       1.735   1.535  23.274  0.00  0.00    +0.148 HD
BRANCH   8  28
ATOM     28  C   UNL     1       2.990   0.153  22.324  0.00  0.00    +0.131 C 
BRANCH  28  30
ATOM     30  C   UNL     1       4.203   0.938  22.790  0.00  0.00    +0.178 C 
BRANCH  30   4
ATOM      4  O   UNL     1       5.315   0.061  22.916  0.00  0.00    -0.381 OA
ATOM     31  C   UNL     1       5.371  -0.527  24.207  0.00  0.00    +0.194 C 
ENDBRANCH  30   4
ENDBRANCH  28  30
ENDBRANCH   8  28
ENDBRANCH  19  22
BRANCH  15  10
ATOM      5  N   UNL     1      -4.001   3.607  25.361  0.00  0.00    -0.287 NA
ATOM     10  C   UNL     1      -2.836   4.121  24.613  0.00  0.00    +0.146 C 
ATOM     11  C   UNL     1      -2.424   5.401  25.363  0.00  0.00    +0.030 C 
ATOM     12  C   UNL     1      -3.449   5.557  26.478  0.00  0.00    +0.017 C 
ATOM     13  C   UNL     1      -4.643   4.768  25.977  0.00  0.00    +0.085 C 
BRANCH   5  14
ATOM     14  C   UNL     1      -4.926   2.845  24.532  0.00  0.00    +0.120 C 
BRANCH  14  16
ATOM     16  C   UNL     1      -4.585   1.379  24.511  0.00  0.00    -0.033 A 
ATOM     17  C   UNL     1      -4.127   0.786  23.335  0.00  0.00    +0.006 A 
ATOM     18  C   UNL     1      -4.727   0.614  25.669  0.00  0.00    +0.006 A 
ATOM     20  C   UNL     1      -3.811  -0.572  23.316  0.00  0.00    +0.015 A 
ATOM     21  C   UNL     1      -4.411  -0.745  25.650  0.00  0.00    +0.015 A 
ATOM     23  C   UNL     1      -3.953  -1.338  24.473  0.00  0.00    +0.059 A 
BRANCH  23  26
ATOM      3  O   UNL     1      -3.564  -3.462  23.444  0.00  0.00    -0.245 OA
ATOM     26  C   UNL     1      -3.623  -2.754  24.455  0.00  0.00    +0.337 C 
BRANCH  26   2
ATOM      2  O   UNL     1      -3.376  -3.247  25.700  0.00  0.00    -0.477 OA
ATOM     33  H   UNL     1      -2.457  -3.061  25.990  0.00  0.00    +0.295 HD
ENDBRANCH  26   2
ENDBRANCH  23  26
ENDBRANCH  14  16
ENDBRANCH   5  14
ENDBRANCH  15  10
TORSDOF 9
ENDMDL
MODEL 3
REMARK VINA RESULT:       1.2      2.319      5.525
REMARK  Name = 45783372
REMARK  10 active torsions:
REMARK  status: ('A' for Active; 'I' for Inactive)
REMARK    1  A    between atoms: O_2  and  C_26
REMARK    2  A    between atoms: O_4  and  C_30
REMARK    3  A    between atoms: O_4  and  C_31
REMARK    4  A    between atoms: N_5  and  C_14
REMARK    5  A    between atoms: N_8  and  C_28
REMARK    6  A    between atoms: C_10  and  C_15
REMARK    7  A    between atoms: C_14  and  C_16
REMARK    8  A    between atoms: C_19  and  C_22
REMARK    9  A    between atoms: C_23  and  C_26
REMARK   10  A    between atoms: C_28  and  C_30
REMARK                            x       y       z     vdW  Elec       q    Type
REMARK                         _______ _______ _______ _____ _____    ______ ____
ROOT
ATOM      1  O   UNL     1      -1.297  -0.568  26.702  0.00  0.00    -0.336 OA
ATOM      6  N   UNL     1      -1.832   0.378  24.743  0.00  0.00    -0.190 NA
ATOM      7  N   UNL     1      -0.729   0.713  26.720  0.00  0.00    -0.056 NA
ATOM     15  C   UNL     1      -1.926  -0.684  25.504  0.00  0.00    +0.245 A 
ATOM     19  C   UNL     1      -1.089   1.208  25.531  0.00  0.00    +0.205 A 
ENDROOT
BRANCH  19  22
ATOM      8  N   UNL     1       1.163   1.668  23.864  0.00  0.00    -0.326 N 
ATOM      9  N   UNL     1       0.746   3.997  23.865  0.00  0.00    -0.240 NA
ATOM     22  C   UNL     1      -0.720   2.525  25.101  0.00  0.00    +0.062 A 
ATOM     24  C   UNL     1       0.375   2.768  24.287  0.00  0.00    +0.130 A 
ATOM     25  C   UNL     1      -1.483   3.615  25.508  0.00  0.00    +0.016 A 
ATOM     27  C   UNL     1      -1.133   4.895  25.094  0.00  0.00    +0.020 A 
ATOM     29  C   UNL     1      -0.019   5.032  24.280  0.00  0.00    +0.113 A 
ATOM     32  H   UNL     1       0.705   0.763  23.864  0.00  0.00    +0.148 HD
BRANCH   8  28
ATOM     28  C   UNL     1       2.308   1.819  23.025  0.00  0.00    +0.131 C 
BRANCH  28  30
ATOM     30  C   UNL     1       2.915   0.460  22.725  0.00  0.00    +0.178 C 
BRANCH  30   4
ATOM      4  O   UNL     1       4.291   0.617  22.403  0.00  0.00    -0.381 OA
ATOM     31  C   UNL     1       5.126   0.250  23.492  0.00  0.00    +0.194 C 
ENDBRANCH  30   4
ENDBRANCH  28  30
ENDBRANCH   8  28
ENDBRANCH  19  22
BRANCH  15  10
ATOM      5  N   UNL     1      -3.597  -1.907  24.123  0.00  0.00    -0.287 NA
ATOM     10  C   UNL     1      -2.630  -1.998  25.235  0.00  0.00    +0.146 C 
ATOM     11  C   UNL     1      -1.659  -3.118  24.820  0.00  0.00    +0.030 C 
ATOM     12  C   UNL     1      -2.195  -3.637  23.493  0.00  0.00    +0.017 C 
ATOM     13  C   UNL     1      -3.657  -3.238  23.519  0.00  0.00    +0.085 C 
BRANCH   5  14
ATOM     14  C   UNL     1      -4.910  -1.434  24.540  0.00  0.00    +0.120 C 
BRANCH  14  16
ATOM     16  C   UNL     1      -4.955   0.066  24.660  0.00  0.00    -0.033 A 
ATOM     17  C   UNL     1      -5.613   0.660  25.737  0.00  0.00    +0.006 A 
ATOM     18  C   UNL     1      -4.339   0.861  23.694  0.00  0.00    +0.006 A 
ATOM     20  C   UNL     1      -5.655   2.049  25.847  0.00  0.00    +0.015 A 
ATOM     21  C   UNL     1      -4.380   2.252  23.805  0.00  0.00    +0.015 A 
ATOM     23  C   UNL     1      -5.039   2.845  24.882  0.00  0.00    +0.059 A 
BRANCH  23  26
ATOM      3  O   UNL     1      -4.277   5.077  24.479  0.00  0.00    -0.245 OA
ATOM     26  C   UNL     1      -5.080   4.295  24.997  0.00  0.00    +0.337 C 
BRANCH  26   2
ATOM      2  O   UNL     1      -6.124   4.727  25.757  0.00  0.00    -0.477 OA
ATOM     33  H   UNL     1      -6.904   4.139  25.673  0.00  0.00    +0.295 HD
ENDBRANCH  26   2
ENDBRANCH  23  26
ENDBRANCH  14  16
ENDBRANCH   5  14
ENDBRANCH  15  10
TORSDOF 9
ENDMDL
MODEL 4
REMARK VINA RESULT:       1.6      2.572      7.576
REMARK  Name = 45783372
REMARK  10 active torsions:
REMARK  status: ('A' for Active; 'I' for Inactive)
REMARK    1  A    between atoms: O_2  and  C_26
REMARK    2  A    between atoms: O_4  and  C_30
REMARK    3  A    between atoms: O_4  and  C_31
REMARK    4  A    between atoms: N_5  and  C_14
REMARK    5  A    between atoms: N_8  and  C_28
REMARK    6  A    between atoms: C_10  and  C_15
REMARK    7  A    between atoms: C_14  and  C_16
REMARK    8  A    between atoms: C_19  and  C_22
REMARK    9  A    between atoms: C_23  and  C_26
REMARK   10  A    between atoms: C_28  and  C_30
REMARK                            x       y       z     vdW  Elec       q    Type
REMARK                         _______ _______ _______ _____ _____    ______ ____
ROOT
ATOM      1  O   UNL     1      -3.880  -1.323  23.841  0.00  0.00    -0.336 OA
ATOM      6  N   UNL     1      -2.780   0.424  24.710  0.00  0.00    -0.190 NA
ATOM      7  N   UNL     1      -4.843  -0.333  24.071  0.00  0.00    -0.056 NA
ATOM     15  C   UNL     1      -2.694  -0.797  24.245  0.00  0.00    +0.245 A 
ATOM     19  C   UNL     1      -4.117   0.667  24.583  0.00  0.00    +0.205 A 
ENDROOT
BRANCH  19  22
ATOM      8  N   UNL     1      -2.598   3.064  24.677  0.00  0.00    -0.326 N 
ATOM      9  N   UNL     1      -4.489   4.288  25.400  0.00  0.00    -0.240 NA
ATOM     22  C   UNL     1      -4.696   1.917  24.980  0.00  0.00    +0.062 A 
ATOM     24  C   UNL     1      -3.970   3.096  25.031  0.00  0.00    +0.130 A 
ATOM     25  C   UNL     1      -6.041   1.965  25.331  0.00  0.00    +0.016 A 
ATOM     27  C   UNL     1      -6.611   3.173  25.715  0.00  0.00    +0.020 A 
ATOM     29  C   UNL     1      -5.799   4.297  25.733  0.00  0.00    +0.113 A 
ATOM     32  H   UNL     1      -2.308   2.300  24.075  0.00  0.00    +0.148 HD
BRANCH   8  28
ATOM     28  C   UNL     1      -1.770   4.226  24.698  0.00  0.00    +0.131 C 
BRANCH  28  30
ATOM     30  C   UNL     1      -0.309   3.826  24.579  0.00  0.00    +0.178 C 
BRANCH  30   4
ATOM      4  O   UNL     1      -0.141   2.499  25.059  0.00  0.00    -0.381 OA
ATOM     31  C   UNL     1       0.118   2.479  26.455  0.00  0.00    +0.194 C 
ENDBRANCH  30   4
ENDBRANCH  28  30
ENDBRANCH   8  28
ENDBRANCH  19  22
BRANCH  15  10
ATOM      5  N   UNL     1      -0.213  -0.963  24.351  0.00  0.00    -0.287 NA
ATOM     10  C   UNL     1      -1.476  -1.685  24.098  0.00  0.00    +0.146 C 
ATOM     11  C   UNL     1      -1.468  -2.853  25.101  0.00  0.00    +0.030 C 
ATOM     12  C   UNL     1      -0.136  -2.741  25.830  0.00  0.00    +0.017 C 
ATOM     13  C   UNL     1       0.732  -1.953  24.869  0.00  0.00    +0.085 C 
BRANCH   5  14
ATOM     14  C   UNL     1       0.302  -0.276  23.174  0.00  0.00    +0.120 C 
BRANCH  14  16
ATOM     16  C   UNL     1       1.805  -0.187  23.190  0.00  0.00    -0.033 A 
ATOM     17  C   UNL     1       2.436   1.005  22.835  0.00  0.00    +0.006 A 
ATOM     18  C   UNL     1       2.565  -1.297  23.558  0.00  0.00    +0.006 A 
ATOM     20  C   UNL     1       3.828   1.087  22.850  0.00  0.00    +0.015 A 
ATOM     21  C   UNL     1       3.959  -1.214  23.572  0.00  0.00    +0.015 A 
ATOM     23  C   UNL     1       4.590  -0.022  23.218  0.00  0.00    +0.059 A 
BRANCH  23  26
ATOM      3  O   UNL     1       6.799  -0.467  22.414  0.00  0.00    -0.245 OA
ATOM     26  C   UNL     1       6.041   0.064  23.234  0.00  0.00    +0.337 C 
BRANCH  26   2
ATOM      2  O   UNL     1       6.508   0.809  24.274  0.00  0.00    -0.477 OA
ATOM     33  H   UNL     1       7.364   0.471  24.610  0.00  0.00    +0.295 HD
ENDBRANCH  26   2
ENDBRANCH  23  26
ENDBRANCH  14  16
ENDBRANCH   5  14
ENDBRANCH  15  10
TORSDOF 9
ENDMDL
MODEL 5
REMARK VINA RESULT:       1.8      2.144      3.330
REMARK  Name = 45783372
REMARK  10 active torsions:
REMARK  status: ('A' for Active; 'I' for Inactive)
REMARK    1  A    between atoms: O_2  and  C_26
REMARK    2  A    between atoms: O_4  and  C_30
REMARK    3  A    between atoms: O_4  and  C_31
REMARK    4  A    between atoms: N_5  and  C_14
REMARK    5  A    between atoms: N_8  and  C_28
REMARK    6  A    between atoms: C_10  and  C_15
REMARK    7  A    between atoms: C_14  and  C_16
REMARK    8  A    between atoms: C_19  and  C_22
REMARK    9  A    between atoms: C_23  and  C_26
REMARK   10  A    between atoms: C_28  and  C_30
REMARK                            x       y       z     vdW  Elec       q    Type
REMARK                         _______ _______ _______ _____ _____    ______ ____
ROOT
ATOM      1  O   UNL     1      -3.557   2.442  22.231  0.00  0.00    -0.336 OA
ATOM      6  N   UNL     1      -2.508   1.918  24.139  0.00  0.00    -0.190 NA
ATOM      7  N   UNL     1      -2.275   2.015  21.865  0.00  0.00    -0.056 NA
ATOM     15  C   UNL     1      -3.612   2.355  23.585  0.00  0.00    +0.245 A 
ATOM     19  C   UNL     1      -1.717   1.723  23.045  0.00  0.00    +0.205 A 
ENDROOT
BRANCH  19  22
ATOM      8  N   UNL     1       0.055   2.686  25.043  0.00  0.00    -0.326 N 
ATOM      9  N   UNL     1       1.777   1.258  24.270  0.00  0.00    -0.240 NA
ATOM     22  C   UNL     1      -0.373   1.238  23.164  0.00  0.00    +0.062 A 
ATOM     24  C   UNL     1       0.505   1.696  24.133  0.00  0.00    +0.130 A 
ATOM     25  C   UNL     1       0.084   0.267  22.279  0.00  0.00    +0.016 A 
ATOM     27  C   UNL     1       1.385  -0.209  22.389  0.00  0.00    +0.020 A 
ATOM     29  C   UNL     1       2.185   0.314  23.392  0.00  0.00    +0.113 A 
ATOM     32  H   UNL     1      -0.948   2.746  25.180  0.00  0.00    +0.148 HD
BRANCH   8  28
ATOM     28  C   UNL     1       0.886   3.218  26.074  0.00  0.00    +0.131 C 
BRANCH  28  30
ATOM     30  C   UNL     1       0.631   2.484  27.379  0.00  0.00    +0.178 C 
BRANCH  30   4
ATOM      4  O   UNL     1       1.718   2.705  28.268  0.00  0.00    -0.381 OA
ATOM     31  C   UNL     1       1.384   2.346  29.600  0.00  0.00    +0.194 C 
ENDBRANCH  30   4
ENDBRANCH  28  30
ENDBRANCH   8  28
ENDBRANCH  19  22
BRANCH  15  10
ATOM      5  N   UNL     1      -5.056   2.237  25.609  0.00  0.00    -0.287 NA
ATOM     10  C   UNL     1      -4.916   2.765  24.237  0.00  0.00    +0.146 C 
ATOM     11  C   UNL     1      -5.049   4.292  24.389  0.00  0.00    +0.030 C 
ATOM     12  C   UNL     1      -5.323   4.521  25.869  0.00  0.00    +0.017 C 
ATOM     13  C   UNL     1      -5.889   3.195  26.336  0.00  0.00    +0.085 C 
BRANCH   5  14
ATOM     14  C   UNL     1      -5.607   0.889  25.652  0.00  0.00    +0.120 C 
BRANCH  14  16
ATOM     16  C   UNL     1      -4.581  -0.148  25.279  0.00  0.00    -0.033 A 
ATOM     17  C   UNL     1      -4.727  -0.881  24.101  0.00  0.00    +0.006 A 
ATOM     18  C   UNL     1      -3.486  -0.376  26.111  0.00  0.00    +0.006 A 
ATOM     20  C   UNL     1      -3.776  -1.841  23.756  0.00  0.00    +0.015 A 
ATOM     21  C   UNL     1      -2.535  -1.337  25.766  0.00  0.00    +0.015 A 
ATOM     23  C   UNL     1      -2.681  -2.070  24.588  0.00  0.00    +0.059 A 
BRANCH  23  26
ATOM      3  O   UNL     1      -1.784  -3.867  23.288  0.00  0.00    -0.245 OA
ATOM     26  C   UNL     1      -1.689  -3.071  24.228  0.00  0.00    +0.337 C 
BRANCH  26   2
ATOM      2  O   UNL     1      -0.605  -3.049  25.052  0.00  0.00    -0.477 OA
ATOM     33  H   UNL     1      -0.564  -3.847  25.621  0.00  0.00    +0.295 HD
ENDBRANCH  26   2
ENDBRANCH  23  26
ENDBRANCH  14  16
ENDBRANCH   5  14
ENDBRANCH  15  10
TORSDOF 9
ENDMDL
MODEL 6
REMARK VINA RESULT:       1.9      1.997      5.406
REMARK  Name = 45783372
REMARK  10 active torsions:
REMARK  status: ('A' for Active; 'I' for Inactive)
REMARK    1  A    between atoms: O_2  and  C_26
REMARK    2  A    between atoms: O_4  and  C_30
REMARK    3  A    between atoms: O_4  and  C_31
REMARK    4  A    between atoms: N_5  and  C_14
REMARK    5  A    between atoms: N_8  and  C_28
REMARK    6  A    between atoms: C_10  and  C_15
REMARK    7  A    between atoms: C_14  and  C_16
REMARK    8  A    between atoms: C_19  and  C_22
REMARK    9  A    between atoms: C_23  and  C_26
REMARK   10  A    between atoms: C_28  and  C_30
REMARK                            x       y       z     vdW  Elec       q    Type
REMARK                         _______ _______ _______ _____ _____    ______ ____
ROOT
ATOM      1  O   UNL     1      -0.592  -2.807  25.401  0.00  0.00    -0.336 OA
ATOM      6  N   UNL     1      -0.999  -1.168  23.929  0.00  0.00    -0.190 NA
ATOM      7  N   UNL     1       0.638  -2.177  25.170  0.00  0.00    -0.056 NA
ATOM     15  C   UNL     1      -1.501  -2.153  24.632  0.00  0.00    +0.245 A 
ATOM     19  C   UNL     1       0.315  -1.221  24.292  0.00  0.00    +0.205 A 
ENDROOT
BRANCH  19  22
ATOM      8  N   UNL     1       0.061   1.589  24.611  0.00  0.00    -0.326 N 
ATOM      9  N   UNL     1       2.068   1.953  23.410  0.00  0.00    -0.240 NA
ATOM     22  C   UNL     1       1.281  -0.307  23.756  0.00  0.00    +0.062 A 
ATOM     24  C   UNL     1       1.173   1.067  23.903  0.00  0.00    +0.130 A 
ATOM     25  C   UNL     1       2.378  -0.803  23.059  0.00  0.00    +0.016 A 
ATOM     27  C   UNL     1       3.319   0.077  22.538  0.00  0.00    +0.020 A 
ATOM     29  C   UNL     1       3.121   1.434  22.739  0.00  0.00    +0.113 A 
ATOM     32  H   UNL     1      -0.388   0.958  25.267  0.00  0.00    +0.148 HD
BRANCH   8  28
ATOM     28  C   UNL     1      -0.134   2.987  24.813  0.00  0.00    +0.131 C 
BRANCH  28  30
ATOM     30  C   UNL     1      -1.006   3.219  26.035  0.00  0.00    +0.178 C 
BRANCH  30   4
ATOM      4  O   UNL     1      -1.744   4.423  25.869  0.00  0.00    -0.381 OA
ATOM     31  C   UNL     1      -1.123   5.289  24.930  0.00  0.00    +0.194 C 
ENDBRANCH  30   4
ENDBRANCH  28  30
ENDBRANCH   8  28
ENDBRANCH  19  22
BRANCH  15  10
ATOM      5  N   UNL     1      -3.916  -1.581  24.454  0.00  0.00    -0.287 NA
ATOM     10  C   UNL     1      -2.929  -2.651  24.705  0.00  0.00    +0.146 C 
ATOM     11  C   UNL     1      -3.239  -3.725  23.647  0.00  0.00    +0.030 C 
ATOM     12  C   UNL     1      -4.451  -3.201  22.890  0.00  0.00    +0.017 C 
ATOM     13  C   UNL     1      -5.088  -2.231  23.865  0.00  0.00    +0.085 C 
BRANCH   5  14
ATOM     14  C   UNL     1      -4.255  -0.820  25.649  0.00  0.00    +0.120 C 
BRANCH  14  16
ATOM     16  C   UNL     1      -4.439   0.644  25.349  0.00  0.00    -0.033 A 
ATOM     17  C   UNL     1      -5.382   1.388  26.058  0.00  0.00    +0.006 A 
ATOM     18  C   UNL     1      -3.666   1.255  24.362  0.00  0.00    +0.006 A 
ATOM     20  C   UNL     1      -5.552   2.744  25.779  0.00  0.00    +0.015 A 
ATOM     21  C   UNL     1      -3.836   2.613  24.084  0.00  0.00    +0.015 A 
ATOM     23  C   UNL     1      -4.779   3.356  24.793  0.00  0.00    +0.059 A 
BRANCH  23  26
ATOM      3  O   UNL     1      -4.292   5.422  23.688  0.00  0.00    -0.245 OA
ATOM     26  C   UNL     1      -4.955   4.771  24.503  0.00  0.00    +0.337 C 
BRANCH  26   2
ATOM      2  O   UNL     1      -5.954   5.333  25.238  0.00  0.00    -0.477 OA
ATOM     33  H   UNL     1      -6.475   5.976  24.713  0.00  0.00    +0.295 HD
ENDBRANCH  26   2
ENDBRANCH  23  26
ENDBRANCH  14  16
ENDBRANCH   5  14
ENDBRANCH  15  10
TORSDOF 9
ENDMDL
MODEL 7
REMARK VINA RESULT:       3.4      2.292      5.274
REMARK  Name = 45783372
REMARK  10 active torsions:
REMARK  status: ('A' for Active; 'I' for Inactive)
REMARK    1  A    between atoms: O_2  and  C_26
REMARK    2  A    between atoms: O_4  and  C_30
REMARK    3  A    between atoms: O_4  and  C_31
REMARK    4  A    between atoms: N_5  and  C_14
REMARK    5  A    between atoms: N_8  and  C_28
REMARK    6  A    between atoms: C_10  and  C_15
REMARK    7  A    between atoms: C_14  and  C_16
REMARK    8  A    between atoms: C_19  and  C_22
REMARK    9  A    between atoms: C_23  and  C_26
REMARK   10  A    between atoms: C_28  and  C_30
REMARK                            x       y       z     vdW  Elec       q    Type
REMARK                         _______ _______ _______ _____ _____    ______ ____
ROOT
ATOM      1  O   UNL     1      -5.672   1.222  24.686  0.00  0.00    -0.336 OA
ATOM      6  N   UNL     1      -3.477   0.834  24.900  0.00  0.00    -0.190 NA
ATOM      7  N   UNL     1      -5.482  -0.127  24.361  0.00  0.00    -0.056 NA
ATOM     15  C   UNL     1      -4.443   1.714  24.989  0.00  0.00    +0.245 A 
ATOM     19  C   UNL     1      -4.162  -0.280  24.511  0.00  0.00    +0.205 A 
ENDROOT
BRANCH  19  22
ATOM      8  N   UNL     1      -1.331  -0.490  24.458  0.00  0.00    -0.326 N 
ATOM      9  N   UNL     1      -1.466  -2.814  24.033  0.00  0.00    -0.240 NA
ATOM     22  C   UNL     1      -3.499  -1.530  24.279  0.00  0.00    +0.062 A 
ATOM     24  C   UNL     1      -2.118  -1.650  24.250  0.00  0.00    +0.130 A 
ATOM     25  C   UNL     1      -4.257  -2.677  24.072  0.00  0.00    +0.016 A 
ATOM     27  C   UNL     1      -3.621  -3.893  23.847  0.00  0.00    +0.020 A 
ATOM     29  C   UNL     1      -2.236  -3.908  23.838  0.00  0.00    +0.113 A 
ATOM     32  H   UNL     1      -1.776   0.269  24.963  0.00  0.00    +0.148 HD
BRANCH   8  28
ATOM     28  C   UNL     1       0.095  -0.516  24.447  0.00  0.00    +0.131 C 
BRANCH  28  30
ATOM     30  C   UNL     1       0.611  -0.165  23.062  0.00  0.00    +0.178 C 
BRANCH  30   4
ATOM      4  O   UNL     1       1.703   0.738  23.178  0.00  0.00    -0.381 OA
ATOM     31  C   UNL     1       2.861   0.243  22.521  0.00  0.00    +0.194 C 
ENDBRANCH  30   4
ENDBRANCH  28  30
ENDBRANCH   8  28
ENDBRANCH  19  22
BRANCH  15  10
ATOM      5  N   UNL     1      -4.270   4.071  24.212  0.00  0.00    -0.287 NA
ATOM     10  C   UNL     1      -4.378   3.175  25.380  0.00  0.00    +0.146 C 
ATOM     11  C   UNL     1      -5.641   3.649  26.121  0.00  0.00    +0.030 C 
ATOM     12  C   UNL     1      -6.139   4.851  25.331  0.00  0.00    +0.017 C 
ATOM     13  C   UNL     1      -4.902   5.333  24.598  0.00  0.00    +0.085 C 
BRANCH   5  14
ATOM     14  C   UNL     1      -2.898   4.263  23.759  0.00  0.00    +0.120 C 
BRANCH  14  16
ATOM     16  C   UNL     1      -1.898   3.823  24.795  0.00  0.00    -0.033 A 
ATOM     17  C   UNL     1      -0.718   3.193  24.402  0.00  0.00    +0.006 A 
ATOM     18  C   UNL     1      -2.153   4.046  26.148  0.00  0.00    +0.006 A 
ATOM     20  C   UNL     1       0.208   2.785  25.362  0.00  0.00    +0.015 A 
ATOM     21  C   UNL     1      -1.226   3.638  27.109  0.00  0.00    +0.015 A 
ATOM     23  C   UNL     1      -0.046   3.008  26.715  0.00  0.00    +0.059 A 
BRANCH  23  26
ATOM      3  O   UNL     1       2.141   2.765  27.655  0.00  0.00    -0.245 OA
ATOM     26  C   UNL     1       0.920   2.585  27.717  0.00  0.00    +0.337 C 
BRANCH  26   2
ATOM      2  O   UNL     1       0.335   1.948  28.768  0.00  0.00    -0.477 OA
ATOM     33  H   UNL     1       0.994   1.485  29.327  0.00  0.00    +0.295 HD
ENDBRANCH  26   2
ENDBRANCH  23  26
ENDBRANCH  14  16
ENDBRANCH   5  14
ENDBRANCH  15  10
TORSDOF 9
ENDMDL
MODEL 8
REMARK VINA RESULT:       4.3      2.261      6.887
REMARK  Name = 45783372
REMARK  10 active torsions:
REMARK  status: ('A' for Active; 'I' for Inactive)
REMARK    1  A    between atoms: O_2  and  C_26
REMARK    2  A    between atoms: O_4  and  C_30
REMARK    3  A    between atoms: O_4  and  C_31
REMARK    4  A    between atoms: N_5  and  C_14
REMARK    5  A    between atoms: N_8  and  C_28
REMARK    6  A    between atoms: C_10  and  C_15
REMARK    7  A    between atoms: C_14  and  C_16
REMARK    8  A    between atoms: C_19  and  C_22
REMARK    9  A    between atoms: C_23  and  C_26
REMARK   10  A    between atoms: C_28  and  C_30
REMARK                            x       y       z     vdW  Elec       q    Type
REMARK                         _______ _______ _______ _____ _____    ______ ____
ROOT
ATOM      1  O   UNL     1      -5.511  -0.260  24.266  0.00  0.00    -0.336 OA
ATOM      6  N   UNL     1      -3.834   1.118  24.820  0.00  0.00    -0.190 NA
ATOM      7  N   UNL     1      -6.096   0.991  24.499  0.00  0.00    -0.056 NA
ATOM     15  C   UNL     1      -4.179  -0.098  24.477  0.00  0.00    +0.245 A 
ATOM     19  C   UNL     1      -5.043   1.750  24.820  0.00  0.00    +0.205 A 
ENDROOT
BRANCH  19  22
ATOM      8  N   UNL     1      -2.841   3.534  24.649  0.00  0.00    -0.326 N 
ATOM      9  N   UNL     1      -4.188   5.340  25.373  0.00  0.00    -0.240 NA
ATOM     22  C   UNL     1      -5.166   3.141  25.148  0.00  0.00    +0.062 A 
ATOM     24  C   UNL     1      -4.102   4.025  25.070  0.00  0.00    +0.130 A 
ATOM     25  C   UNL     1      -6.397   3.638  25.563  0.00  0.00    +0.016 A 
ATOM     27  C   UNL     1      -6.524   4.985  25.882  0.00  0.00    +0.020 A 
ATOM     29  C   UNL     1      -5.400   5.787  25.771  0.00  0.00    +0.113 A 
ATOM     32  H   UNL     1      -2.853   2.684  24.095  0.00  0.00    +0.148 HD
BRANCH   8  28
ATOM     28  C   UNL     1      -1.688   4.367  24.538  0.00  0.00    +0.131 C 
BRANCH  28  30
ATOM     30  C   UNL     1      -0.477   3.662  25.123  0.00  0.00    +0.178 C 
BRANCH  30   4
ATOM      4  O   UNL     1      -0.855   2.981  26.312  0.00  0.00    -0.381 OA
ATOM     31  C   UNL     1       0.272   2.424  26.974  0.00  0.00    +0.194 C 
ENDBRANCH  30   4
ENDBRANCH  28  30
ENDBRANCH   8  28
ENDBRANCH  19  22
BRANCH  15  10
ATOM      5  N   UNL     1      -2.955  -1.973  25.564  0.00  0.00    -0.287 NA
ATOM     10  C   UNL     1      -3.311  -1.324  24.286  0.00  0.00    +0.146 C 
ATOM     11  C   UNL     1      -4.011  -2.426  23.469  0.00  0.00    +0.030 C 
ATOM     12  C   UNL     1      -3.946  -3.671  24.344  0.00  0.00    +0.017 C 
ATOM     13  C   UNL     1      -2.779  -3.396  25.270  0.00  0.00    +0.085 C 
BRANCH   5  14
ATOM     14  C   UNL     1      -1.777  -1.394  26.195  0.00  0.00    +0.120 C 
BRANCH  14  16
ATOM     16  C   UNL     1      -0.734  -1.002  25.182  0.00  0.00    -0.033 A 
ATOM     17  C   UNL     1       0.348  -1.847  24.932  0.00  0.00    +0.006 A 
ATOM     18  C   UNL     1      -0.850   0.205  24.493  0.00  0.00    +0.006 A 
ATOM     20  C   UNL     1       1.313  -1.483  23.994  0.00  0.00    +0.015 A 
ATOM     21  C   UNL     1       0.117   0.569  23.554  0.00  0.00    +0.015 A 
ATOM     23  C   UNL     1       1.198  -0.276  23.305  0.00  0.00    +0.059 A 
BRANCH  23  26
ATOM      3  O   UNL     1       3.299   0.613  22.584  0.00  0.00    -0.245 OA
ATOM     26  C   UNL     1       2.204   0.102  22.325  0.00  0.00    +0.337 C 
BRANCH  26   2
ATOM      2  O   UNL     1       1.815  -0.167  21.049  0.00  0.00    -0.477 OA
ATOM     33  H   UNL     1       2.462   0.168  20.392  0.00  0.00    +0.295 HD
ENDBRANCH  26   2
ENDBRANCH  23  26
ENDBRANCH  14  16
ENDBRANCH   5  14
ENDBRANCH  15  10
TORSDOF 9
ENDMDL
MODEL 9
REMARK VINA RESULT:       4.3      2.148      4.923
REMARK  Name = 45783372
REMARK  10 active torsions:
REMARK  status: ('A' for Active; 'I' for Inactive)
REMARK    1  A    between atoms: O_2  and  C_26
REMARK    2  A    between atoms: O_4  and  C_30
REMARK    3  A    between atoms: O_4  and  C_31
REMARK    4  A    between atoms: N_5  and  C_14
REMARK    5  A    between atoms: N_8  and  C_28
REMARK    6  A    between atoms: C_10  and  C_15
REMARK    7  A    between atoms: C_14  and  C_16
REMARK    8  A    between atoms: C_19  and  C_22
REMARK    9  A    between atoms: C_23  and  C_26
REMARK   10  A    between atoms: C_28  and  C_30
REMARK                            x       y       z     vdW  Elec       q    Type
REMARK                         _______ _______ _______ _____ _____    ______ ____
ROOT
ATOM      1  O   UNL     1      -4.134   2.136  23.731  0.00  0.00    -0.336 OA
ATOM      6  N   UNL     1      -4.192   0.581  25.342  0.00  0.00    -0.190 NA
ATOM      7  N   UNL     1      -3.827   0.920  23.109  0.00  0.00    -0.056 NA
ATOM     15  C   UNL     1      -4.334   1.848  25.044  0.00  0.00    +0.245 A 
ATOM     19  C   UNL     1      -3.882   0.051  24.124  0.00  0.00    +0.205 A 
ENDROOT
BRANCH  19  22
ATOM      8  N   UNL     1      -1.257  -1.027  24.243  0.00  0.00    -0.326 N 
ATOM      9  N   UNL     1      -2.087  -3.209  23.855  0.00  0.00    -0.240 NA
ATOM     22  C   UNL     1      -3.629  -1.351  23.955  0.00  0.00    +0.062 A 
ATOM     24  C   UNL     1      -2.355  -1.893  24.010  0.00  0.00    +0.130 A 
ATOM     25  C   UNL     1      -4.695  -2.214  23.724  0.00  0.00    +0.016 A 
ATOM     27  C   UNL     1      -4.459  -3.573  23.560  0.00  0.00    +0.020 A 
ATOM     29  C   UNL     1      -3.148  -4.017  23.634  0.00  0.00    +0.113 A 
ATOM     32  H   UNL     1      -1.470  -0.150  24.706  0.00  0.00    +0.148 HD
BRANCH   8  28
ATOM     28  C   UNL     1       0.089  -1.494  24.318  0.00  0.00    +0.131 C 
BRANCH  28  30
ATOM     30  C   UNL     1       0.342  -2.138  25.670  0.00  0.00    +0.178 C 
BRANCH  30   4
ATOM      4  O   UNL     1      -0.803  -1.970  26.496  0.00  0.00    -0.381 OA
ATOM     31  C   UNL     1      -0.964  -0.616  26.894  0.00  0.00    +0.194 C 
ENDBRANCH  30   4
ENDBRANCH  28  30
ENDBRANCH   8  28
ENDBRANCH  19  22
BRANCH  15  10
ATOM      5  N   UNL     1      -3.886   4.220  25.651  0.00  0.00    -0.287 NA
ATOM     10  C   UNL     1      -4.686   3.013  25.944  0.00  0.00    +0.146 C 
ATOM     11  C   UNL     1      -6.149   3.466  25.786  0.00  0.00    +0.030 C 
ATOM     12  C   UNL     1      -6.073   4.952  25.465  0.00  0.00    +0.017 C 
ATOM     13  C   UNL     1      -4.721   5.366  26.010  0.00  0.00    +0.085 C 
BRANCH   5  14
ATOM     14  C   UNL     1      -2.602   4.240  26.340  0.00  0.00    +0.120 C 
BRANCH  14  16
ATOM     16  C   UNL     1      -1.542   3.492  25.574  0.00  0.00    -0.033 A 
ATOM     17  C   UNL     1      -0.582   2.748  26.259  0.00  0.00    +0.006 A 
ATOM     18  C   UNL     1      -1.522   3.544  24.181  0.00  0.00    +0.006 A 
ATOM     20  C   UNL     1       0.399   2.056  25.550  0.00  0.00    +0.015 A 
ATOM     21  C   UNL     1      -0.540   2.851  23.471  0.00  0.00    +0.015 A 
ATOM     23  C   UNL     1       0.420   2.107  24.156  0.00  0.00    +0.059 A 
BRANCH  23  26
ATOM      3  O   UNL     1       2.661   1.488  23.592  0.00  0.00    -0.245 OA
ATOM     26  C   UNL     1       1.442   1.384  23.416  0.00  0.00    +0.337 C 
BRANCH  26   2
ATOM      2  O   UNL     1       0.915   0.552  22.477  0.00  0.00    -0.477 OA
ATOM     33  H   UNL     1      -0.066   0.581  22.473  0.00  0.00    +0.295 HD
ENDBRANCH  26   2
ENDBRANCH  23  26
ENDBRANCH  14  16
ENDBRANCH   5  14
ENDBRANCH  15  10
TORSDOF 9
ENDMDL
