MODEL 1
REMARK VINA RESULT:       6.2      0.000      0.000
REMARK  Name = 28991387
REMARK  9 active torsions:
REMARK  status: ('A' for Active; 'I' for Inactive)
REMARK    1  A    between atoms: O_3  and  C_21
REMARK    2  A    between atoms: O_3  and  C_33
REMARK    3  A    between atoms: O_5  and  C_27
REMARK    4  A    between atoms: O_5  and  C_34
REMARK    5  A    between atoms: N_7  and  C_12
REMARK    6  A    between atoms: N_7  and  C_22
REMARK    7  A    between atoms: C_10  and  C_18
REMARK    8  A    between atoms: C_14  and  C_21
REMARK    9  A    between atoms: C_22  and  C_27
REMARK                            x       y       z     vdW  Elec       q    Type
REMARK                         _______ _______ _______ _____ _____    ______ ____
ROOT
ATOM      6  N   UNL     1      -1.161   1.486  25.825  0.00  0.00    -0.274 NA
ATOM      8  N   UNL     1      -3.881  -0.139  23.809  0.00  0.00    -0.356 N 
ATOM      9  C   UNL     1      -2.213   1.552  24.764  0.00  0.00    +0.106 C 
ATOM     10  C   UNL     1      -0.576   2.821  26.111  0.00  0.00    +0.090 C 
ATOM     11  C   UNL     1      -3.337   2.518  25.173  0.00  0.00    +0.044 C 
ATOM     12  C   UNL     1      -2.774   3.915  25.428  0.00  0.00    +0.057 C 
ATOM     13  C   UNL     1      -1.677   3.841  26.489  0.00  0.00    +0.042 C 
ATOM     14  C   UNL     1      -0.164   0.406  25.586  0.00  0.00    +0.172 C 
ATOM     15  C   UNL     1      -2.739   0.174  24.491  0.00  0.00    +0.038 A 
ATOM     16  C   UNL     1      -0.809  -1.002  25.560  0.00  0.00    +0.068 C 
ATOM     17  C   UNL     1      -2.105  -1.001  24.829  0.00  0.00    -0.016 A 
ATOM     19  C   UNL     1      -2.910  -2.077  24.366  0.00  0.00    +0.003 A 
ATOM     20  C   UNL     1      -4.019  -1.508  23.731  0.00  0.00    +0.047 A 
ATOM     25  C   UNL     1      -2.806  -3.482  24.418  0.00  0.00    +0.010 A 
ATOM     26  C   UNL     1      -5.030  -2.280  23.145  0.00  0.00    +0.026 A 
ATOM     28  C   UNL     1      -3.813  -4.264  23.839  0.00  0.00    +0.001 A 
ATOM     31  C   UNL     1      -4.906  -3.670  23.213  0.00  0.00    +0.002 A 
ATOM     36  H   UNL     1      -4.535   0.527  23.419  0.00  0.00    +0.166 HD
ENDROOT
BRANCH  10  18
ATOM      1  F   UNL     1       0.632   2.312  30.831  0.00  0.00    -0.202 F 
ATOM      2  F   UNL     1       3.259   2.822  30.268  0.00  0.00    -0.202 F 
ATOM     18  C   UNL     1       0.459   2.821  27.233  0.00  0.00    -0.027 A 
ATOM     23  C   UNL     1       0.064   2.561  28.545  0.00  0.00    +0.046 A 
ATOM     24  C   UNL     1       1.800   3.081  26.945  0.00  0.00    +0.008 A 
ATOM     29  C   UNL     1       1.011   2.561  29.570  0.00  0.00    +0.159 A 
ATOM     30  C   UNL     1       2.745   3.081  27.970  0.00  0.00    +0.041 A 
ATOM     32  C   UNL     1       2.351   2.821  29.283  0.00  0.00    +0.158 A 
ENDBRANCH  10  18
BRANCH  14  21
ATOM      4  O   UNL     1       1.128   1.739  24.047  0.00  0.00    -0.249 OA
ATOM     21  C   UNL     1       0.602   0.669  24.320  0.00  0.00    +0.325 C 
BRANCH  21   3
ATOM      3  O   UNL     1       0.611  -0.457  23.551  0.00  0.00    -0.467 OA
ATOM     33  C   UNL     1       1.394  -0.380  22.356  0.00  0.00    +0.280 C 
ENDBRANCH  21   3
ENDBRANCH  14  21
BRANCH  12   7
ATOM      7  N   UNL     1      -3.845   4.819  25.848  0.00  0.00    -0.311 NA
ATOM     35  H   UNL     1      -4.090   4.637  26.822  0.00  0.00    +0.122 HD
BRANCH   7  22
ATOM     22  C   UNL     1      -5.029   4.632  25.025  0.00  0.00    +0.109 C 
BRANCH  22  27
ATOM     27  C   UNL     1      -6.209   4.191  25.875  0.00  0.00    +0.174 C 
BRANCH  27   5
ATOM      5  O   UNL     1      -5.956   2.879  26.363  0.00  0.00    -0.382 OA
ATOM     34  C   UNL     1      -6.374   1.888  25.435  0.00  0.00    +0.194 C 
ENDBRANCH  27   5
ENDBRANCH  22  27
ENDBRANCH   7  22
ENDBRANCH  12   7
TORSDOF 7
ENDMDL
MODEL 2
REMARK VINA RESULT:       7.0      2.802      6.087
REMARK  Name = 28991387
REMARK  9 active torsions:
REMARK  status: ('A' for Active; 'I' for Inactive)
REMARK    1  A    between atoms: O_3  and  C_21
REMARK    2  A    between atoms: O_3  and  C_33
REMARK    3  A    between atoms: O_5  and  C_27
REMARK    4  A    between atoms: O_5  and  C_34
REMARK    5  A    between atoms: N_7  and  C_12
REMARK    6  A    between atoms: N_7  and  C_22
REMARK    7  A    between atoms: C_10  and  C_18
REMARK    8  A    between atoms: C_14  and  C_21
REMARK    9  A    between atoms: C_22  and  C_27
REMARK                            x       y       z     vdW  Elec       q    Type
REMARK                         _______ _______ _______ _____ _____    ______ ____
ROOT
ATOM      6  N   UNL     1      -0.892   0.983  24.433  0.00  0.00    -0.274 NA
ATOM      8  N   UNL     1      -4.249   1.862  25.871  0.00  0.00    -0.356 N 
ATOM      9  C   UNL     1      -1.963   0.785  25.458  0.00  0.00    +0.106 C 
ATOM     10  C   UNL     1       0.183  -0.034  24.550  0.00  0.00    +0.090 C 
ATOM     11  C   UNL     1      -2.581  -0.617  25.335  0.00  0.00    +0.044 C 
ATOM     12  C   UNL     1      -1.506  -1.690  25.499  0.00  0.00    +0.057 C 
ATOM     13  C   UNL     1      -0.397  -1.468  24.471  0.00  0.00    +0.042 C 
ATOM     14  C   UNL     1      -0.413   2.391  24.360  0.00  0.00    +0.172 C 
ATOM     15  C   UNL     1      -2.999   1.861  25.318  0.00  0.00    +0.038 A 
ATOM     16  C   UNL     1      -1.540   3.382  23.973  0.00  0.00    +0.068 C 
ATOM     17  C   UNL     1      -2.819   3.058  24.661  0.00  0.00    -0.016 A 
ATOM     19  C   UNL     1      -4.020   3.807  24.788  0.00  0.00    +0.003 A 
ATOM     20  C   UNL     1      -4.901   3.033  25.550  0.00  0.00    +0.047 A 
ATOM     25  C   UNL     1      -4.449   5.072  24.334  0.00  0.00    +0.010 A 
ATOM     26  C   UNL     1      -6.192   3.465  25.879  0.00  0.00    +0.026 A 
ATOM     28  C   UNL     1      -5.738   5.512  24.654  0.00  0.00    +0.001 A 
ATOM     31  C   UNL     1      -6.594   4.719  25.415  0.00  0.00    +0.002 A 
ATOM     36  H   UNL     1      -4.645   1.119  26.431  0.00  0.00    +0.166 HD
ENDROOT
BRANCH  10  18
ATOM      1  F   UNL     1       4.650   1.379  23.119  0.00  0.00    -0.202 F 
ATOM      2  F   UNL     1       4.213   0.398  20.605  0.00  0.00    -0.202 F 
ATOM     18  C   UNL     1       1.271   0.082  23.485  0.00  0.00    -0.027 A 
ATOM     23  C   UNL     1       2.487   0.690  23.795  0.00  0.00    +0.046 A 
ATOM     24  C   UNL     1       1.047  -0.419  22.202  0.00  0.00    +0.008 A 
ATOM     29  C   UNL     1       3.481   0.796  22.822  0.00  0.00    +0.159 A 
ATOM     30  C   UNL     1       2.041  -0.312  21.229  0.00  0.00    +0.041 A 
ATOM     32  C   UNL     1       3.258   0.295  21.539  0.00  0.00    +0.158 A 
ENDBRANCH  10  18
BRANCH  14  21
ATOM      4  O   UNL     1       0.807   3.860  25.831  0.00  0.00    -0.249 OA
ATOM     21  C   UNL     1       0.234   2.794  25.655  0.00  0.00    +0.325 C 
BRANCH  21   3
ATOM      3  O   UNL     1       0.076   1.798  26.572  0.00  0.00    -0.467 OA
ATOM     33  C   UNL     1       0.429   2.139  27.917  0.00  0.00    +0.280 C 
ENDBRANCH  21   3
ENDBRANCH  14  21
BRANCH  12   7
ATOM      7  N   UNL     1      -2.097  -3.020  25.347  0.00  0.00    -0.311 NA
ATOM     35  H   UNL     1      -1.717  -3.475  24.516  0.00  0.00    +0.122 HD
BRANCH   7  22
ATOM     22  C   UNL     1      -3.542  -2.929  25.211  0.00  0.00    +0.109 C 
BRANCH  22  27
ATOM     27  C   UNL     1      -3.975  -3.321  23.808  0.00  0.00    +0.174 C 
BRANCH  27   5
ATOM      5  O   UNL     1      -4.335  -2.145  23.095  0.00  0.00    -0.382 OA
ATOM     34  C   UNL     1      -4.791  -1.123  23.970  0.00  0.00    +0.194 C 
ENDBRANCH  27   5
ENDBRANCH  22  27
ENDBRANCH   7  22
ENDBRANCH  12   7
TORSDOF 7
ENDMDL
MODEL 3
REMARK VINA RESULT:       7.3      0.450      1.133
REMARK  Name = 28991387
REMARK  9 active torsions:
REMARK  status: ('A' for Active; 'I' for Inactive)
REMARK    1  A    between atoms: O_3  and  C_21
REMARK    2  A    between atoms: O_3  and  C_33
REMARK    3  A    between atoms: O_5  and  C_27
REMARK    4  A    between atoms: O_5  and  C_34
REMARK    5  A    between atoms: N_7  and  C_12
REMARK    6  A    between atoms: N_7  and  C_22
REMARK    7  A    between atoms: C_10  and  C_18
REMARK    8  A    between atoms: C_14  and  C_21
REMARK    9  A    between atoms: C_22  and  C_27
REMARK                            x       y       z     vdW  Elec       q    Type
REMARK                         _______ _______ _______ _____ _____    ______ ____
ROOT
ATOM      6  N   UNL     1      -1.219   1.443  25.904  0.00  0.00    -0.274 NA
ATOM      8  N   UNL     1      -3.874  -0.109  23.747  0.00  0.00    -0.356 N 
ATOM      9  C   UNL     1      -2.213   1.537  24.790  0.00  0.00    +0.106 C 
ATOM     10  C   UNL     1      -0.614   2.761  26.221  0.00  0.00    +0.090 C 
ATOM     11  C   UNL     1      -3.329   2.533  25.141  0.00  0.00    +0.044 C 
ATOM     12  C   UNL     1      -2.743   3.915  25.426  0.00  0.00    +0.057 C 
ATOM     13  C   UNL     1      -1.705   3.811  26.542  0.00  0.00    +0.042 C 
ATOM     14  C   UNL     1      -0.241   0.336  25.716  0.00  0.00    +0.172 C 
ATOM     15  C   UNL     1      -2.760   0.174  24.488  0.00  0.00    +0.038 A 
ATOM     16  C   UNL     1      -0.922  -1.055  25.656  0.00  0.00    +0.068 C 
ATOM     17  C   UNL     1      -2.178  -1.018  24.858  0.00  0.00    -0.016 A 
ATOM     19  C   UNL     1      -2.986  -2.072  24.352  0.00  0.00    +0.003 A 
ATOM     20  C   UNL     1      -4.045  -1.473  23.661  0.00  0.00    +0.047 A 
ATOM     25  C   UNL     1      -2.924  -3.480  24.409  0.00  0.00    +0.010 A 
ATOM     26  C   UNL     1      -5.044  -2.217  23.022  0.00  0.00    +0.026 A 
ATOM     28  C   UNL     1      -3.920  -4.233  23.777  0.00  0.00    +0.001 A 
ATOM     31  C   UNL     1      -4.963  -3.610  23.095  0.00  0.00    +0.002 A 
ATOM     36  H   UNL     1      -4.488   0.575  23.324  0.00  0.00    +0.166 HD
ENDROOT
BRANCH  10  18
ATOM      1  F   UNL     1       3.927   3.072  28.034  0.00  0.00    -0.202 F 
ATOM      2  F   UNL     1       2.998   2.661  30.572  0.00  0.00    -0.202 F 
ATOM     18  C   UNL     1       0.361   2.734  27.396  0.00  0.00    -0.027 A 
ATOM     23  C   UNL     1       1.726   2.919  27.173  0.00  0.00    +0.046 A 
ATOM     24  C   UNL     1      -0.113   2.525  28.691  0.00  0.00    +0.008 A 
ATOM     29  C   UNL     1       2.617   2.894  28.247  0.00  0.00    +0.159 A 
ATOM     30  C   UNL     1       0.777   2.500  29.764  0.00  0.00    +0.041 A 
ATOM     32  C   UNL     1       2.142   2.685  29.542  0.00  0.00    +0.158 A 
ENDBRANCH  10  18
BRANCH  14  21
ATOM      4  O   UNL     1       1.160   1.634  24.245  0.00  0.00    -0.249 OA
ATOM     21  C   UNL     1       0.597   0.577  24.492  0.00  0.00    +0.325 C 
BRANCH  21   3
ATOM      3  O   UNL     1       0.621  -0.552  23.727  0.00  0.00    -0.467 OA
ATOM     33  C   UNL     1       1.328  -0.440  22.488  0.00  0.00    +0.280 C 
ENDBRANCH  21   3
ENDBRANCH  14  21
BRANCH  12   7
ATOM      7  N   UNL     1      -3.809   4.848  25.790  0.00  0.00    -0.311 NA
ATOM     35  H   UNL     1      -4.041   4.739  26.778  0.00  0.00    +0.122 HD
BRANCH   7  22
ATOM     22  C   UNL     1      -5.003   4.600  24.998  0.00  0.00    +0.109 C 
BRANCH  22  27
ATOM     27  C   UNL     1      -6.169   4.212  25.893  0.00  0.00    +0.174 C 
BRANCH  27   5
ATOM      5  O   UNL     1      -5.988   2.868  26.323  0.00  0.00    -0.382 OA
ATOM     34  C   UNL     1      -6.400   1.942  25.328  0.00  0.00    +0.194 C 
ENDBRANCH  27   5
ENDBRANCH  22  27
ENDBRANCH   7  22
ENDBRANCH  12   7
TORSDOF 7
ENDMDL
MODEL 4
REMARK VINA RESULT:       7.6      3.394      6.517
REMARK  Name = 28991387
REMARK  9 active torsions:
REMARK  status: ('A' for Active; 'I' for Inactive)
REMARK    1  A    between atoms: O_3  and  C_21
REMARK    2  A    between atoms: O_3  and  C_33
REMARK    3  A    between atoms: O_5  and  C_27
REMARK    4  A    between atoms: O_5  and  C_34
REMARK    5  A    between atoms: N_7  and  C_12
REMARK    6  A    between atoms: N_7  and  C_22
REMARK    7  A    between atoms: C_10  and  C_18
REMARK    8  A    between atoms: C_14  and  C_21
REMARK    9  A    between atoms: C_22  and  C_27
REMARK                            x       y       z     vdW  Elec       q    Type
REMARK                         _______ _______ _______ _____ _____    ______ ____
ROOT
ATOM      6  N   UNL     1      -2.008   1.054  24.380  0.00  0.00    -0.274 NA
ATOM      8  N   UNL     1       1.103  -0.935  23.690  0.00  0.00    -0.356 N 
ATOM      9  C   UNL     1      -1.337  -0.235  24.021  0.00  0.00    +0.106 C 
ATOM     10  C   UNL     1      -3.464   0.876  24.609  0.00  0.00    +0.090 C 
ATOM     11  C   UNL     1      -1.550  -1.283  25.125  0.00  0.00    +0.044 C 
ATOM     12  C   UNL     1      -3.041  -1.525  25.352  0.00  0.00    +0.057 C 
ATOM     13  C   UNL     1      -3.731  -0.203  25.687  0.00  0.00    +0.042 C 
ATOM     14  C   UNL     1      -1.653   2.168  23.458  0.00  0.00    +0.172 C 
ATOM     15  C   UNL     1       0.119   0.011  23.764  0.00  0.00    +0.038 A 
ATOM     16  C   UNL     1      -0.135   2.481  23.462  0.00  0.00    +0.068 C 
ATOM     17  C   UNL     1       0.684   1.238  23.489  0.00  0.00    -0.016 A 
ATOM     19  C   UNL     1       2.074   1.038  23.273  0.00  0.00    +0.003 A 
ATOM     20  C   UNL     1       2.310  -0.334  23.407  0.00  0.00    +0.047 A 
ATOM     25  C   UNL     1       3.159   1.886  22.973  0.00  0.00    +0.010 A 
ATOM     26  C   UNL     1       3.582  -0.898  23.253  0.00  0.00    +0.026 A 
ATOM     28  C   UNL     1       4.436   1.334  22.820  0.00  0.00    +0.001 A 
ATOM     31  C   UNL     1       4.642  -0.037  22.959  0.00  0.00    +0.002 A 
ATOM     36  H   UNL     1       0.973  -1.930  23.824  0.00  0.00    +0.166 HD
ENDROOT
BRANCH  10  18
ATOM      1  F   UNL     1      -3.422   5.422  26.435  0.00  0.00    -0.202 F 
ATOM      2  F   UNL     1      -6.142   5.594  26.211  0.00  0.00    -0.202 F 
ATOM     18  C   UNL     1      -4.187   2.150  25.042  0.00  0.00    -0.027 A 
ATOM     23  C   UNL     1      -3.460   3.225  25.551  0.00  0.00    +0.046 A 
ATOM     24  C   UNL     1      -5.575   2.237  24.926  0.00  0.00    +0.008 A 
ATOM     29  C   UNL     1      -4.120   4.389  25.946  0.00  0.00    +0.159 A 
ATOM     30  C   UNL     1      -6.235   3.400  25.322  0.00  0.00    +0.041 A 
ATOM     32  C   UNL     1      -5.508   4.476  25.831  0.00  0.00    +0.158 A 
ENDBRANCH  10  18
BRANCH  14  21
ATOM      4  O   UNL     1      -2.072   0.773  21.537  0.00  0.00    -0.249 OA
ATOM     21  C   UNL     1      -2.136   1.874  22.066  0.00  0.00    +0.325 C 
BRANCH  21   3
ATOM      3  O   UNL     1      -2.644   3.010  21.510  0.00  0.00    -0.467 OA
ATOM     33  C   UNL     1      -3.922   3.420  22.007  0.00  0.00    +0.280 C 
ENDBRANCH  21   3
ENDBRANCH  14  21
BRANCH  12   7
ATOM      7  N   UNL     1      -3.235  -2.499  26.426  0.00  0.00    -0.311 NA
ATOM     35  H   UNL     1      -2.465  -2.437  27.093  0.00  0.00    +0.122 HD
BRANCH   7  22
ATOM     22  C   UNL     1      -3.284  -3.851  25.891  0.00  0.00    +0.109 C 
BRANCH  22  27
ATOM     27  C   UNL     1      -3.296  -3.826  24.371  0.00  0.00    +0.174 C 
BRANCH  27   5
ATOM      5  O   UNL     1      -4.602  -3.476  23.930  0.00  0.00    -0.382 OA
ATOM     34  C   UNL     1      -4.580  -2.323  23.100  0.00  0.00    +0.194 C 
ENDBRANCH  27   5
ENDBRANCH  22  27
ENDBRANCH   7  22
ENDBRANCH  12   7
TORSDOF 7
ENDMDL
