MODEL 1
REMARK VINA RESULT:       4.6      0.000      0.000
REMARK  Name = 71693258
REMARK  7 active torsions:
REMARK  status: ('A' for Active; 'I' for Inactive)
REMARK    1  A    between atoms: O_2  and  C_12
REMARK    2  A    between atoms: N_6  and  C_19
REMARK    3  A    between atoms: N_7  and  C_25
REMARK    4  A    between atoms: CA_9  and  C_12
REMARK    5  A    between atoms: C_10  and  C_11
REMARK    6  A    between atoms: C_20  and  C_21
REMARK    7  A    between atoms: C_22  and  C_24
REMARK                            x       y       z     vdW  Elec       q    Type
REMARK                         _______ _______ _______ _____ _____    ______ ____
ROOT
ATOM     11  C   UNL     1      -2.471   1.559  24.312  0.00  0.00    -0.017 A 
ATOM     15  C   UNL     1      -1.539   2.473  23.821  0.00  0.00    +0.008 A 
ATOM     16  C   UNL     1      -2.058   0.288  24.712  0.00  0.00    +0.008 A 
ATOM     17  C   UNL     1      -0.194   2.116  23.729  0.00  0.00    +0.023 A 
ATOM     18  C   UNL     1      -0.713  -0.069  24.620  0.00  0.00    +0.023 A 
ATOM     19  C   UNL     1       0.219   0.844  24.128  0.00  0.00    +0.034 A 
ENDROOT
BRANCH  11  10
ATOM      1  O   UNL     1      -4.665   0.770  24.777  0.00  0.00    -0.361 OA
ATOM      3  O   UNL     1      -7.769   2.303  25.721  0.00  0.00    -0.273 OA
ATOM      5  N   UNL     1      -5.653   3.191  25.652  0.00  0.00    -0.306 N 
ATOM      9  CA  UNL     1      -4.214   3.019  25.474  0.00  0.00    +0.131 C 
ATOM     10  C   UNL     1      -3.931   1.945  24.413  0.00  0.00    +0.171 C 
ATOM     13  C   UNL     1      -6.059   0.980  24.681  0.00  0.00    +0.256 C 
ATOM     14  C   UNL     1      -6.580   2.199  25.419  0.00  0.00    +0.239 C 
ATOM     26  H   UNL     1      -5.974   4.020  26.144  0.00  0.00    +0.149 HD
BRANCH   9  12
ATOM     12  C   UNL     1      -3.574   4.363  25.133  0.00  0.00    +0.181 C 
BRANCH  12   2
ATOM      2  O   UNL     1      -2.539   4.617  26.065  0.00  0.00    -0.393 OA
ATOM     27  H   UNL     1      -2.833   4.269  26.923  0.00  0.00    +0.209 HD
ENDBRANCH  12   2
ENDBRANCH   9  12
ENDBRANCH  11  10
BRANCH  19   6
ATOM      4  O   UNL     1       1.827  -0.057  21.764  0.00  0.00    -0.268 OA
ATOM      6  N   UNL     1       1.565   0.489  24.036  0.00  0.00    -0.280 N 
ATOM     20  C   UNL     1       2.271   0.072  22.900  0.00  0.00    +0.268 C 
ATOM     28  H   UNL     1       2.093   0.545  24.905  0.00  0.00    +0.155 HD
BRANCH  20  21
ATOM      7  N   UNL     1       5.425  -1.205  23.817  0.00  0.00    -0.271 N 
ATOM      8  N   UNL     1       4.082  -1.270  23.842  0.00  0.00    -0.167 NA
ATOM     21  C   UNL     1       3.714  -0.212  23.115  0.00  0.00    +0.148 A 
ATOM     22  C   UNL     1       5.912  -0.151  23.102  0.00  0.00    +0.037 A 
ATOM     23  C   UNL     1       4.813   0.522  22.628  0.00  0.00    +0.057 A 
ATOM     24  C   UNL     1       7.354   0.114  22.942  0.00  0.00    +0.065 C 
ATOM     25  C   UNL     1       6.192  -2.210  24.515  0.00  0.00    +0.172 C 
ENDBRANCH  20  21
ENDBRANCH  19   6
TORSDOF 5
ENDMDL
MODEL 2
REMARK VINA RESULT:       5.1      1.301      2.221
REMARK  Name = 71693258
REMARK  7 active torsions:
REMARK  status: ('A' for Active; 'I' for Inactive)
REMARK    1  A    between atoms: O_2  and  C_12
REMARK    2  A    between atoms: N_6  and  C_19
REMARK    3  A    between atoms: N_7  and  C_25
REMARK    4  A    between atoms: CA_9  and  C_12
REMARK    5  A    between atoms: C_10  and  C_11
REMARK    6  A    between atoms: C_20  and  C_21
REMARK    7  A    between atoms: C_22  and  C_24
REMARK                            x       y       z     vdW  Elec       q    Type
REMARK                         _______ _______ _______ _____ _____    ______ ____
ROOT
ATOM     11  C   UNL     1      -2.210   2.644  25.366  0.00  0.00    -0.017 A 
ATOM     15  C   UNL     1      -2.028   1.865  24.224  0.00  0.00    +0.008 A 
ATOM     16  C   UNL     1      -1.136   2.887  26.223  0.00  0.00    +0.008 A 
ATOM     17  C   UNL     1      -0.773   1.329  23.938  0.00  0.00    +0.023 A 
ATOM     18  C   UNL     1       0.119   2.351  25.937  0.00  0.00    +0.023 A 
ATOM     19  C   UNL     1       0.301   1.572  24.795  0.00  0.00    +0.034 A 
ENDROOT
BRANCH  11  10
ATOM      1  O   UNL     1      -3.580   4.581  25.212  0.00  0.00    -0.361 OA
ATOM      3  O   UNL     1      -7.109   5.214  25.353  0.00  0.00    -0.273 OA
ATOM      5  N   UNL     1      -5.980   3.224  25.173  0.00  0.00    -0.306 N 
ATOM      9  CA  UNL     1      -4.731   2.490  24.990  0.00  0.00    +0.131 C 
ATOM     10  C   UNL     1      -3.572   3.226  25.678  0.00  0.00    +0.171 C 
ATOM     13  C   UNL     1      -4.729   5.273  25.654  0.00  0.00    +0.256 C 
ATOM     14  C   UNL     1      -6.049   4.588  25.358  0.00  0.00    +0.239 C 
ATOM     26  H   UNL     1      -6.849   2.738  24.974  0.00  0.00    +0.149 HD
BRANCH   9  12
ATOM     12  C   UNL     1      -4.898   1.058  25.494  0.00  0.00    +0.181 C 
BRANCH  12   2
ATOM      2  O   UNL     1      -4.738   0.175  24.399  0.00  0.00    -0.393 OA
ATOM     27  H   UNL     1      -4.774  -0.730  24.753  0.00  0.00    +0.209 HD
ENDBRANCH  12   2
ENDBRANCH   9  12
ENDBRANCH  11  10
BRANCH  19   6
ATOM      4  O   UNL     1       1.293   0.173  22.335  0.00  0.00    -0.268 OA
ATOM      6  N   UNL     1       1.556   1.036  24.507  0.00  0.00    -0.280 N 
ATOM     20  C   UNL     1       1.970   0.388  23.335  0.00  0.00    +0.268 C 
ATOM     28  H   UNL     1       2.253   1.135  25.243  0.00  0.00    +0.155 HD
BRANCH  20  21
ATOM      7  N   UNL     1       5.043  -1.323  23.547  0.00  0.00    -0.271 N 
ATOM      8  N   UNL     1       3.707  -1.292  23.692  0.00  0.00    -0.167 NA
ATOM     21  C   UNL     1       3.390  -0.050  23.316  0.00  0.00    +0.148 A 
ATOM     22  C   UNL     1       5.576  -0.152  23.094  0.00  0.00    +0.037 A 
ATOM     23  C   UNL     1       4.514   0.705  22.933  0.00  0.00    +0.057 A 
ATOM     24  C   UNL     1       7.019   0.039  22.863  0.00  0.00    +0.065 C 
ATOM     25  C   UNL     1       5.759  -2.536  23.868  0.00  0.00    +0.172 C 
ENDBRANCH  20  21
ENDBRANCH  19   6
TORSDOF 5
ENDMDL
MODEL 3
REMARK VINA RESULT:       6.2      1.498      2.401
REMARK  Name = 71693258
REMARK  7 active torsions:
REMARK  status: ('A' for Active; 'I' for Inactive)
REMARK    1  A    between atoms: O_2  and  C_12
REMARK    2  A    between atoms: N_6  and  C_19
REMARK    3  A    between atoms: N_7  and  C_25
REMARK    4  A    between atoms: CA_9  and  C_12
REMARK    5  A    between atoms: C_10  and  C_11
REMARK    6  A    between atoms: C_20  and  C_21
REMARK    7  A    between atoms: C_22  and  C_24
REMARK                            x       y       z     vdW  Elec       q    Type
REMARK                         _______ _______ _______ _____ _____    ______ ____
ROOT
ATOM     11  C   UNL     1      -2.199   1.148  24.910  0.00  0.00    -0.017 A 
ATOM     15  C   UNL     1      -1.390   2.272  24.747  0.00  0.00    +0.008 A 
ATOM     16  C   UNL     1      -1.639  -0.129  24.846  0.00  0.00    +0.008 A 
ATOM     17  C   UNL     1      -0.022   2.121  24.521  0.00  0.00    +0.023 A 
ATOM     18  C   UNL     1      -0.271  -0.280  24.620  0.00  0.00    +0.023 A 
ATOM     19  C   UNL     1       0.537   0.844  24.457  0.00  0.00    +0.034 A 
ENDROOT
BRANCH  11  10
ATOM      1  O   UNL     1      -4.050   2.630  24.734  0.00  0.00    -0.361 OA
ATOM      3  O   UNL     1      -7.616   2.243  24.679  0.00  0.00    -0.273 OA
ATOM      5  N   UNL     1      -5.964   0.660  24.504  0.00  0.00    -0.306 N 
ATOM      9  CA  UNL     1      -4.551   0.313  24.375  0.00  0.00    +0.131 C 
ATOM     10  C   UNL     1      -3.683   1.311  25.156  0.00  0.00    +0.171 C 
ATOM     13  C   UNL     1      -5.368   2.951  25.127  0.00  0.00    +0.256 C 
ATOM     14  C   UNL     1      -6.425   1.939  24.728  0.00  0.00    +0.239 C 
ATOM     26  H   UNL     1      -6.650  -0.041  24.237  0.00  0.00    +0.149 HD
BRANCH   9  12
ATOM     12  C   UNL     1      -4.333  -1.130  24.822  0.00  0.00    +0.181 C 
BRANCH  12   2
ATOM      2  O   UNL     1      -4.344  -1.962  23.677  0.00  0.00    -0.393 OA
ATOM     27  H   UNL     1      -5.206  -1.843  23.244  0.00  0.00    +0.209 HD
ENDBRANCH  12   2
ENDBRANCH   9  12
ENDBRANCH  11  10
BRANCH  19   6
ATOM      4  O   UNL     1       2.006  -0.068  22.008  0.00  0.00    -0.268 OA
ATOM      6  N   UNL     1       1.905   0.694  24.231  0.00  0.00    -0.280 N 
ATOM     20  C   UNL     1       2.544   0.261  23.060  0.00  0.00    +0.268 C 
ATOM     28  H   UNL     1       2.508   0.933  25.016  0.00  0.00    +0.155 HD
BRANCH  20  21
ATOM      7  N   UNL     1       5.975   0.848  23.604  0.00  0.00    -0.271 N 
ATOM      8  N   UNL     1       4.687   1.200  23.760  0.00  0.00    -0.167 NA
ATOM     21  C   UNL     1       4.028   0.233  23.117  0.00  0.00    +0.148 A 
ATOM     22  C   UNL     1       6.150  -0.301  22.891  0.00  0.00    +0.037 A 
ATOM     23  C   UNL     1       4.889  -0.730  22.556  0.00  0.00    +0.057 A 
ATOM     24  C   UNL     1       7.478  -0.872  22.599  0.00  0.00    +0.065 C 
ATOM     25  C   UNL     1       7.008   1.679  24.180  0.00  0.00    +0.172 C 
ENDBRANCH  20  21
ENDBRANCH  19   6
TORSDOF 5
ENDMDL
