MODEL 1
REMARK VINA RESULT:      -6.1      0.000      0.000
REMARK  Name = 56775625
REMARK  10 active torsions:
REMARK  status: ('A' for Active; 'I' for Inactive)
REMARK    1  A    between atoms: N_4  and  C_7
REMARK    2  A    between atoms: N_4  and  C_12
REMARK    3  A    between atoms: N_6  and  C_16
REMARK    4  A    between atoms: N_6  and  C_19
REMARK    5  A    between atoms: N_6  and  C_22
REMARK    6  A    between atoms: C_7  and  C_10
REMARK    7  A    between atoms: C_10  and  C_11
REMARK    8  A    between atoms: C_12  and  C_14
REMARK    9  A    between atoms: C_15  and  C_16
REMARK   10  A    between atoms: C_19  and  C_23
REMARK                            x       y       z     vdW  Elec       q    Type
REMARK                         _______ _______ _______ _____ _____    ______ ____
ROOT
ATOM     10  C   UNL     1      -2.852   3.701  26.258  0.00  0.00    +0.085 C 
ENDROOT
BRANCH  10  11
ATOM      3  O   UNL     1      -0.129   3.408  23.966  0.00  0.00    -0.358 OA
ATOM      5  N   UNL     1      -1.188   4.106  24.532  0.00  0.00    -0.083 NA
ATOM     11  C   UNL     1      -1.696   3.278  25.449  0.00  0.00    +0.086 A 
ATOM     13  C   UNL     1      -1.005   2.055  25.506  0.00  0.00    +0.072 A 
ATOM     15  C   UNL     1      -0.029   2.188  24.554  0.00  0.00    +0.151 A 
BRANCH  15  16
ATOM     16  C   UNL     1       1.073   1.290  24.060  0.00  0.00    +0.161 C 
BRANCH  16   6
ATOM      6  N   UNL     1       0.563   0.220  23.205  0.00  0.00    -0.294 NA
ATOM     22  C   UNL     1       0.159  -0.931  24.013  0.00  0.00    +0.105 C 
BRANCH   6  19
ATOM     19  C   UNL     1       1.571  -0.174  22.222  0.00  0.00    +0.119 C 
BRANCH  19  23
ATOM     23  C   UNL     1       2.956  -0.188  22.812  0.00  0.00    -0.033 A 
ATOM     25  C   UNL     1       3.435  -1.336  23.443  0.00  0.00    +0.005 A 
ATOM     26  C   UNL     1       3.761   0.949  22.727  0.00  0.00    +0.005 A 
ATOM     27  C   UNL     1       4.719  -1.348  23.988  0.00  0.00    +0.000 A 
ATOM     28  C   UNL     1       5.044   0.937  23.273  0.00  0.00    +0.000 A 
ATOM     29  C   UNL     1       5.523  -0.211  23.904  0.00  0.00    +0.000 A 
ENDBRANCH  19  23
ENDBRANCH   6  19
ENDBRANCH  16   6
ENDBRANCH  15  16
ENDBRANCH  10  11
BRANCH  10   7
ATOM      2  O   UNL     1      -6.141   4.257  25.716  0.00  0.00    -0.376 OA
ATOM      7  C   UNL     1      -4.168   3.470  25.505  0.00  0.00    +0.072 C 
ATOM      8  C   UNL     1      -4.955   4.677  25.005  0.00  0.00    +0.184 C 
ATOM      9  C   UNL     1      -5.426   3.145  26.302  0.00  0.00    +0.184 C 
BRANCH   7   4
ATOM      4  N   UNL     1      -4.040   2.509  24.418  0.00  0.00    -0.302 NA
ATOM     30  H   UNL     1      -3.115   2.092  24.316  0.00  0.00    +0.123 HD
BRANCH   4  12
ATOM     12  C   UNL     1      -5.043   1.458  24.568  0.00  0.00    +0.117 C 
BRANCH  12  14
ATOM      1  F   UNL     1      -2.684  -3.625  25.155  0.00  0.00    -0.205 F 
ATOM     14  C   UNL     1      -4.412   0.100  24.724  0.00  0.00    -0.033 A 
ATOM     17  C   UNL     1      -3.684  -0.202  25.875  0.00  0.00    +0.008 A 
ATOM     18  C   UNL     1      -4.558  -0.857  23.720  0.00  0.00    +0.008 A 
ATOM     20  C   UNL     1      -3.100  -1.460  26.020  0.00  0.00    +0.038 A 
ATOM     21  C   UNL     1      -3.973  -2.115  23.865  0.00  0.00    +0.038 A 
ATOM     24  C   UNL     1      -3.245  -2.417  25.015  0.00  0.00    +0.123 A 
ENDBRANCH  12  14
ENDBRANCH   4  12
ENDBRANCH   7   4
ENDBRANCH  10   7
TORSDOF 9
ENDMDL
MODEL 2
REMARK VINA RESULT:      -3.8      2.703      7.109
REMARK  Name = 56775625
REMARK  10 active torsions:
REMARK  status: ('A' for Active; 'I' for Inactive)
REMARK    1  A    between atoms: N_4  and  C_7
REMARK    2  A    between atoms: N_4  and  C_12
REMARK    3  A    between atoms: N_6  and  C_16
REMARK    4  A    between atoms: N_6  and  C_19
REMARK    5  A    between atoms: N_6  and  C_22
REMARK    6  A    between atoms: C_7  and  C_10
REMARK    7  A    between atoms: C_10  and  C_11
REMARK    8  A    between atoms: C_12  and  C_14
REMARK    9  A    between atoms: C_15  and  C_16
REMARK   10  A    between atoms: C_19  and  C_23
REMARK                            x       y       z     vdW  Elec       q    Type
REMARK                         _______ _______ _______ _____ _____    ______ ____
ROOT
ATOM     10  C   UNL     1      -2.070  -0.681  23.498  0.00  0.00    +0.085 C 
ENDROOT
BRANCH  10  11
ATOM      3  O   UNL     1      -4.817   0.210  25.600  0.00  0.00    -0.358 OA
ATOM      5  N   UNL     1      -3.858  -0.687  25.145  0.00  0.00    -0.083 NA
ATOM     11  C   UNL     1      -3.182  -0.022  24.205  0.00  0.00    +0.086 A 
ATOM     13  C   UNL     1      -3.664   1.286  24.024  0.00  0.00    +0.072 A 
ATOM     15  C   UNL     1      -4.691   1.381  24.925  0.00  0.00    +0.151 A 
BRANCH  15  16
ATOM     16  C   UNL     1      -5.657   2.477  25.291  0.00  0.00    +0.161 C 
BRANCH  16   6
ATOM      6  N   UNL     1      -5.016   3.790  25.291  0.00  0.00    -0.294 NA
ATOM     22  C   UNL     1      -4.357   4.037  24.009  0.00  0.00    +0.105 C 
BRANCH   6  19
ATOM     19  C   UNL     1      -4.055   3.890  26.388  0.00  0.00    +0.119 C 
BRANCH  19  23
ATOM     23  C   UNL     1      -2.642   4.026  25.886  0.00  0.00    -0.033 A 
ATOM     25  C   UNL     1      -2.230   5.209  25.272  0.00  0.00    +0.005 A 
ATOM     26  C   UNL     1      -1.744   2.969  26.037  0.00  0.00    +0.005 A 
ATOM     27  C   UNL     1      -0.920   5.335  24.809  0.00  0.00    +0.000 A 
ATOM     28  C   UNL     1      -0.435   3.095  25.573  0.00  0.00    +0.000 A 
ATOM     29  C   UNL     1      -0.023   4.277  24.958  0.00  0.00    +0.000 A 
ENDBRANCH  19  23
ENDBRANCH   6  19
ENDBRANCH  16   6
ENDBRANCH  15  16
ENDBRANCH  10  11
BRANCH  10   7
ATOM      2  O   UNL     1      -0.231  -1.777  26.114  0.00  0.00    -0.376 OA
ATOM      7  C   UNL     1      -0.801  -0.702  24.360  0.00  0.00    +0.072 C 
ATOM      8  C   UNL     1      -0.157  -2.042  24.695  0.00  0.00    +0.184 C 
ATOM      9  C   UNL     1      -0.933  -0.536  25.870  0.00  0.00    +0.184 C 
BRANCH   7   4
ATOM      4  N   UNL     1       0.228   0.208  23.877  0.00  0.00    -0.302 NA
ATOM     30  H   UNL     1       0.858   0.568  24.593  0.00  0.00    +0.123 HD
BRANCH   4  12
ATOM     12  C   UNL     1       1.000  -0.437  22.818  0.00  0.00    +0.117 C 
BRANCH  12  14
ATOM      1  F   UNL     1       6.548   0.137  23.620  0.00  0.00    -0.205 F 
ATOM     14  C   UNL     1       2.483  -0.284  23.033  0.00  0.00    -0.033 A 
ATOM     17  C   UNL     1       3.220  -1.332  23.584  0.00  0.00    +0.008 A 
ATOM     18  C   UNL     1       3.119   0.906  22.679  0.00  0.00    +0.008 A 
ATOM     20  C   UNL     1       4.593  -1.189  23.782  0.00  0.00    +0.038 A 
ATOM     21  C   UNL     1       4.492   1.048  22.878  0.00  0.00    +0.038 A 
ATOM     24  C   UNL     1       5.230   0.001  23.429  0.00  0.00    +0.123 A 
ENDBRANCH  12  14
ENDBRANCH   4  12
ENDBRANCH   7   4
ENDBRANCH  10   7
TORSDOF 9
ENDMDL
MODEL 3
REMARK VINA RESULT:      -3.8      2.316      7.100
REMARK  Name = 56775625
REMARK  10 active torsions:
REMARK  status: ('A' for Active; 'I' for Inactive)
REMARK    1  A    between atoms: N_4  and  C_7
REMARK    2  A    between atoms: N_4  and  C_12
REMARK    3  A    between atoms: N_6  and  C_16
REMARK    4  A    between atoms: N_6  and  C_19
REMARK    5  A    between atoms: N_6  and  C_22
REMARK    6  A    between atoms: C_7  and  C_10
REMARK    7  A    between atoms: C_10  and  C_11
REMARK    8  A    between atoms: C_12  and  C_14
REMARK    9  A    between atoms: C_15  and  C_16
REMARK   10  A    between atoms: C_19  and  C_23
REMARK                            x       y       z     vdW  Elec       q    Type
REMARK                         _______ _______ _______ _____ _____    ______ ____
ROOT
ATOM     10  C   UNL     1      -0.603   3.465  23.886  0.00  0.00    +0.085 C 
ENDROOT
BRANCH  10  11
ATOM      3  O   UNL     1      -3.619   4.166  25.665  0.00  0.00    -0.358 OA
ATOM      5  N   UNL     1      -2.270   4.373  25.405  0.00  0.00    -0.083 NA
ATOM     11  C   UNL     1      -1.974   3.518  24.422  0.00  0.00    +0.086 A 
ATOM     13  C   UNL     1      -3.084   2.753  24.027  0.00  0.00    +0.072 A 
ATOM     15  C   UNL     1      -4.093   3.199  24.839  0.00  0.00    +0.151 A 
BRANCH  15  16
ATOM     16  C   UNL     1      -5.549   2.843  24.983  0.00  0.00    +0.161 C 
BRANCH  16   6
ATOM      6  N   UNL     1      -5.729   1.510  25.554  0.00  0.00    -0.294 NA
ATOM     22  C   UNL     1      -6.682   1.553  26.663  0.00  0.00    +0.105 C 
BRANCH   6  19
ATOM     19  C   UNL     1      -4.447   0.968  26.003  0.00  0.00    +0.119 C 
BRANCH  19  23
ATOM     23  C   UNL     1      -4.161  -0.378  25.391  0.00  0.00    -0.033 A 
ATOM     25  C   UNL     1      -4.587  -0.659  24.092  0.00  0.00    +0.005 A 
ATOM     26  C   UNL     1      -3.469  -1.343  26.123  0.00  0.00    +0.005 A 
ATOM     27  C   UNL     1      -4.320  -1.906  23.526  0.00  0.00    +0.000 A 
ATOM     28  C   UNL     1      -3.204  -2.590  25.556  0.00  0.00    +0.000 A 
ATOM     29  C   UNL     1      -3.630  -2.871  24.258  0.00  0.00    +0.000 A 
ENDBRANCH  19  23
ENDBRANCH   6  19
ENDBRANCH  16   6
ENDBRANCH  15  16
ENDBRANCH  10  11
BRANCH  10   7
ATOM      2  O   UNL     1      -0.611   0.333  25.155  0.00  0.00    -0.376 OA
ATOM      7  C   UNL     1       0.048   2.104  24.163  0.00  0.00    +0.072 C 
ATOM      8  C   UNL     1      -0.714   0.833  23.803  0.00  0.00    +0.184 C 
ATOM      9  C   UNL     1       0.031   1.555  25.585  0.00  0.00    +0.184 C 
BRANCH   7   4
ATOM      4  N   UNL     1       1.402   2.005  23.638  0.00  0.00    -0.302 NA
ATOM     30  H   UNL     1       2.142   2.221  24.305  0.00  0.00    +0.123 HD
BRANCH   4  12
ATOM     12  C   UNL     1       1.617   0.676  23.073  0.00  0.00    +0.117 C 
BRANCH  12  14
ATOM      1  F   UNL     1       6.944  -1.043  23.725  0.00  0.00    -0.205 F 
ATOM     14  C   UNL     1       3.041   0.217  23.247  0.00  0.00    -0.033 A 
ATOM     17  C   UNL     1       3.308  -1.100  23.622  0.00  0.00    +0.008 A 
ATOM     18  C   UNL     1       4.092   1.108  23.033  0.00  0.00    +0.008 A 
ATOM     20  C   UNL     1       4.627  -1.525  23.784  0.00  0.00    +0.038 A 
ATOM     21  C   UNL     1       5.411   0.682  23.194  0.00  0.00    +0.038 A 
ATOM     24  C   UNL     1       5.678  -0.634  23.570  0.00  0.00    +0.123 A 
ENDBRANCH  12  14
ENDBRANCH   4  12
ENDBRANCH   7   4
ENDBRANCH  10   7
TORSDOF 9
ENDMDL
MODEL 4
REMARK VINA RESULT:      -3.7      2.662      7.512
REMARK  Name = 56775625
REMARK  10 active torsions:
REMARK  status: ('A' for Active; 'I' for Inactive)
REMARK    1  A    between atoms: N_4  and  C_7
REMARK    2  A    between atoms: N_4  and  C_12
REMARK    3  A    between atoms: N_6  and  C_16
REMARK    4  A    between atoms: N_6  and  C_19
REMARK    5  A    between atoms: N_6  and  C_22
REMARK    6  A    between atoms: C_7  and  C_10
REMARK    7  A    between atoms: C_10  and  C_11
REMARK    8  A    between atoms: C_12  and  C_14
REMARK    9  A    between atoms: C_15  and  C_16
REMARK   10  A    between atoms: C_19  and  C_23
REMARK                            x       y       z     vdW  Elec       q    Type
REMARK                         _______ _______ _______ _____ _____    ______ ____
ROOT
ATOM     10  C   UNL     1      -1.481  -1.416  24.920  0.00  0.00    +0.085 C 
ENDROOT
BRANCH  10  11
ATOM      3  O   UNL     1      -4.902  -0.927  24.020  0.00  0.00    -0.358 OA
ATOM      5  N   UNL     1      -3.710  -1.639  23.977  0.00  0.00    -0.083 NA
ATOM     11  C   UNL     1      -2.863  -0.941  24.738  0.00  0.00    +0.086 A 
ATOM     13  C   UNL     1      -3.458   0.210  25.283  0.00  0.00    +0.072 A 
ATOM     15  C   UNL     1      -4.740   0.172  24.801  0.00  0.00    +0.151 A 
BRANCH  15  16
ATOM     16  C   UNL     1      -5.940   1.067  24.963  0.00  0.00    +0.161 C 
BRANCH  16   6
ATOM      6  N   UNL     1      -5.793   1.975  26.099  0.00  0.00    -0.294 NA
ATOM     22  C   UNL     1      -6.923   1.831  27.017  0.00  0.00    +0.105 C 
BRANCH   6  19
ATOM     19  C   UNL     1      -5.682   3.358  25.637  0.00  0.00    +0.119 C 
BRANCH  19  23
ATOM     23  C   UNL     1      -4.252   3.749  25.375  0.00  0.00    -0.033 A 
ATOM     25  C   UNL     1      -3.391   4.004  26.442  0.00  0.00    +0.005 A 
ATOM     26  C   UNL     1      -3.788   3.855  24.063  0.00  0.00    +0.005 A 
ATOM     27  C   UNL     1      -2.066   4.366  26.198  0.00  0.00    +0.000 A 
ATOM     28  C   UNL     1      -2.463   4.218  23.820  0.00  0.00    +0.000 A 
ATOM     29  C   UNL     1      -1.602   4.473  24.887  0.00  0.00    +0.000 A 
ENDBRANCH  19  23
ENDBRANCH   6  19
ENDBRANCH  16   6
ENDBRANCH  15  16
ENDBRANCH  10  11
BRANCH  10   7
ATOM      2  O   UNL     1      -0.507   1.673  23.953  0.00  0.00    -0.376 OA
ATOM      7  C   UNL     1      -0.473  -0.431  24.315  0.00  0.00    +0.072 C 
ATOM      8  C   UNL     1      -0.136   0.845  25.079  0.00  0.00    +0.184 C 
ATOM      9  C   UNL     1      -0.935   0.510  23.208  0.00  0.00    +0.184 C 
BRANCH   7   4
ATOM      4  N   UNL     1       0.767  -1.071  23.898  0.00  0.00    -0.302 NA
ATOM     30  H   UNL     1       0.670  -2.033  23.574  0.00  0.00    +0.123 HD
BRANCH   4  12
ATOM     12  C   UNL     1       1.417  -0.265  22.867  0.00  0.00    +0.117 C 
BRANCH  12  14
ATOM      1  F   UNL     1       6.983   0.075  23.673  0.00  0.00    -0.205 F 
ATOM     14  C   UNL     1       2.905  -0.174  23.083  0.00  0.00    -0.033 A 
ATOM     17  C   UNL     1       3.598  -1.256  23.624  0.00  0.00    +0.008 A 
ATOM     18  C   UNL     1       3.588   0.993  22.741  0.00  0.00    +0.008 A 
ATOM     20  C   UNL     1       4.976  -1.171  23.823  0.00  0.00    +0.038 A 
ATOM     21  C   UNL     1       4.966   1.077  22.941  0.00  0.00    +0.038 A 
ATOM     24  C   UNL     1       5.661  -0.005  23.482  0.00  0.00    +0.123 A 
ENDBRANCH  12  14
ENDBRANCH   4  12
ENDBRANCH   7   4
ENDBRANCH  10   7
TORSDOF 9
ENDMDL
MODEL 5
REMARK VINA RESULT:      -2.4      2.180      3.856
REMARK  Name = 56775625
REMARK  10 active torsions:
REMARK  status: ('A' for Active; 'I' for Inactive)
REMARK    1  A    between atoms: N_4  and  C_7
REMARK    2  A    between atoms: N_4  and  C_12
REMARK    3  A    between atoms: N_6  and  C_16
REMARK    4  A    between atoms: N_6  and  C_19
REMARK    5  A    between atoms: N_6  and  C_22
REMARK    6  A    between atoms: C_7  and  C_10
REMARK    7  A    between atoms: C_10  and  C_11
REMARK    8  A    between atoms: C_12  and  C_14
REMARK    9  A    between atoms: C_15  and  C_16
REMARK   10  A    between atoms: C_19  and  C_23
REMARK                            x       y       z     vdW  Elec       q    Type
REMARK                         _______ _______ _______ _____ _____    ______ ____
ROOT
ATOM     10  C   UNL     1      -5.071  -0.079  24.584  0.00  0.00    +0.085 C 
ENDROOT
BRANCH  10  11
ATOM      3  O   UNL     1      -1.899  -1.138  25.835  0.00  0.00    -0.358 OA
ATOM      5  N   UNL     1      -3.255  -0.879  25.987  0.00  0.00    -0.083 NA
ATOM     11  C   UNL     1      -3.661  -0.449  24.789  0.00  0.00    +0.086 A 
ATOM     13  C   UNL     1      -2.615  -0.417  23.851  0.00  0.00    +0.072 A 
ATOM     15  C   UNL     1      -1.529  -0.859  24.559  0.00  0.00    +0.151 A 
BRANCH  15  16
ATOM     16  C   UNL     1      -0.081  -1.083  24.212  0.00  0.00    +0.161 C 
BRANCH  16   6
ATOM      6  N   UNL     1       0.528   0.106  23.621  0.00  0.00    -0.294 NA
ATOM     22  C   UNL     1      -0.504   1.023  23.139  0.00  0.00    +0.105 C 
BRANCH   6  19
ATOM     19  C   UNL     1       1.429  -0.268  22.532  0.00  0.00    +0.119 C 
BRANCH  19  23
ATOM     23  C   UNL     1       2.873  -0.226  22.958  0.00  0.00    -0.033 A 
ATOM     25  C   UNL     1       3.626   0.932  22.762  0.00  0.00    +0.005 A 
ATOM     26  C   UNL     1       3.457  -1.346  23.551  0.00  0.00    +0.005 A 
ATOM     27  C   UNL     1       4.963   0.970  23.157  0.00  0.00    +0.000 A 
ATOM     28  C   UNL     1       4.794  -1.307  23.946  0.00  0.00    +0.000 A 
ATOM     29  C   UNL     1       5.547  -0.150  23.749  0.00  0.00    +0.000 A 
ENDBRANCH  19  23
ENDBRANCH   6  19
ENDBRANCH  16   6
ENDBRANCH  15  16
ENDBRANCH  10  11
BRANCH  10   7
ATOM      2  O   UNL     1      -6.595   2.611  25.952  0.00  0.00    -0.376 OA
ATOM      7  C   UNL     1      -5.277   1.432  24.755  0.00  0.00    +0.072 C 
ATOM      8  C   UNL     1      -5.291   2.022  26.161  0.00  0.00    +0.184 C 
ATOM      9  C   UNL     1      -6.688   2.001  24.644  0.00  0.00    +0.184 C 
BRANCH   7   4
ATOM      4  N   UNL     1      -4.385   2.225  23.921  0.00  0.00    -0.302 NA
ATOM     30  H   UNL     1      -4.756   2.472  23.004  0.00  0.00    +0.123 HD
BRANCH   4  12
ATOM     12  C   UNL     1      -3.987   3.435  24.635  0.00  0.00    +0.117 C 
BRANCH  12  14
ATOM      1  F   UNL     1       1.342   3.141  26.444  0.00  0.00    -0.205 F 
ATOM     14  C   UNL     1      -2.562   3.356  25.119  0.00  0.00    -0.033 A 
ATOM     17  C   UNL     1      -1.620   4.277  24.663  0.00  0.00    +0.008 A 
ATOM     18  C   UNL     1      -2.186   2.362  26.022  0.00  0.00    +0.008 A 
ATOM     20  C   UNL     1      -0.301   4.204  25.111  0.00  0.00    +0.038 A 
ATOM     21  C   UNL     1      -0.867   2.289  26.470  0.00  0.00    +0.038 A 
ATOM     24  C   UNL     1       0.076   3.211  26.014  0.00  0.00    +0.123 A 
ENDBRANCH  12  14
ENDBRANCH   4  12
ENDBRANCH   7   4
ENDBRANCH  10   7
TORSDOF 9
ENDMDL
MODEL 6
REMARK VINA RESULT:      -2.3      3.003      6.866
REMARK  Name = 56775625
REMARK  10 active torsions:
REMARK  status: ('A' for Active; 'I' for Inactive)
REMARK    1  A    between atoms: N_4  and  C_7
REMARK    2  A    between atoms: N_4  and  C_12
REMARK    3  A    between atoms: N_6  and  C_16
REMARK    4  A    between atoms: N_6  and  C_19
REMARK    5  A    between atoms: N_6  and  C_22
REMARK    6  A    between atoms: C_7  and  C_10
REMARK    7  A    between atoms: C_10  and  C_11
REMARK    8  A    between atoms: C_12  and  C_14
REMARK    9  A    between atoms: C_15  and  C_16
REMARK   10  A    between atoms: C_19  and  C_23
REMARK                            x       y       z     vdW  Elec       q    Type
REMARK                         _______ _______ _______ _____ _____    ______ ____
ROOT
ATOM     10  C   UNL     1      -0.504   0.834  22.313  0.00  0.00    +0.085 C 
ENDROOT
BRANCH  10  11
ATOM      3  O   UNL     1      -3.455   2.843  22.257  0.00  0.00    -0.358 OA
ATOM      5  N   UNL     1      -2.290   2.355  21.679  0.00  0.00    -0.083 NA
ATOM     11  C   UNL     1      -1.766   1.538  22.596  0.00  0.00    +0.086 A 
ATOM     13  C   UNL     1      -2.548   1.471  23.762  0.00  0.00    +0.072 A 
ATOM     15  C   UNL     1      -3.598   2.310  23.497  0.00  0.00    +0.151 A 
BRANCH  15  16
ATOM     16  C   UNL     1      -4.816   2.731  24.276  0.00  0.00    +0.161 C 
BRANCH  16   6
ATOM      6  N   UNL     1      -5.520   1.585  24.848  0.00  0.00    -0.294 NA
ATOM     22  C   UNL     1      -6.770   2.014  25.475  0.00  0.00    +0.105 C 
BRANCH   6  19
ATOM     19  C   UNL     1      -4.671   0.896  25.819  0.00  0.00    +0.119 C 
BRANCH  19  23
ATOM     23  C   UNL     1      -4.269  -0.474  25.341  0.00  0.00    -0.033 A 
ATOM     25  C   UNL     1      -4.655  -0.913  24.075  0.00  0.00    +0.005 A 
ATOM     26  C   UNL     1      -3.509  -1.304  26.166  0.00  0.00    +0.005 A 
ATOM     27  C   UNL     1      -4.281  -2.183  23.633  0.00  0.00    +0.000 A 
ATOM     28  C   UNL     1      -3.136  -2.573  25.724  0.00  0.00    +0.000 A 
ATOM     29  C   UNL     1      -3.522  -3.013  24.458  0.00  0.00    +0.000 A 
ENDBRANCH  19  23
ENDBRANCH   6  19
ENDBRANCH  16   6
ENDBRANCH  15  16
ENDBRANCH  10  11
BRANCH  10   7
ATOM      2  O   UNL     1       0.235  -1.488  24.655  0.00  0.00    -0.376 OA
ATOM      7  C   UNL     1       0.175   0.372  23.609  0.00  0.00    +0.072 C 
ATOM      8  C   UNL     1       1.016  -0.900  23.590  0.00  0.00    +0.184 C 
ATOM      9  C   UNL     1      -0.659  -0.352  24.660  0.00  0.00    +0.184 C 
BRANCH   7   4
ATOM      4  N   UNL     1       0.935   1.429  24.260  0.00  0.00    -0.302 NA
ATOM     30  H   UNL     1       1.085   2.265  23.696  0.00  0.00    +0.123 HD
BRANCH   4  12
ATOM     12  C   UNL     1       0.295   1.792  25.522  0.00  0.00    +0.117 C 
BRANCH  12  14
ATOM      1  F   UNL     1      -2.461   6.691  25.139  0.00  0.00    -0.205 F 
ATOM     14  C   UNL     1      -0.441   3.102  25.420  0.00  0.00    -0.033 A 
ATOM     17  C   UNL     1      -0.005   4.079  24.526  0.00  0.00    +0.008 A 
ATOM     18  C   UNL     1      -1.560   3.336  26.219  0.00  0.00    +0.008 A 
ATOM     20  C   UNL     1      -0.687   5.292  24.432  0.00  0.00    +0.038 A 
ATOM     21  C   UNL     1      -2.242   4.549  26.125  0.00  0.00    +0.038 A 
ATOM     24  C   UNL     1      -1.806   5.527  25.230  0.00  0.00    +0.123 A 
ENDBRANCH  12  14
ENDBRANCH   4  12
ENDBRANCH   7   4
ENDBRANCH  10   7
TORSDOF 9
ENDMDL
MODEL 7
REMARK VINA RESULT:      -2.1      2.559      6.396
REMARK  Name = 56775625
REMARK  10 active torsions:
REMARK  status: ('A' for Active; 'I' for Inactive)
REMARK    1  A    between atoms: N_4  and  C_7
REMARK    2  A    between atoms: N_4  and  C_12
REMARK    3  A    between atoms: N_6  and  C_16
REMARK    4  A    between atoms: N_6  and  C_19
REMARK    5  A    between atoms: N_6  and  C_22
REMARK    6  A    between atoms: C_7  and  C_10
REMARK    7  A    between atoms: C_10  and  C_11
REMARK    8  A    between atoms: C_12  and  C_14
REMARK    9  A    between atoms: C_15  and  C_16
REMARK   10  A    between atoms: C_19  and  C_23
REMARK                            x       y       z     vdW  Elec       q    Type
REMARK                         _______ _______ _______ _____ _____    ______ ____
ROOT
ATOM     10  C   UNL     1      -3.943  -1.073  23.459  0.00  0.00    +0.085 C 
ENDROOT
BRANCH  10  11
ATOM      3  O   UNL     1      -3.120   2.365  22.950  0.00  0.00    -0.358 OA
ATOM      5  N   UNL     1      -2.957   1.011  22.686  0.00  0.00    -0.083 NA
ATOM     11  C   UNL     1      -3.839   0.396  23.479  0.00  0.00    +0.086 A 
ATOM     13  C   UNL     1      -4.579   1.302  24.258  0.00  0.00    +0.072 A 
ATOM     15  C   UNL     1      -4.088   2.526  23.888  0.00  0.00    +0.151 A 
BRANCH  15  16
ATOM     16  C   UNL     1      -4.400   3.941  24.298  0.00  0.00    +0.161 C 
BRANCH  16   6
ATOM      6  N   UNL     1      -4.934   4.009  25.657  0.00  0.00    -0.294 NA
ATOM     22  C   UNL     1      -6.062   4.939  25.718  0.00  0.00    +0.105 C 
BRANCH   6  19
ATOM     19  C   UNL     1      -3.889   4.410  26.598  0.00  0.00    +0.119 C 
BRANCH  19  23
ATOM     23  C   UNL     1      -2.512   4.239  26.014  0.00  0.00    -0.033 A 
ATOM     25  C   UNL     1      -1.789   3.071  26.260  0.00  0.00    +0.005 A 
ATOM     26  C   UNL     1      -1.959   5.248  25.225  0.00  0.00    +0.005 A 
ATOM     27  C   UNL     1      -0.514   2.913  25.718  0.00  0.00    +0.000 A 
ATOM     28  C   UNL     1      -0.684   5.090  24.683  0.00  0.00    +0.000 A 
ATOM     29  C   UNL     1       0.039   3.923  24.930  0.00  0.00    +0.000 A 
ENDBRANCH  19  23
ENDBRANCH   6  19
ENDBRANCH  16   6
ENDBRANCH  15  16
ENDBRANCH  10  11
BRANCH  10   7
ATOM      2  O   UNL     1      -3.210  -2.595  26.386  0.00  0.00    -0.376 OA
ATOM      7  C   UNL     1      -2.969  -1.710  24.458  0.00  0.00    +0.072 C 
ATOM      8  C   UNL     1      -3.292  -3.087  25.029  0.00  0.00    +0.184 C 
ATOM      9  C   UNL     1      -2.995  -1.246  25.911  0.00  0.00    +0.184 C 
BRANCH   7   4
ATOM      4  N   UNL     1      -1.591  -1.707  23.990  0.00  0.00    -0.302 NA
ATOM     30  H   UNL     1      -1.477  -1.740  22.977  0.00  0.00    +0.123 HD
BRANCH   4  12
ATOM     12  C   UNL     1      -0.889  -0.544  24.528  0.00  0.00    +0.117 C 
BRANCH  12  14
ATOM      1  F   UNL     1       3.681   0.735  21.490  0.00  0.00    -0.205 F 
ATOM     14  C   UNL     1       0.333  -0.203  23.716  0.00  0.00    -0.033 A 
ATOM     17  C   UNL     1       0.574  -0.860  22.510  0.00  0.00    +0.008 A 
ATOM     18  C   UNL     1       1.222   0.772  24.170  0.00  0.00    +0.008 A 
ATOM     20  C   UNL     1       1.706  -0.543  21.758  0.00  0.00    +0.038 A 
ATOM     21  C   UNL     1       2.353   1.088  23.419  0.00  0.00    +0.038 A 
ATOM     24  C   UNL     1       2.595   0.431  22.212  0.00  0.00    +0.123 A 
ENDBRANCH  12  14
ENDBRANCH   4  12
ENDBRANCH   7   4
ENDBRANCH  10   7
TORSDOF 9
ENDMDL
