MODEL 1
REMARK VINA RESULT:      10.4      0.000      0.000
REMARK  Name = 26763546
REMARK  9 active torsions:
REMARK  status: ('A' for Active; 'I' for Inactive)
REMARK    1  A    between atoms: O_3  and  C_13
REMARK    2  A    between atoms: O_4  and  C_18
REMARK    3  A    between atoms: C_8  and  C_16
REMARK    4  A    between atoms: C_10  and  C_18
REMARK    5  A    between atoms: C_10  and  C_19
REMARK    6  A    between atoms: C_11  and  C_21
REMARK    7  A    between atoms: C_21  and  C_22
REMARK    8  A    between atoms: C_23  and  C_26
REMARK    9  A    between atoms: C_29  and  C_30
REMARK                            x       y       z     vdW  Elec       q    Type
REMARK                         _______ _______ _______ _____ _____    ______ ____
ROOT
ATOM      1  S   UNL     1       1.659  -1.671  23.314  0.00  0.00    -0.072 S 
ATOM      6  N   UNL     1       1.840   0.825  23.971  0.00  0.00    -0.243 NA
ATOM      8  C   UNL     1      -2.014   0.947  24.057  0.00  0.00    -0.020 C 
ATOM      9  C   UNL     1      -2.129  -0.579  24.498  0.00  0.00    +0.011 C 
ATOM     10  C   UNL     1      -3.582  -1.188  24.592  0.00  0.00    +0.021 C 
ATOM     11  C   UNL     1      -0.553   1.464  24.448  0.00  0.00    +0.053 C 
ATOM     12  C   UNL     1      -3.056   1.789  24.836  0.00  0.00    +0.010 C 
ATOM     13  C   UNL     1      -4.505  -0.199  25.359  0.00  0.00    +0.123 C 
ATOM     14  C   UNL     1      -1.122  -1.475  23.720  0.00  0.00    +0.049 C 
ATOM     15  C   UNL     1      -4.466   1.217  24.797  0.00  0.00    +0.032 C 
ATOM     16  C   UNL     1      -2.243   1.152  22.539  0.00  0.00    +0.012 C 
ATOM     17  C   UNL     1       0.503   0.475  24.028  0.00  0.00    +0.056 A 
ATOM     19  C   UNL     1      -3.527  -2.504  25.418  0.00  0.00    +0.016 C 
ATOM     20  C   UNL     1       0.229  -0.842  23.723  0.00  0.00    +0.014 A 
ATOM     23  C   UNL     1       2.540  -0.225  23.599  0.00  0.00    +0.109 A 
ENDROOT
BRANCH  23  26
ATOM      2  S   UNL     1       6.493  -0.809  23.559  0.00  0.00    -0.104 S 
ATOM     26  C   UNL     1       4.010  -0.164  23.435  0.00  0.00    +0.014 A 
ATOM     31  C   UNL     1       4.724   0.895  22.804  0.00  0.00    +0.018 A 
ATOM     32  C   UNL     1       4.850  -1.155  23.891  0.00  0.00    +0.055 A 
ATOM     33  C   UNL     1       6.083   0.672  22.802  0.00  0.00    +0.046 A 
ENDBRANCH  23  26
BRANCH  13   3
ATOM      3  O   UNL     1      -5.855  -0.660  25.348  0.00  0.00    -0.391 OA
ATOM     34  H   UNL     1      -5.997  -1.139  24.514  0.00  0.00    +0.210 HD
ENDBRANCH  13   3
BRANCH  10  18
ATOM     18  C   UNL     1      -4.201  -1.578  23.231  0.00  0.00    +0.165 C 
BRANCH  18   4
ATOM      4  O   UNL     1      -4.707  -2.889  23.347  0.00  0.00    -0.394 OA
ATOM     35  H   UNL     1      -5.481  -2.851  23.933  0.00  0.00    +0.209 HD
ENDBRANCH  18   4
ENDBRANCH  10  18
BRANCH  11  21
ATOM     21  C   UNL     1      -0.225   2.880  23.957  0.00  0.00    +0.106 C 
BRANCH  21  22
ATOM      5  O   UNL     1       0.090   4.096  25.966  0.00  0.00    -0.276 OA
ATOM      7  N   UNL     1      -1.860   4.537  24.782  0.00  0.00    -0.301 N 
ATOM     22  C   UNL     1      -0.643   3.891  24.995  0.00  0.00    +0.216 C 
ATOM     24  C   UNL     1      -2.753   4.315  23.639  0.00  0.00    +0.108 C 
ATOM     25  C   UNL     1      -2.317   5.560  25.724  0.00  0.00    +0.108 C 
ATOM     27  C   UNL     1      -4.164   3.968  24.112  0.00  0.00    +0.022 C 
ATOM     28  C   UNL     1      -3.717   5.238  26.242  0.00  0.00    +0.022 C 
ATOM     29  C   UNL     1      -4.703   5.029  25.082  0.00  0.00    -0.011 C 
ATOM     30  C   UNL     1      -6.082   4.635  25.606  0.00  0.00    +0.007 C 
ENDBRANCH  21  22
ENDBRANCH  11  21
TORSDOF 6
ENDMDL
MODEL 2
REMARK VINA RESULT:      10.8      2.232      5.184
REMARK  Name = 26763546
REMARK  9 active torsions:
REMARK  status: ('A' for Active; 'I' for Inactive)
REMARK    1  A    between atoms: O_3  and  C_13
REMARK    2  A    between atoms: O_4  and  C_18
REMARK    3  A    between atoms: C_8  and  C_16
REMARK    4  A    between atoms: C_10  and  C_18
REMARK    5  A    between atoms: C_10  and  C_19
REMARK    6  A    between atoms: C_11  and  C_21
REMARK    7  A    between atoms: C_21  and  C_22
REMARK    8  A    between atoms: C_23  and  C_26
REMARK    9  A    between atoms: C_29  and  C_30
REMARK                            x       y       z     vdW  Elec       q    Type
REMARK                         _______ _______ _______ _____ _____    ______ ____
ROOT
ATOM      1  S   UNL     1       1.583   2.721  23.213  0.00  0.00    -0.072 S 
ATOM      6  N   UNL     1       0.936   0.468  24.307  0.00  0.00    -0.243 NA
ATOM      8  C   UNL     1      -2.273   2.169  25.604  0.00  0.00    -0.020 C 
ATOM      9  C   UNL     1      -2.348   3.155  24.356  0.00  0.00    +0.011 C 
ATOM     10  C   UNL     1      -3.478   4.256  24.381  0.00  0.00    +0.021 C 
ATOM     11  C   UNL     1      -1.388   0.907  25.183  0.00  0.00    +0.053 C 
ATOM     12  C   UNL     1      -3.699   1.673  25.956  0.00  0.00    +0.010 C 
ATOM     13  C   UNL     1      -4.825   3.599  24.795  0.00  0.00    +0.123 C 
ATOM     14  C   UNL     1      -0.942   3.707  23.981  0.00  0.00    +0.049 C 
ATOM     15  C   UNL     1      -4.727   2.788  26.082  0.00  0.00    +0.032 C 
ATOM     16  C   UNL     1      -1.655   2.835  26.859  0.00  0.00    +0.012 C 
ATOM     17  C   UNL     1      -0.125   1.338  24.486  0.00  0.00    +0.056 A 
ATOM     19  C   UNL     1      -3.663   4.824  22.945  0.00  0.00    +0.016 C 
ATOM     20  C   UNL     1       0.048   2.593  23.938  0.00  0.00    +0.014 A 
ATOM     23  C   UNL     1       1.893   1.092  23.656  0.00  0.00    +0.109 A 
ENDROOT
BRANCH  23  26
ATOM      2  S   UNL     1       4.992  -1.379  23.140  0.00  0.00    -0.104 S 
ATOM     26  C   UNL     1       3.171   0.424  23.320  0.00  0.00    +0.014 A 
ATOM     31  C   UNL     1       4.256   1.028  22.620  0.00  0.00    +0.018 A 
ATOM     32  C   UNL     1       3.438  -0.883  23.661  0.00  0.00    +0.055 A 
ATOM     33  C   UNL     1       5.311   0.158  22.455  0.00  0.00    +0.046 A 
ENDBRANCH  23  26
BRANCH  13   3
ATOM      3  O   UNL     1      -5.840   4.590  24.954  0.00  0.00    -0.391 OA
ATOM     34  H   UNL     1      -5.683   5.040  25.801  0.00  0.00    +0.210 HD
ENDBRANCH  13   3
BRANCH  10  18
ATOM     18  C   UNL     1      -3.163   5.477  25.273  0.00  0.00    +0.165 C 
BRANCH  18   4
ATOM      4  O   UNL     1      -1.783   5.747  25.163  0.00  0.00    -0.394 OA
ATOM     35  H   UNL     1      -1.638   6.652  25.490  0.00  0.00    +0.209 HD
ENDBRANCH  18   4
ENDBRANCH  10  18
BRANCH  11  21
ATOM     21  C   UNL     1      -1.094  -0.075  26.326  0.00  0.00    +0.106 C 
BRANCH  21  22
ATOM      5  O   UNL     1       0.070  -2.025  25.647  0.00  0.00    -0.276 OA
ATOM      7  N   UNL     1      -2.246  -2.085  25.470  0.00  0.00    -0.301 N 
ATOM     22  C   UNL     1      -1.029  -1.482  25.786  0.00  0.00    +0.216 C 
ATOM     24  C   UNL     1      -3.567  -1.466  25.623  0.00  0.00    +0.108 C 
ATOM     25  C   UNL     1      -2.270  -3.464  24.978  0.00  0.00    +0.108 C 
ATOM     27  C   UNL     1      -4.346  -1.518  24.310  0.00  0.00    +0.022 C 
ATOM     28  C   UNL     1      -3.019  -3.556  23.651  0.00  0.00    +0.022 C 
ATOM     29  C   UNL     1      -4.427  -2.951  23.765  0.00  0.00    -0.011 C 
ATOM     30  C   UNL     1      -5.141  -2.980  22.416  0.00  0.00    +0.007 C 
ENDBRANCH  21  22
ENDBRANCH  11  21
TORSDOF 6
ENDMDL
MODEL 3
REMARK VINA RESULT:      13.1      2.246      5.316
REMARK  Name = 26763546
REMARK  9 active torsions:
REMARK  status: ('A' for Active; 'I' for Inactive)
REMARK    1  A    between atoms: O_3  and  C_13
REMARK    2  A    between atoms: O_4  and  C_18
REMARK    3  A    between atoms: C_8  and  C_16
REMARK    4  A    between atoms: C_10  and  C_18
REMARK    5  A    between atoms: C_10  and  C_19
REMARK    6  A    between atoms: C_11  and  C_21
REMARK    7  A    between atoms: C_21  and  C_22
REMARK    8  A    between atoms: C_23  and  C_26
REMARK    9  A    between atoms: C_29  and  C_30
REMARK                            x       y       z     vdW  Elec       q    Type
REMARK                         _______ _______ _______ _____ _____    ______ ____
ROOT
ATOM      1  S   UNL     1       0.644   2.205  25.102  0.00  0.00    -0.072 S 
ATOM      6  N   UNL     1      -0.360   1.197  22.942  0.00  0.00    -0.243 NA
ATOM      8  C   UNL     1      -3.857   2.066  24.317  0.00  0.00    -0.020 C 
ATOM      9  C   UNL     1      -3.314   3.336  25.110  0.00  0.00    +0.011 C 
ATOM     10  C   UNL     1      -4.344   4.099  26.030  0.00  0.00    +0.021 C 
ATOM     11  C   UNL     1      -2.816   1.732  23.151  0.00  0.00    +0.053 C 
ATOM     12  C   UNL     1      -5.223   2.408  23.670  0.00  0.00    +0.010 C 
ATOM     13  C   UNL     1      -5.669   4.317  25.245  0.00  0.00    +0.123 C 
ATOM     14  C   UNL     1      -1.955   3.035  25.806  0.00  0.00    +0.049 C 
ATOM     15  C   UNL     1      -6.222   3.036  24.632  0.00  0.00    +0.032 C 
ATOM     16  C   UNL     1      -4.032   0.823  25.223  0.00  0.00    +0.012 C 
ATOM     17  C   UNL     1      -1.400   1.752  23.666  0.00  0.00    +0.056 A 
ATOM     19  C   UNL     1      -3.774   5.504  26.373  0.00  0.00    +0.016 C 
ATOM     20  C   UNL     1      -1.033   2.357  24.850  0.00  0.00    +0.014 A 
ATOM     23  C   UNL     1       0.762   1.370  23.607  0.00  0.00    +0.109 A 
ENDROOT
BRANCH  23  26
ATOM      2  S   UNL     1       4.589   0.529  22.821  0.00  0.00    -0.104 S 
ATOM     26  C   UNL     1       2.058   0.874  23.092  0.00  0.00    +0.014 A 
ATOM     31  C   UNL     1       2.217  -0.049  22.018  0.00  0.00    +0.018 A 
ATOM     32  C   UNL     1       3.267   1.269  23.619  0.00  0.00    +0.055 A 
ATOM     33  C   UNL     1       3.543  -0.324  21.766  0.00  0.00    +0.046 A 
ENDBRANCH  23  26
BRANCH  13   3
ATOM      3  O   UNL     1      -6.667   4.888  26.091  0.00  0.00    -0.391 OA
ATOM     34  H   UNL     1      -7.530   4.550  25.800  0.00  0.00    +0.210 HD
ENDBRANCH  13   3
BRANCH  10  18
ATOM     18  C   UNL     1      -4.615   3.418  27.390  0.00  0.00    +0.165 C 
BRANCH  18   4
ATOM      4  O   UNL     1      -5.763   2.611  27.248  0.00  0.00    -0.394 OA
ATOM     35  H   UNL     1      -5.802   2.323  26.320  0.00  0.00    +0.209 HD
ENDBRANCH  18   4
ENDBRANCH  10  18
BRANCH  11  21
ATOM     21  C   UNL     1      -3.117   0.439  22.380  0.00  0.00    +0.106 C 
BRANCH  21  22
ATOM      5  O   UNL     1      -4.706  -0.665  23.747  0.00  0.00    -0.276 OA
ATOM      7  N   UNL     1      -2.563  -1.562  23.717  0.00  0.00    -0.301 N 
ATOM     22  C   UNL     1      -3.541  -0.642  23.341  0.00  0.00    +0.216 C 
ATOM     24  C   UNL     1      -1.171  -1.561  23.253  0.00  0.00    +0.108 C 
ATOM     25  C   UNL     1      -2.906  -2.665  24.616  0.00  0.00    +0.108 C 
ATOM     27  C   UNL     1      -0.205  -1.565  24.436  0.00  0.00    +0.022 C 
ATOM     28  C   UNL     1      -1.978  -2.690  25.828  0.00  0.00    +0.022 C 
ATOM     29  C   UNL     1      -0.503  -2.724  25.397  0.00  0.00    -0.011 C 
ATOM     30  C   UNL     1       0.419  -2.674  26.613  0.00  0.00    +0.007 C 
ENDBRANCH  21  22
ENDBRANCH  11  21
TORSDOF 6
ENDMDL
MODEL 4
REMARK VINA RESULT:      13.8      3.137      7.097
REMARK  Name = 26763546
REMARK  9 active torsions:
REMARK  status: ('A' for Active; 'I' for Inactive)
REMARK    1  A    between atoms: O_3  and  C_13
REMARK    2  A    between atoms: O_4  and  C_18
REMARK    3  A    between atoms: C_8  and  C_16
REMARK    4  A    between atoms: C_10  and  C_18
REMARK    5  A    between atoms: C_10  and  C_19
REMARK    6  A    between atoms: C_11  and  C_21
REMARK    7  A    between atoms: C_21  and  C_22
REMARK    8  A    between atoms: C_23  and  C_26
REMARK    9  A    between atoms: C_29  and  C_30
REMARK                            x       y       z     vdW  Elec       q    Type
REMARK                         _______ _______ _______ _____ _____    ______ ____
ROOT
ATOM      1  S   UNL     1      -0.200   3.478  23.822  0.00  0.00    -0.072 S 
ATOM      6  N   UNL     1      -1.144   1.428  25.085  0.00  0.00    -0.243 NA
ATOM      8  C   UNL     1       1.863  -0.600  23.777  0.00  0.00    -0.020 C 
ATOM      9  C   UNL     1       2.815   0.676  23.759  0.00  0.00    +0.011 C 
ATOM     10  C   UNL     1       4.262   0.481  23.161  0.00  0.00    +0.021 C 
ATOM     11  C   UNL     1       0.663  -0.306  24.790  0.00  0.00    +0.053 C 
ATOM     12  C   UNL     1       2.655  -1.827  24.298  0.00  0.00    +0.010 C 
ATOM     13  C   UNL     1       4.891  -0.813  23.751  0.00  0.00    +0.123 C 
ATOM     14  C   UNL     1       2.075   1.932  23.213  0.00  0.00    +0.049 C 
ATOM     15  C   UNL     1       3.994  -2.036  23.606  0.00  0.00    +0.032 C 
ATOM     16  C   UNL     1       1.286  -0.937  22.379  0.00  0.00    +0.012 C 
ATOM     17  C   UNL     1       0.083   1.065  24.560  0.00  0.00    +0.056 A 
ATOM     19  C   UNL     1       5.158   1.673  23.604  0.00  0.00    +0.016 C 
ATOM     20  C   UNL     1       0.740   2.059  23.866  0.00  0.00    +0.014 A 
ATOM     23  C   UNL     1      -1.398   2.675  24.753  0.00  0.00    +0.109 A 
ENDROOT
BRANCH  23  26
ATOM      2  S   UNL     1      -5.000   4.382  25.045  0.00  0.00    -0.104 S 
ATOM     26  C   UNL     1      -2.650   3.352  25.161  0.00  0.00    +0.014 A 
ATOM     31  C   UNL     1      -2.935   3.834  26.472  0.00  0.00    +0.018 A 
ATOM     32  C   UNL     1      -3.688   3.585  24.287  0.00  0.00    +0.055 A 
ATOM     33  C   UNL     1      -4.180   4.417  26.548  0.00  0.00    +0.046 A 
ENDBRANCH  23  26
BRANCH  13   3
ATOM      3  O   UNL     1       6.147  -1.089  23.134  0.00  0.00    -0.391 OA
ATOM     34  H   UNL     1       6.844  -0.905  23.787  0.00  0.00    +0.210 HD
ENDBRANCH  13   3
BRANCH  10  18
ATOM     18  C   UNL     1       4.321   0.469  21.618  0.00  0.00    +0.165 C 
BRANCH  18   4
ATOM      4  O   UNL     1       2.996   0.469  21.135  0.00  0.00    -0.394 OA
ATOM     35  H   UNL     1       2.532  -0.272  21.560  0.00  0.00    +0.209 HD
ENDBRANCH  18   4
ENDBRANCH  10  18
BRANCH  11  21
ATOM     21  C   UNL     1      -0.430  -1.383  24.813  0.00  0.00    +0.106 C 
BRANCH  21  22
ATOM      5  O   UNL     1      -1.230  -0.772  22.669  0.00  0.00    -0.276 OA
ATOM      7  N   UNL     1      -2.824  -0.993  24.345  0.00  0.00    -0.301 N 
ATOM     22  C   UNL     1      -1.524  -1.023  23.840  0.00  0.00    +0.216 C 
ATOM     24  C   UNL     1      -3.204  -1.286  25.732  0.00  0.00    +0.108 C 
ATOM     25  C   UNL     1      -3.945  -0.691  23.454  0.00  0.00    +0.108 C 
ATOM     27  C   UNL     1      -4.021  -0.139  26.324  0.00  0.00    +0.022 C 
ATOM     28  C   UNL     1      -4.775   0.471  23.998  0.00  0.00    +0.022 C 
ATOM     29  C   UNL     1      -5.230   0.200  25.440  0.00  0.00    -0.011 C 
ATOM     30  C   UNL     1      -5.995   1.396  26.001  0.00  0.00    +0.007 C 
ENDBRANCH  21  22
ENDBRANCH  11  21
TORSDOF 6
ENDMDL
