MODEL 1
REMARK VINA RESULT:      -7.4      0.000      0.000
REMARK  Name = 38029820
REMARK  12 active torsions:
REMARK  status: ('A' for Active; 'I' for Inactive)
REMARK    1  A    between atoms: O_2  and  C_21
REMARK    2  A    between atoms: O_2  and  C_22
REMARK    3  A    between atoms: N_4  and  C_11
REMARK    4  A    between atoms: C_5  and  C_9
REMARK    5  A    between atoms: C_6  and  C_11
REMARK    6  A    between atoms: C_8  and  C_16
REMARK    7  A    between atoms: C_9  and  C_18
REMARK    8  A    between atoms: C_9  and  C_19
REMARK    9  A    between atoms: C_10  and  C_17
REMARK   10  A    between atoms: C_12  and  C_20
REMARK   11  A    between atoms: C_16  and  C_21
REMARK   12  A    between atoms: C_22  and  C_23
REMARK                            x       y       z     vdW  Elec       q    Type
REMARK                         _______ _______ _______ _____ _____    ______ ____
ROOT
ATOM      5  C   UNL     1      -0.665   1.128  24.453  0.00  0.00    +0.000 C 
ATOM      6  C   UNL     1       0.190  -0.122  24.124  0.00  0.00    +0.032 C 
ATOM      7  C   UNL     1      -1.684   0.803  25.555  0.00  0.00    +0.012 C 
ATOM      8  C   UNL     1      -2.630  -0.345  25.155  0.00  0.00    +0.025 C 
ATOM     12  C   UNL     1      -1.874  -1.518  24.568  0.00  0.00    -0.073 C 
ATOM     13  C   UNL     1      -0.609  -1.403  24.124  0.00  0.00    -0.022 C 
ATOM     20  C   UNL     1      -2.589  -2.841  24.542  0.00  0.00    +0.039 C 
ENDROOT
BRANCH   5   9
ATOM      9  C   UNL     1       0.203   2.314  24.882  0.00  0.00    -0.013 C 
ATOM     18  C   UNL     1      -0.229   3.581  24.149  0.00  0.00    +0.007 C 
ATOM     19  C   UNL     1       0.128   2.511  26.392  0.00  0.00    +0.007 C 
ENDBRANCH   5   9
BRANCH   6  11
ATOM     11  C   UNL     1       0.903   0.035  22.775  0.00  0.00    +0.112 C 
BRANCH  11   4
ATOM      1  O   UNL     1       3.202   1.814  22.877  0.00  0.00    -0.276 OA
ATOM      4  N   UNL     1       2.281  -0.327  22.884  0.00  0.00    -0.315 N 
ATOM     17  C   UNL     1       3.320   0.595  22.926  0.00  0.00    +0.216 C 
ATOM     24  H   UNL     1       2.511  -1.313  22.981  0.00  0.00    +0.149 HD
BRANCH  17  10
ATOM     10  C   UNL     1       4.681  -0.008  23.044  0.00  0.00    +0.075 C 
ATOM     14  C   UNL     1       5.444   0.156  24.327  0.00  0.00    +0.013 C 
ATOM     15  C   UNL     1       4.882  -1.184  23.954  0.00  0.00    +0.013 C 
ENDBRANCH  17  10
ENDBRANCH  11   4
ENDBRANCH   6  11
BRANCH   8  16
ATOM     16  C   UNL     1      -3.718   0.146  24.193  0.00  0.00    +0.128 C 
BRANCH  16  21
ATOM      3  O   UNL     1      -5.383   1.207  25.612  0.00  0.00    -0.251 OA
ATOM     21  C   UNL     1      -4.496   1.296  24.774  0.00  0.00    +0.308 C 
BRANCH  21   2
ATOM      2  O   UNL     1      -4.042   2.454  24.208  0.00  0.00    -0.465 OA
BRANCH   2  22
ATOM     22  C   UNL     1      -4.406   3.658  24.891  0.00  0.00    +0.229 C 
ATOM     23  C   UNL     1      -3.349   3.976  25.927  0.00  0.00    +0.048 C 
ENDBRANCH   2  22
ENDBRANCH  21   2
ENDBRANCH  16  21
ENDBRANCH   8  16
TORSDOF 8
ENDMDL
MODEL 2
REMARK VINA RESULT:      -5.5      1.857      7.104
REMARK  Name = 38029820
REMARK  12 active torsions:
REMARK  status: ('A' for Active; 'I' for Inactive)
REMARK    1  A    between atoms: O_2  and  C_21
REMARK    2  A    between atoms: O_2  and  C_22
REMARK    3  A    between atoms: N_4  and  C_11
REMARK    4  A    between atoms: C_5  and  C_9
REMARK    5  A    between atoms: C_6  and  C_11
REMARK    6  A    between atoms: C_8  and  C_16
REMARK    7  A    between atoms: C_9  and  C_18
REMARK    8  A    between atoms: C_9  and  C_19
REMARK    9  A    between atoms: C_10  and  C_17
REMARK   10  A    between atoms: C_12  and  C_20
REMARK   11  A    between atoms: C_16  and  C_21
REMARK   12  A    between atoms: C_22  and  C_23
REMARK                            x       y       z     vdW  Elec       q    Type
REMARK                         _______ _______ _______ _____ _____    ______ ____
ROOT
ATOM      5  C   UNL     1      -2.260  -1.261  24.317  0.00  0.00    +0.000 C 
ATOM      6  C   UNL     1      -2.855  -0.353  25.423  0.00  0.00    +0.032 C 
ATOM      7  C   UNL     1      -0.742  -1.408  24.505  0.00  0.00    +0.012 C 
ATOM      8  C   UNL     1      -0.016  -0.051  24.466  0.00  0.00    +0.025 C 
ATOM     12  C   UNL     1      -0.706   0.982  25.332  0.00  0.00    -0.073 C 
ATOM     13  C   UNL     1      -1.971   0.824  25.761  0.00  0.00    -0.022 C 
ATOM     20  C   UNL     1       0.105   2.183  25.731  0.00  0.00    +0.039 C 
ENDROOT
BRANCH   5   9
ATOM      9  C   UNL     1      -2.917  -2.644  24.301  0.00  0.00    -0.013 C 
ATOM     18  C   UNL     1      -3.147  -3.139  25.726  0.00  0.00    +0.007 C 
ATOM     19  C   UNL     1      -4.228  -2.603  23.525  0.00  0.00    +0.007 C 
ENDBRANCH   5   9
BRANCH   6  11
ATOM     11  C   UNL     1      -4.250   0.150  25.033  0.00  0.00    +0.112 C 
BRANCH  11   4
ATOM      1  O   UNL     1      -6.075   2.021  26.309  0.00  0.00    -0.276 OA
ATOM      4  N   UNL     1      -4.260   1.575  24.916  0.00  0.00    -0.315 N 
ATOM     17  C   UNL     1      -5.175   2.395  25.566  0.00  0.00    +0.216 C 
ATOM     24  H   UNL     1      -3.530   2.016  24.362  0.00  0.00    +0.149 HD
BRANCH  17  10
ATOM     10  C   UNL     1      -4.998   3.854  25.301  0.00  0.00    +0.075 C 
ATOM     14  C   UNL     1      -3.772   4.548  25.820  0.00  0.00    +0.013 C 
ATOM     15  C   UNL     1      -3.928   4.299  24.349  0.00  0.00    +0.013 C 
ENDBRANCH  17  10
ENDBRANCH  11   4
ENDBRANCH   6  11
BRANCH   8  16
ATOM     16  C   UNL     1       0.138   0.452  23.026  0.00  0.00    +0.128 C 
BRANCH  16  21
ATOM      3  O   UNL     1       1.684  -0.579  21.458  0.00  0.00    -0.251 OA
ATOM     21  C   UNL     1       1.486   0.101  22.456  0.00  0.00    +0.308 C 
BRANCH  21   2
ATOM      2  O   UNL     1       2.449   0.669  23.242  0.00  0.00    -0.465 OA
BRANCH   2  22
ATOM     22  C   UNL     1       3.703   0.917  22.598  0.00  0.00    +0.229 C 
ATOM     23  C   UNL     1       4.801   0.220  23.372  0.00  0.00    +0.048 C 
ENDBRANCH   2  22
ENDBRANCH  21   2
ENDBRANCH  16  21
ENDBRANCH   8  16
TORSDOF 8
ENDMDL
MODEL 3
REMARK VINA RESULT:      -5.1      1.647      3.514
REMARK  Name = 38029820
REMARK  12 active torsions:
REMARK  status: ('A' for Active; 'I' for Inactive)
REMARK    1  A    between atoms: O_2  and  C_21
REMARK    2  A    between atoms: O_2  and  C_22
REMARK    3  A    between atoms: N_4  and  C_11
REMARK    4  A    between atoms: C_5  and  C_9
REMARK    5  A    between atoms: C_6  and  C_11
REMARK    6  A    between atoms: C_8  and  C_16
REMARK    7  A    between atoms: C_9  and  C_18
REMARK    8  A    between atoms: C_9  and  C_19
REMARK    9  A    between atoms: C_10  and  C_17
REMARK   10  A    between atoms: C_12  and  C_20
REMARK   11  A    between atoms: C_16  and  C_21
REMARK   12  A    between atoms: C_22  and  C_23
REMARK                            x       y       z     vdW  Elec       q    Type
REMARK                         _______ _______ _______ _____ _____    ______ ____
ROOT
ATOM      5  C   UNL     1      -3.074  -0.664  24.939  0.00  0.00    +0.000 C 
ATOM      6  C   UNL     1      -1.955  -0.050  24.060  0.00  0.00    +0.032 C 
ATOM      7  C   UNL     1      -4.455  -0.349  24.344  0.00  0.00    +0.012 C 
ATOM      8  C   UNL     1      -4.706   1.165  24.223  0.00  0.00    +0.025 C 
ATOM     12  C   UNL     1      -3.524   1.884  23.604  0.00  0.00    -0.073 C 
ATOM     13  C   UNL     1      -2.305   1.320  23.529  0.00  0.00    -0.022 C 
ATOM     20  C   UNL     1      -3.785   3.250  23.034  0.00  0.00    +0.039 C 
ENDROOT
BRANCH   5   9
ATOM      9  C   UNL     1      -2.909  -2.178  25.093  0.00  0.00    -0.013 C 
ATOM     18  C   UNL     1      -3.978  -2.914  24.291  0.00  0.00    +0.007 C 
ATOM     19  C   UNL     1      -1.513  -2.610  24.657  0.00  0.00    +0.007 C 
ENDBRANCH   5   9
BRANCH   6  11
ATOM     11  C   UNL     1      -0.629   0.024  24.826  0.00  0.00    +0.112 C 
BRANCH  11   4
ATOM      1  O   UNL     1       1.320   1.939  23.827  0.00  0.00    -0.276 OA
ATOM      4  N   UNL     1       0.475  -0.230  23.954  0.00  0.00    -0.315 N 
ATOM     17  C   UNL     1       1.361   0.752  23.526  0.00  0.00    +0.216 C 
ATOM     24  H   UNL     1       0.648  -1.190  23.666  0.00  0.00    +0.149 HD
BRANCH  17  10
ATOM     10  C   UNL     1       2.441   0.261  22.620  0.00  0.00    +0.075 C 
ATOM     14  C   UNL     1       3.810   0.871  22.716  0.00  0.00    +0.013 C 
ATOM     15  C   UNL     1       3.577  -0.530  23.199  0.00  0.00    +0.013 C 
ENDBRANCH  17  10
ENDBRANCH  11   4
ENDBRANCH   6  11
BRANCH   8  16
ATOM     16  C   UNL     1      -5.071   1.776  25.580  0.00  0.00    +0.128 C 
BRANCH  16  21
ATOM      3  O   UNL     1      -5.342   4.179  25.332  0.00  0.00    -0.251 OA
ATOM     21  C   UNL     1      -4.660   3.221  25.668  0.00  0.00    +0.308 C 
BRANCH  21   2
ATOM      2  O   UNL     1      -3.397   3.280  26.186  0.00  0.00    -0.465 OA
BRANCH   2  22
ATOM     22  C   UNL     1      -2.750   4.553  26.091  0.00  0.00    +0.229 C 
ATOM     23  C   UNL     1      -1.434   4.384  25.363  0.00  0.00    +0.048 C 
ENDBRANCH   2  22
ENDBRANCH  21   2
ENDBRANCH  16  21
ENDBRANCH   8  16
TORSDOF 8
ENDMDL
MODEL 4
REMARK VINA RESULT:      -4.6      2.717      4.449
REMARK  Name = 38029820
REMARK  12 active torsions:
REMARK  status: ('A' for Active; 'I' for Inactive)
REMARK    1  A    between atoms: O_2  and  C_21
REMARK    2  A    between atoms: O_2  and  C_22
REMARK    3  A    between atoms: N_4  and  C_11
REMARK    4  A    between atoms: C_5  and  C_9
REMARK    5  A    between atoms: C_6  and  C_11
REMARK    6  A    between atoms: C_8  and  C_16
REMARK    7  A    between atoms: C_9  and  C_18
REMARK    8  A    between atoms: C_9  and  C_19
REMARK    9  A    between atoms: C_10  and  C_17
REMARK   10  A    between atoms: C_12  and  C_20
REMARK   11  A    between atoms: C_16  and  C_21
REMARK   12  A    between atoms: C_22  and  C_23
REMARK                            x       y       z     vdW  Elec       q    Type
REMARK                         _______ _______ _______ _____ _____    ______ ____
ROOT
ATOM      5  C   UNL     1      -2.430  -0.836  24.806  0.00  0.00    +0.000 C 
ATOM      6  C   UNL     1      -1.440  -0.135  23.842  0.00  0.00    +0.032 C 
ATOM      7  C   UNL     1      -3.862  -0.751  24.256  0.00  0.00    +0.012 C 
ATOM      8  C   UNL     1      -4.325   0.704  24.054  0.00  0.00    +0.025 C 
ATOM     12  C   UNL     1      -3.277   1.533  23.341  0.00  0.00    -0.073 C 
ATOM     13  C   UNL     1      -1.996   1.136  23.245  0.00  0.00    -0.022 C 
ATOM     20  C   UNL     1      -3.745   2.811  22.701  0.00  0.00    +0.039 C 
ENDROOT
BRANCH   5   9
ATOM      9  C   UNL     1      -2.052  -2.300  25.044  0.00  0.00    -0.013 C 
ATOM     18  C   UNL     1      -3.304  -3.169  25.111  0.00  0.00    +0.007 C 
ATOM     19  C   UNL     1      -1.110  -2.792  23.951  0.00  0.00    +0.007 C 
ENDBRANCH   5   9
BRANCH   6  11
ATOM     11  C   UNL     1      -0.110   0.169  24.541  0.00  0.00    +0.112 C 
BRANCH  11   4
ATOM      1  O   UNL     1      -1.121   2.211  26.349  0.00  0.00    -0.276 OA
ATOM      4  N   UNL     1       0.169   1.570  24.516  0.00  0.00    -0.315 N 
ATOM     17  C   UNL     1      -0.361   2.478  25.425  0.00  0.00    +0.216 C 
ATOM     24  H   UNL     1       0.827   1.916  23.822  0.00  0.00    +0.149 HD
BRANCH  17  10
ATOM     10  C   UNL     1       0.067   3.892  25.212  0.00  0.00    +0.075 C 
ATOM     14  C   UNL     1      -0.202   4.546  23.887  0.00  0.00    +0.013 C 
ATOM     15  C   UNL     1      -0.978   4.964  25.102  0.00  0.00    +0.013 C 
ENDBRANCH  17  10
ENDBRANCH  11   4
ENDBRANCH   6  11
BRANCH   8  16
ATOM     16  C   UNL     1      -4.721   1.347  25.388  0.00  0.00    +0.128 C 
BRANCH  16  21
ATOM      3  O   UNL     1      -6.979   1.822  24.619  0.00  0.00    -0.251 OA
ATOM     21  C   UNL     1      -5.990   2.147  25.262  0.00  0.00    +0.308 C 
BRANCH  21   2
ATOM      2  O   UNL     1      -5.850   3.296  25.988  0.00  0.00    -0.465 OA
BRANCH   2  22
ATOM     22  C   UNL     1      -4.821   4.186  25.543  0.00  0.00    +0.229 C 
ATOM     23  C   UNL     1      -3.736   4.252  26.595  0.00  0.00    +0.048 C 
ENDBRANCH   2  22
ENDBRANCH  21   2
ENDBRANCH  16  21
ENDBRANCH   8  16
TORSDOF 8
ENDMDL
MODEL 5
REMARK VINA RESULT:      -4.5      2.903      6.174
REMARK  Name = 38029820
REMARK  12 active torsions:
REMARK  status: ('A' for Active; 'I' for Inactive)
REMARK    1  A    between atoms: O_2  and  C_21
REMARK    2  A    between atoms: O_2  and  C_22
REMARK    3  A    between atoms: N_4  and  C_11
REMARK    4  A    between atoms: C_5  and  C_9
REMARK    5  A    between atoms: C_6  and  C_11
REMARK    6  A    between atoms: C_8  and  C_16
REMARK    7  A    between atoms: C_9  and  C_18
REMARK    8  A    between atoms: C_9  and  C_19
REMARK    9  A    between atoms: C_10  and  C_17
REMARK   10  A    between atoms: C_12  and  C_20
REMARK   11  A    between atoms: C_16  and  C_21
REMARK   12  A    between atoms: C_22  and  C_23
REMARK                            x       y       z     vdW  Elec       q    Type
REMARK                         _______ _______ _______ _____ _____    ______ ____
ROOT
ATOM      5  C   UNL     1      -2.060   2.729  24.953  0.00  0.00    +0.000 C 
ATOM      6  C   UNL     1      -1.733   2.802  23.441  0.00  0.00    +0.032 C 
ATOM      7  C   UNL     1      -0.850   2.200  25.737  0.00  0.00    +0.012 C 
ATOM      8  C   UNL     1      -0.415   0.800  25.263  0.00  0.00    +0.025 C 
ATOM     12  C   UNL     1      -0.330   0.719  23.753  0.00  0.00    -0.073 C 
ATOM     13  C   UNL     1      -0.915   1.630  22.954  0.00  0.00    -0.022 C 
ATOM     20  C   UNL     1       0.479  -0.411  23.179  0.00  0.00    +0.039 C 
ENDROOT
BRANCH   5   9
ATOM      9  C   UNL     1      -2.483   4.091  25.511  0.00  0.00    -0.013 C 
ATOM     18  C   UNL     1      -2.738   3.996  27.012  0.00  0.00    +0.007 C 
ATOM     19  C   UNL     1      -1.421   5.144  25.208  0.00  0.00    +0.007 C 
ENDBRANCH   5   9
BRANCH   6  11
ATOM     11  C   UNL     1      -3.013   2.914  22.603  0.00  0.00    +0.112 C 
BRANCH  11   4
ATOM      1  O   UNL     1      -4.209   0.616  23.926  0.00  0.00    -0.276 OA
ATOM      4  N   UNL     1      -4.171   2.895  23.441  0.00  0.00    -0.315 N 
ATOM     17  C   UNL     1      -4.675   1.744  24.036  0.00  0.00    +0.216 C 
ATOM     24  H   UNL     1      -4.625   3.781  23.651  0.00  0.00    +0.149 HD
BRANCH  17  10
ATOM     10  C   UNL     1      -5.892   1.960  24.873  0.00  0.00    +0.075 C 
ATOM     14  C   UNL     1      -5.767   1.919  26.369  0.00  0.00    +0.013 C 
ATOM     15  C   UNL     1      -6.015   3.224  25.671  0.00  0.00    +0.013 C 
ENDBRANCH  17  10
ENDBRANCH  11   4
ENDBRANCH   6  11
BRANCH   8  16
ATOM     16  C   UNL     1      -1.343  -0.285  25.821  0.00  0.00    +0.128 C 
BRANCH  16  21
ATOM      3  O   UNL     1       0.164  -2.193  25.814  0.00  0.00    -0.251 OA
ATOM     21  C   UNL     1      -0.875  -1.664  25.442  0.00  0.00    +0.308 C 
BRANCH  21   2
ATOM      2  O   UNL     1      -1.806  -2.224  24.614  0.00  0.00    -0.465 OA
BRANCH   2  22
ATOM     22  C   UNL     1      -3.122  -2.350  25.162  0.00  0.00    +0.229 C 
ATOM     23  C   UNL     1      -4.104  -2.592  24.036  0.00  0.00    +0.048 C 
ENDBRANCH   2  22
ENDBRANCH  21   2
ENDBRANCH  16  21
ENDBRANCH   8  16
TORSDOF 8
ENDMDL
MODEL 6
REMARK VINA RESULT:      -4.1      3.274      5.357
REMARK  Name = 38029820
REMARK  12 active torsions:
REMARK  status: ('A' for Active; 'I' for Inactive)
REMARK    1  A    between atoms: O_2  and  C_21
REMARK    2  A    between atoms: O_2  and  C_22
REMARK    3  A    between atoms: N_4  and  C_11
REMARK    4  A    between atoms: C_5  and  C_9
REMARK    5  A    between atoms: C_6  and  C_11
REMARK    6  A    between atoms: C_8  and  C_16
REMARK    7  A    between atoms: C_9  and  C_18
REMARK    8  A    between atoms: C_9  and  C_19
REMARK    9  A    between atoms: C_10  and  C_17
REMARK   10  A    between atoms: C_12  and  C_20
REMARK   11  A    between atoms: C_16  and  C_21
REMARK   12  A    between atoms: C_22  and  C_23
REMARK                            x       y       z     vdW  Elec       q    Type
REMARK                         _______ _______ _______ _____ _____    ______ ____
ROOT
ATOM      5  C   UNL     1      -4.180   2.512  25.193  0.00  0.00    +0.000 C 
ATOM      6  C   UNL     1      -4.543   1.202  24.448  0.00  0.00    +0.032 C 
ATOM      7  C   UNL     1      -3.850   3.624  24.186  0.00  0.00    +0.012 C 
ATOM      8  C   UNL     1      -2.677   3.247  23.263  0.00  0.00    +0.025 C 
ATOM     12  C   UNL     1      -2.832   1.850  22.698  0.00  0.00    -0.073 C 
ATOM     13  C   UNL     1      -3.681   0.954  23.234  0.00  0.00    -0.022 C 
ATOM     20  C   UNL     1      -2.022   1.519  21.476  0.00  0.00    +0.039 C 
ENDROOT
BRANCH   5   9
ATOM      9  C   UNL     1      -5.309   2.970  26.120  0.00  0.00    -0.013 C 
ATOM     18  C   UNL     1      -5.813   4.348  25.704  0.00  0.00    +0.007 C 
ATOM     19  C   UNL     1      -6.446   1.954  26.118  0.00  0.00    +0.007 C 
ENDBRANCH   5   9
BRANCH   6  11
ATOM     11  C   UNL     1      -4.462  -0.008  25.387  0.00  0.00    +0.112 C 
BRANCH  11   4
ATOM      1  O   UNL     1      -3.732  -2.504  24.084  0.00  0.00    -0.276 OA
ATOM      4  N   UNL     1      -3.169  -0.613  25.325  0.00  0.00    -0.315 N 
ATOM     17  C   UNL     1      -2.910  -1.815  24.676  0.00  0.00    +0.216 C 
ATOM     24  H   UNL     1      -2.386  -0.114  25.740  0.00  0.00    +0.149 HD
BRANCH  17  10
ATOM     10  C   UNL     1      -1.485  -2.258  24.736  0.00  0.00    +0.075 C 
ATOM     14  C   UNL     1      -0.427  -1.407  24.096  0.00  0.00    +0.013 C 
ATOM     15  C   UNL     1      -0.518  -1.494  25.591  0.00  0.00    +0.013 C 
ENDBRANCH  17  10
ENDBRANCH  11   4
ENDBRANCH   6  11
BRANCH   8  16
ATOM     16  C   UNL     1      -1.334   3.401  23.985  0.00  0.00    +0.128 C 
BRANCH  16  21
ATOM      3  O   UNL     1      -1.553   5.515  25.165  0.00  0.00    -0.251 OA
ATOM     21  C   UNL     1      -1.450   4.296  25.189  0.00  0.00    +0.308 C 
BRANCH  21   2
ATOM      2  O   UNL     1      -1.422   3.517  26.311  0.00  0.00    -0.465 OA
BRANCH   2  22
ATOM     22  C   UNL     1      -0.645   2.319  26.211  0.00  0.00    +0.229 C 
ATOM     23  C   UNL     1       0.619   2.481  27.028  0.00  0.00    +0.048 C 
ENDBRANCH   2  22
ENDBRANCH  21   2
ENDBRANCH  16  21
ENDBRANCH   8  16
TORSDOF 8
ENDMDL
MODEL 7
REMARK VINA RESULT:      -4.0      1.827      4.021
REMARK  Name = 38029820
REMARK  12 active torsions:
REMARK  status: ('A' for Active; 'I' for Inactive)
REMARK    1  A    between atoms: O_2  and  C_21
REMARK    2  A    between atoms: O_2  and  C_22
REMARK    3  A    between atoms: N_4  and  C_11
REMARK    4  A    between atoms: C_5  and  C_9
REMARK    5  A    between atoms: C_6  and  C_11
REMARK    6  A    between atoms: C_8  and  C_16
REMARK    7  A    between atoms: C_9  and  C_18
REMARK    8  A    between atoms: C_9  and  C_19
REMARK    9  A    between atoms: C_10  and  C_17
REMARK   10  A    between atoms: C_12  and  C_20
REMARK   11  A    between atoms: C_16  and  C_21
REMARK   12  A    between atoms: C_22  and  C_23
REMARK                            x       y       z     vdW  Elec       q    Type
REMARK                         _______ _______ _______ _____ _____    ______ ____
ROOT
ATOM      5  C   UNL     1      -2.234   1.830  24.261  0.00  0.00    +0.000 C 
ATOM      6  C   UNL     1      -0.834   2.474  24.099  0.00  0.00    +0.032 C 
ATOM      7  C   UNL     1      -3.331   2.830  23.864  0.00  0.00    +0.012 C 
ATOM      8  C   UNL     1      -3.283   4.115  24.713  0.00  0.00    +0.025 C 
ATOM     12  C   UNL     1      -1.876   4.664  24.823  0.00  0.00    -0.073 C 
ATOM     13  C   UNL     1      -0.794   3.920  24.532  0.00  0.00    -0.022 C 
ATOM     20  C   UNL     1      -1.741   6.104  25.233  0.00  0.00    +0.039 C 
ENDROOT
BRANCH   5   9
ATOM      9  C   UNL     1      -2.372   0.552  23.428  0.00  0.00    -0.013 C 
ATOM     18  C   UNL     1      -3.541  -0.288  23.935  0.00  0.00    +0.007 C 
ATOM     19  C   UNL     1      -2.551   0.894  21.953  0.00  0.00    +0.007 C 
ENDBRANCH   5   9
BRANCH   6  11
ATOM     11  C   UNL     1       0.230   1.681  24.868  0.00  0.00    +0.112 C 
BRANCH  11   4
ATOM      1  O   UNL     1       0.641  -0.658  23.189  0.00  0.00    -0.276 OA
ATOM      4  N   UNL     1       1.353   1.395  24.031  0.00  0.00    -0.315 N 
ATOM     17  C   UNL     1       1.466   0.246  23.258  0.00  0.00    +0.216 C 
ATOM     24  H   UNL     1       2.090   2.093  23.963  0.00  0.00    +0.149 HD
BRANCH  17  10
ATOM     10  C   UNL     1       2.724   0.157  22.459  0.00  0.00    +0.075 C 
ATOM     14  C   UNL     1       3.837   1.124  22.737  0.00  0.00    +0.013 C 
ATOM     15  C   UNL     1       3.981  -0.318  23.127  0.00  0.00    +0.013 C 
ENDBRANCH  17  10
ENDBRANCH  11   4
ENDBRANCH   6  11
BRANCH   8  16
ATOM     16  C   UNL     1      -3.894   3.884  26.100  0.00  0.00    +0.128 C 
BRANCH  16  21
ATOM      3  O   UNL     1      -6.102   4.738  25.550  0.00  0.00    -0.251 OA
ATOM     21  C   UNL     1      -5.398   3.872  26.049  0.00  0.00    +0.308 C 
BRANCH  21   2
ATOM      2  O   UNL     1      -5.841   2.730  26.655  0.00  0.00    -0.465 OA
BRANCH   2  22
ATOM     22  C   UNL     1      -5.749   1.539  25.868  0.00  0.00    +0.229 C 
ATOM     23  C   UNL     1      -6.635   1.683  24.649  0.00  0.00    +0.048 C 
ENDBRANCH   2  22
ENDBRANCH  21   2
ENDBRANCH  16  21
ENDBRANCH   8  16
TORSDOF 8
ENDMDL
MODEL 8
REMARK VINA RESULT:      -3.9      1.620      3.593
REMARK  Name = 38029820
REMARK  12 active torsions:
REMARK  status: ('A' for Active; 'I' for Inactive)
REMARK    1  A    between atoms: O_2  and  C_21
REMARK    2  A    between atoms: O_2  and  C_22
REMARK    3  A    between atoms: N_4  and  C_11
REMARK    4  A    between atoms: C_5  and  C_9
REMARK    5  A    between atoms: C_6  and  C_11
REMARK    6  A    between atoms: C_8  and  C_16
REMARK    7  A    between atoms: C_9  and  C_18
REMARK    8  A    between atoms: C_9  and  C_19
REMARK    9  A    between atoms: C_10  and  C_17
REMARK   10  A    between atoms: C_12  and  C_20
REMARK   11  A    between atoms: C_16  and  C_21
REMARK   12  A    between atoms: C_22  and  C_23
REMARK                            x       y       z     vdW  Elec       q    Type
REMARK                         _______ _______ _______ _____ _____    ______ ____
ROOT
ATOM      5  C   UNL     1      -2.203  -0.020  24.225  0.00  0.00    +0.000 C 
ATOM      6  C   UNL     1      -0.832   0.211  23.541  0.00  0.00    +0.032 C 
ATOM      7  C   UNL     1      -3.168   1.126  23.888  0.00  0.00    +0.012 C 
ATOM      8  C   UNL     1      -2.624   2.496  24.335  0.00  0.00    +0.025 C 
ATOM     12  C   UNL     1      -1.178   2.688  23.926  0.00  0.00    -0.073 C 
ATOM     13  C   UNL     1      -0.396   1.656  23.562  0.00  0.00    -0.022 C 
ATOM     20  C   UNL     1      -0.663   4.100  23.902  0.00  0.00    +0.039 C 
ENDROOT
BRANCH   5   9
ATOM      9  C   UNL     1      -2.824  -1.358  23.816  0.00  0.00    -0.013 C 
ATOM     18  C   UNL     1      -2.305  -2.482  24.708  0.00  0.00    +0.007 C 
ATOM     19  C   UNL     1      -4.346  -1.280  23.876  0.00  0.00    +0.007 C 
ENDBRANCH   5   9
BRANCH   6  11
ATOM     11  C   UNL     1       0.258  -0.660  24.180  0.00  0.00    +0.112 C 
BRANCH  11   4
ATOM      1  O   UNL     1       1.200  -0.600  21.428  0.00  0.00    -0.276 OA
ATOM      4  N   UNL     1       1.552  -0.278  23.710  0.00  0.00    -0.315 N 
ATOM     17  C   UNL     1       1.918  -0.279  22.369  0.00  0.00    +0.216 C 
ATOM     24  H   UNL     1       2.230   0.056  24.390  0.00  0.00    +0.149 HD
BRANCH  17  10
ATOM     10  C   UNL     1       3.320   0.159  22.107  0.00  0.00    +0.075 C 
ATOM     14  C   UNL     1       3.840   1.393  22.787  0.00  0.00    +0.013 C 
ATOM     15  C   UNL     1       4.339   0.040  23.202  0.00  0.00    +0.013 C 
ENDBRANCH  17  10
ENDBRANCH  11   4
ENDBRANCH   6  11
BRANCH   8  16
ATOM     16  C   UNL     1      -2.800   2.695  25.844  0.00  0.00    +0.128 C 
BRANCH  16  21
ATOM      3  O   UNL     1      -3.327   4.859  26.819  0.00  0.00    -0.251 OA
ATOM     21  C   UNL     1      -3.661   3.891  26.150  0.00  0.00    +0.308 C 
BRANCH  21   2
ATOM      2  O   UNL     1      -4.878   3.710  25.555  0.00  0.00    -0.465 OA
BRANCH   2  22
ATOM     22  C   UNL     1      -5.686   2.667  26.108  0.00  0.00    +0.229 C 
ATOM     23  C   UNL     1      -6.330   1.891  24.979  0.00  0.00    +0.048 C 
ENDBRANCH   2  22
ENDBRANCH  21   2
ENDBRANCH  16  21
ENDBRANCH   8  16
TORSDOF 8
ENDMDL
MODEL 9
REMARK VINA RESULT:      -3.8      3.035      6.279
REMARK  Name = 38029820
REMARK  12 active torsions:
REMARK  status: ('A' for Active; 'I' for Inactive)
REMARK    1  A    between atoms: O_2  and  C_21
REMARK    2  A    between atoms: O_2  and  C_22
REMARK    3  A    between atoms: N_4  and  C_11
REMARK    4  A    between atoms: C_5  and  C_9
REMARK    5  A    between atoms: C_6  and  C_11
REMARK    6  A    between atoms: C_8  and  C_16
REMARK    7  A    between atoms: C_9  and  C_18
REMARK    8  A    between atoms: C_9  and  C_19
REMARK    9  A    between atoms: C_10  and  C_17
REMARK   10  A    between atoms: C_12  and  C_20
REMARK   11  A    between atoms: C_16  and  C_21
REMARK   12  A    between atoms: C_22  and  C_23
REMARK                            x       y       z     vdW  Elec       q    Type
REMARK                         _______ _______ _______ _____ _____    ______ ____
ROOT
ATOM      5  C   UNL     1      -2.781   0.968  23.591  0.00  0.00    +0.000 C 
ATOM      6  C   UNL     1      -3.483  -0.409  23.708  0.00  0.00    +0.032 C 
ATOM      7  C   UNL     1      -1.283   0.782  23.309  0.00  0.00    +0.012 C 
ATOM      8  C   UNL     1      -0.579  -0.032  24.410  0.00  0.00    +0.025 C 
ATOM     12  C   UNL     1      -1.357  -1.280  24.772  0.00  0.00    -0.073 C 
ATOM     13  C   UNL     1      -2.651  -1.436  24.439  0.00  0.00    -0.022 C 
ATOM     20  C   UNL     1      -0.603  -2.365  25.489  0.00  0.00    +0.039 C 
ENDROOT
BRANCH   5   9
ATOM      9  C   UNL     1      -3.411   1.836  22.498  0.00  0.00    -0.013 C 
ATOM     18  C   UNL     1      -3.696   3.237  23.029  0.00  0.00    +0.007 C 
ATOM     19  C   UNL     1      -2.502   1.895  21.275  0.00  0.00    +0.007 C 
ENDBRANCH   5   9
BRANCH   6  11
ATOM     11  C   UNL     1      -4.848  -0.277  24.393  0.00  0.00    +0.112 C 
BRANCH  11   4
ATOM      1  O   UNL     1      -6.924   1.757  24.515  0.00  0.00    -0.276 OA
ATOM      4  N   UNL     1      -4.886   0.881  25.230  0.00  0.00    -0.315 N 
ATOM     17  C   UNL     1      -5.924   1.805  25.222  0.00  0.00    +0.216 C 
ATOM     24  H   UNL     1      -4.133   1.012  25.901  0.00  0.00    +0.149 HD
BRANCH  17  10
ATOM     10  C   UNL     1      -5.756   2.937  26.182  0.00  0.00    +0.075 C 
ATOM     14  C   UNL     1      -4.527   3.794  26.093  0.00  0.00    +0.013 C 
ATOM     15  C   UNL     1      -5.858   4.345  25.675  0.00  0.00    +0.013 C 
ENDBRANCH  17  10
ENDBRANCH  11   4
ENDBRANCH   6  11
BRANCH   8  16
ATOM     16  C   UNL     1      -0.313   0.829  25.649  0.00  0.00    +0.128 C 
BRANCH  16  21
ATOM      3  O   UNL     1       1.086   2.353  24.371  0.00  0.00    -0.251 OA
ATOM     21  C   UNL     1       0.294   2.157  25.283  0.00  0.00    +0.308 C 
BRANCH  21   2
ATOM      2  O   UNL     1      -0.190   3.104  26.141  0.00  0.00    -0.465 OA
BRANCH   2  22
ATOM     22  C   UNL     1      -1.410   3.734  25.739  0.00  0.00    +0.229 C 
ATOM     23  C   UNL     1      -1.084   5.007  24.988  0.00  0.00    +0.048 C 
ENDBRANCH   2  22
ENDBRANCH  21   2
ENDBRANCH  16  21
ENDBRANCH   8  16
TORSDOF 8
ENDMDL
MODEL 10
REMARK VINA RESULT:      -3.7      2.665      4.879
REMARK  Name = 38029820
REMARK  12 active torsions:
REMARK  status: ('A' for Active; 'I' for Inactive)
REMARK    1  A    between atoms: O_2  and  C_21
REMARK    2  A    between atoms: O_2  and  C_22
REMARK    3  A    between atoms: N_4  and  C_11
REMARK    4  A    between atoms: C_5  and  C_9
REMARK    5  A    between atoms: C_6  and  C_11
REMARK    6  A    between atoms: C_8  and  C_16
REMARK    7  A    between atoms: C_9  and  C_18
REMARK    8  A    between atoms: C_9  and  C_19
REMARK    9  A    between atoms: C_10  and  C_17
REMARK   10  A    between atoms: C_12  and  C_20
REMARK   11  A    between atoms: C_16  and  C_21
REMARK   12  A    between atoms: C_22  and  C_23
REMARK                            x       y       z     vdW  Elec       q    Type
REMARK                         _______ _______ _______ _____ _____    ______ ____
ROOT
ATOM      5  C   UNL     1      -2.249   2.081  23.908  0.00  0.00    +0.000 C 
ATOM      6  C   UNL     1      -0.859   2.761  23.820  0.00  0.00    +0.032 C 
ATOM      7  C   UNL     1      -3.364   3.112  23.674  0.00  0.00    +0.012 C 
ATOM      8  C   UNL     1      -3.318   4.263  24.696  0.00  0.00    +0.025 C 
ATOM     12  C   UNL     1      -1.916   4.811  24.863  0.00  0.00    -0.073 C 
ATOM     13  C   UNL     1      -0.829   4.131  24.454  0.00  0.00    -0.022 C 
ATOM     20  C   UNL     1      -1.791   6.180  25.473  0.00  0.00    +0.039 C 
ENDROOT
BRANCH   5   9
ATOM      9  C   UNL     1      -2.385   0.933  22.904  0.00  0.00    -0.013 C 
ATOM     18  C   UNL     1      -3.615   0.089  23.225  0.00  0.00    +0.007 C 
ATOM     19  C   UNL     1      -2.458   1.475  21.480  0.00  0.00    +0.007 C 
ENDBRANCH   5   9
BRANCH   6  11
ATOM     11  C   UNL     1       0.227   1.882  24.452  0.00  0.00    +0.112 C 
BRANCH  11   4
ATOM      1  O   UNL     1       0.417  -0.892  23.599  0.00  0.00    -0.276 OA
ATOM      4  N   UNL     1      -0.350   0.736  25.080  0.00  0.00    -0.315 N 
ATOM     17  C   UNL     1      -0.207  -0.561  24.601  0.00  0.00    +0.216 C 
ATOM     24  H   UNL     1      -0.857   0.871  25.952  0.00  0.00    +0.149 HD
BRANCH  17  10
ATOM     10  C   UNL     1      -0.893  -1.605  25.418  0.00  0.00    +0.075 C 
ATOM     14  C   UNL     1      -2.350  -1.441  25.740  0.00  0.00    +0.013 C 
ATOM     15  C   UNL     1      -1.911  -2.493  24.764  0.00  0.00    +0.013 C 
ENDBRANCH  17  10
ENDBRANCH  11   4
ENDBRANCH   6  11
BRANCH   8  16
ATOM     16  C   UNL     1      -3.902   3.828  26.044  0.00  0.00    +0.128 C 
BRANCH  16  21
ATOM      3  O   UNL     1      -6.106   4.748  25.585  0.00  0.00    -0.251 OA
ATOM     21  C   UNL     1      -5.407   3.847  26.029  0.00  0.00    +0.308 C 
BRANCH  21   2
ATOM      2  O   UNL     1      -5.859   2.688  26.594  0.00  0.00    -0.465 OA
BRANCH   2  22
ATOM     22  C   UNL     1      -5.688   1.508  25.803  0.00  0.00    +0.229 C 
ATOM     23  C   UNL     1      -6.599   1.587  24.596  0.00  0.00    +0.048 C 
ENDBRANCH   2  22
ENDBRANCH  21   2
ENDBRANCH  16  21
ENDBRANCH   8  16
TORSDOF 8
ENDMDL
