MODEL 1
REMARK VINA RESULT:      -2.3      0.000      0.000
REMARK  Name = 40780575
REMARK  8 active torsions:
REMARK  status: ('A' for Active; 'I' for Inactive)
REMARK    1  A    between atoms: N_3  and  C_13
REMARK    2  A    between atoms: N_4  and  C_14
REMARK    3  A    between atoms: N_5  and  C_26
REMARK    4  A    between atoms: N_5  and  C_27
REMARK    5  A    between atoms: N_5  and  C_28
REMARK    6  A    between atoms: C_7  and  C_13
REMARK    7  A    between atoms: C_8  and  C_14
REMARK    8  A    between atoms: C_20  and  C_21
REMARK                            x       y       z     vdW  Elec       q    Type
REMARK                         _______ _______ _______ _____ _____    ______ ____
ROOT
ATOM      2  N   UNL     1      14.935  -6.814  28.414  0.00  0.00    -0.298 NA
ATOM      6  C   UNL     1      17.386  -7.393  27.761  0.00  0.00    -0.003 C 
ATOM      7  C   UNL     1      16.633  -8.652  28.251  0.00  0.00    +0.020 C 
ATOM      8  C   UNL     1      15.877  -5.899  29.111  0.00  0.00    +0.074 C 
ATOM      9  C   UNL     1      17.344  -6.314  28.860  0.00  0.00    +0.024 C 
ATOM     10  C   UNL     1      15.237  -8.224  28.759  0.00  0.00    +0.089 C 
ATOM     11  C   UNL     1      16.601  -6.844  26.554  0.00  0.00    +0.019 C 
ATOM     12  C   UNL     1      15.129  -6.644  26.953  0.00  0.00    +0.085 C 
ENDROOT
BRANCH   7  13
ATOM     13  C   UNL     1      17.401  -9.439  29.310  0.00  0.00    +0.089 C 
BRANCH  13   3
ATOM      3  N   UNL     1      16.484 -10.078  30.253  0.00  0.00    -0.302 NA
ATOM     15  C   UNL     1      15.109 -10.041  29.738  0.00  0.00    +0.084 C 
ATOM     16  C   UNL     1      16.575  -9.438  31.572  0.00  0.00    +0.084 C 
ATOM     17  C   UNL     1      14.144 -10.750  30.690  0.00  0.00    +0.015 C 
ATOM     18  C   UNL     1      15.659 -10.127  32.584  0.00  0.00    +0.015 C 
ATOM     19  C   UNL     1      14.215 -10.160  32.093  0.00  0.00    +0.002 C 
ENDBRANCH  13   3
ENDBRANCH   7  13
BRANCH   8  14
ATOM     14  C   UNL     1      15.572  -5.773  30.606  0.00  0.00    +0.123 C 
BRANCH  14   4
ATOM      1  O   UNL     1      13.516  -4.640  32.260  0.00  0.00    -0.270 OA
ATOM      4  N   UNL     1      14.285  -6.370  30.922  0.00  0.00    -0.310 N 
ATOM     20  C   UNL     1      13.362  -5.739  31.733  0.00  0.00    +0.244 C 
ATOM     29  H   UNL     1      14.072  -7.255  30.477  0.00  0.00    +0.149 HD
BRANCH  20  21
ATOM     21  C   UNL     1      12.107  -6.492  31.983  0.00  0.00    +0.037 A 
ATOM     22  C   UNL     1      12.021  -7.840  31.633  0.00  0.00    +0.015 A 
ATOM     23  C   UNL     1      11.013  -5.852  32.567  0.00  0.00    +0.015 A 
ATOM     24  C   UNL     1      10.841  -8.548  31.866  0.00  0.00    +0.024 A 
ATOM     25  C   UNL     1       9.833  -6.560  32.800  0.00  0.00    +0.024 A 
ATOM     26  C   UNL     1       9.747  -7.907  32.450  0.00  0.00    +0.029 A 
BRANCH  26   5
ATOM      5  N   UNL     1       8.556  -8.622  32.686  0.00  0.00    -0.336 N 
ATOM     27  C   UNL     1       8.569 -10.070  32.757  0.00  0.00    +0.129 C 
ATOM     28  C   UNL     1       7.301  -7.918  32.869  0.00  0.00    +0.129 C 
ENDBRANCH  26   5
ENDBRANCH  20  21
ENDBRANCH  14   4
ENDBRANCH   8  14
TORSDOF 6
ENDMDL
MODEL 2
REMARK VINA RESULT:      -1.0     15.333     19.263
REMARK  Name = 40780575
REMARK  8 active torsions:
REMARK  status: ('A' for Active; 'I' for Inactive)
REMARK    1  A    between atoms: N_3  and  C_13
REMARK    2  A    between atoms: N_4  and  C_14
REMARK    3  A    between atoms: N_5  and  C_26
REMARK    4  A    between atoms: N_5  and  C_27
REMARK    5  A    between atoms: N_5  and  C_28
REMARK    6  A    between atoms: C_7  and  C_13
REMARK    7  A    between atoms: C_8  and  C_14
REMARK    8  A    between atoms: C_20  and  C_21
REMARK                            x       y       z     vdW  Elec       q    Type
REMARK                         _______ _______ _______ _____ _____    ______ ____
ROOT
ATOM      2  N   UNL     1      -1.627   2.745  24.522  0.00  0.00    -0.298 NA
ATOM      6  C   UNL     1      -4.181   3.243  24.516  0.00  0.00    -0.003 C 
ATOM      7  C   UNL     1      -3.824   2.202  25.602  0.00  0.00    +0.020 C 
ATOM      8  C   UNL     1      -2.175   2.584  23.148  0.00  0.00    +0.074 C 
ATOM      9  C   UNL     1      -3.713   2.728  23.143  0.00  0.00    +0.024 C 
ATOM     10  C   UNL     1      -2.328   1.839  25.463  0.00  0.00    +0.089 C 
ATOM     11  C   UNL     1      -3.365   4.512  24.828  0.00  0.00    +0.019 C 
ATOM     12  C   UNL     1      -1.876   4.142  24.952  0.00  0.00    +0.085 C 
ENDROOT
BRANCH   7  13
ATOM     13  C   UNL     1      -4.711   0.960  25.561  0.00  0.00    +0.089 C 
BRANCH  13   3
ATOM      3  N   UNL     1      -3.967  -0.198  25.068  0.00  0.00    -0.302 NA
ATOM     15  C   UNL     1      -4.706  -0.861  23.985  0.00  0.00    +0.084 C 
ATOM     16  C   UNL     1      -3.683  -1.132  26.166  0.00  0.00    +0.084 C 
ATOM     17  C   UNL     1      -3.918  -2.046  23.423  0.00  0.00    +0.015 C 
ATOM     18  C   UNL     1      -2.862  -2.325  25.676  0.00  0.00    +0.015 C 
ATOM     19  C   UNL     1      -3.554  -3.039  24.520  0.00  0.00    +0.002 C 
ENDBRANCH  13   3
ENDBRANCH   7  13
BRANCH   8  14
ATOM     14  C   UNL     1      -1.724   1.279  22.488  0.00  0.00    +0.123 C 
BRANCH  14   4
ATOM      1  O   UNL     1      -0.310  -0.920  23.676  0.00  0.00    -0.270 OA
ATOM      4  N   UNL     1      -0.282   1.123  22.580  0.00  0.00    -0.310 N 
ATOM     20  C   UNL     1       0.301   0.021  23.175  0.00  0.00    +0.244 C 
ATOM     29  H   UNL     1       0.282   1.841  22.140  0.00  0.00    +0.149 HD
BRANCH  20  21
ATOM     21  C   UNL     1       1.786   0.025  23.214  0.00  0.00    +0.037 A 
ATOM     22  C   UNL     1       2.490   1.177  22.864  0.00  0.00    +0.015 A 
ATOM     23  C   UNL     1       2.476  -1.125  23.601  0.00  0.00    +0.015 A 
ATOM     24  C   UNL     1       3.884   1.180  22.900  0.00  0.00    +0.024 A 
ATOM     25  C   UNL     1       3.871  -1.121  23.636  0.00  0.00    +0.024 A 
ATOM     26  C   UNL     1       4.575   0.030  23.286  0.00  0.00    +0.029 A 
BRANCH  26   5
ATOM      5  N   UNL     1       5.984   0.033  23.322  0.00  0.00    -0.336 N 
ATOM     27  C   UNL     1       6.742  -0.917  22.533  0.00  0.00    +0.129 C 
ATOM     28  C   UNL     1       6.695   0.993  24.145  0.00  0.00    +0.129 C 
ENDBRANCH  26   5
ENDBRANCH  20  21
ENDBRANCH  14   4
ENDBRANCH   8  14
TORSDOF 6
ENDMDL
MODEL 3
REMARK VINA RESULT:      -0.7     16.124     20.171
REMARK  Name = 40780575
REMARK  8 active torsions:
REMARK  status: ('A' for Active; 'I' for Inactive)
REMARK    1  A    between atoms: N_3  and  C_13
REMARK    2  A    between atoms: N_4  and  C_14
REMARK    3  A    between atoms: N_5  and  C_26
REMARK    4  A    between atoms: N_5  and  C_27
REMARK    5  A    between atoms: N_5  and  C_28
REMARK    6  A    between atoms: C_7  and  C_13
REMARK    7  A    between atoms: C_8  and  C_14
REMARK    8  A    between atoms: C_20  and  C_21
REMARK                            x       y       z     vdW  Elec       q    Type
REMARK                         _______ _______ _______ _____ _____    ______ ____
ROOT
ATOM      2  N   UNL     1      -4.797   2.692  26.534  0.00  0.00    -0.298 NA
ATOM      6  C   UNL     1      -5.428   2.228  24.053  0.00  0.00    -0.003 C 
ATOM      7  C   UNL     1      -4.558   1.085  24.625  0.00  0.00    +0.020 C 
ATOM      8  C   UNL     1      -4.447   3.867  25.691  0.00  0.00    +0.074 C 
ATOM      9  C   UNL     1      -4.672   3.562  24.193  0.00  0.00    +0.024 C 
ATOM     10  C   UNL     1      -4.096   1.481  26.046  0.00  0.00    +0.089 C 
ATOM     11  C   UNL     1      -6.684   2.321  24.940  0.00  0.00    +0.019 C 
ATOM     12  C   UNL     1      -6.257   2.462  26.412  0.00  0.00    +0.085 C 
ENDROOT
BRANCH   7  13
ATOM     13  C   UNL     1      -3.377   0.720  23.729  0.00  0.00    +0.089 C 
BRANCH  13   3
ATOM      3  N   UNL     1      -3.141  -0.723  23.737  0.00  0.00    -0.302 NA
ATOM     15  C   UNL     1      -4.416  -1.452  23.761  0.00  0.00    +0.084 C 
ATOM     16  C   UNL     1      -2.292  -1.099  24.876  0.00  0.00    +0.084 C 
ATOM     17  C   UNL     1      -4.188  -2.964  23.719  0.00  0.00    +0.015 C 
ATOM     18  C   UNL     1      -1.995  -2.599  24.870  0.00  0.00    +0.015 C 
ATOM     19  C   UNL     1      -3.279  -3.420  24.854  0.00  0.00    +0.002 C 
ENDBRANCH  13   3
ENDBRANCH   7  13
BRANCH   8  14
ATOM     14  C   UNL     1      -3.029   4.377  25.960  0.00  0.00    +0.123 C 
BRANCH  14   4
ATOM      1  O   UNL     1      -0.884   2.810  27.051  0.00  0.00    -0.270 OA
ATOM      4  N   UNL     1      -2.051   3.604  25.212  0.00  0.00    -0.310 N 
ATOM     20  C   UNL     1      -1.053   2.881  25.836  0.00  0.00    +0.244 C 
ATOM     29  H   UNL     1      -2.166   3.577  24.205  0.00  0.00    +0.149 HD
BRANCH  20  21
ATOM     21  C   UNL     1      -0.117   2.167  24.931  0.00  0.00    +0.037 A 
ATOM     22  C   UNL     1      -0.182   0.779  24.815  0.00  0.00    +0.015 A 
ATOM     23  C   UNL     1       0.828   2.886  24.197  0.00  0.00    +0.015 A 
ATOM     24  C   UNL     1       0.698   0.108  23.965  0.00  0.00    +0.024 A 
ATOM     25  C   UNL     1       1.708   2.214  23.348  0.00  0.00    +0.024 A 
ATOM     26  C   UNL     1       1.643   0.826  23.231  0.00  0.00    +0.029 A 
BRANCH  26   5
ATOM      5  N   UNL     1       2.532   0.149  22.372  0.00  0.00    -0.336 N 
ATOM     27  C   UNL     1       2.027  -0.671  21.289  0.00  0.00    +0.129 C 
ATOM     28  C   UNL     1       3.966   0.270  22.556  0.00  0.00    +0.129 C 
ENDBRANCH  26   5
ENDBRANCH  20  21
ENDBRANCH  14   4
ENDBRANCH   8  14
TORSDOF 6
ENDMDL
MODEL 4
REMARK VINA RESULT:       0.1     14.986     19.208
REMARK  Name = 40780575
REMARK  8 active torsions:
REMARK  status: ('A' for Active; 'I' for Inactive)
REMARK    1  A    between atoms: N_3  and  C_13
REMARK    2  A    between atoms: N_4  and  C_14
REMARK    3  A    between atoms: N_5  and  C_26
REMARK    4  A    between atoms: N_5  and  C_27
REMARK    5  A    between atoms: N_5  and  C_28
REMARK    6  A    between atoms: C_7  and  C_13
REMARK    7  A    between atoms: C_8  and  C_14
REMARK    8  A    between atoms: C_20  and  C_21
REMARK                            x       y       z     vdW  Elec       q    Type
REMARK                         _______ _______ _______ _____ _____    ______ ____
ROOT
ATOM      2  N   UNL     1      -2.293  -1.192  23.770  0.00  0.00    -0.298 NA
ATOM      6  C   UNL     1      -3.745  -1.113  25.927  0.00  0.00    -0.003 C 
ATOM      7  C   UNL     1      -4.528  -0.559  24.714  0.00  0.00    +0.020 C 
ATOM      8  C   UNL     1      -1.550  -0.503  24.859  0.00  0.00    +0.074 C 
ATOM      9  C   UNL     1      -2.444  -0.309  26.105  0.00  0.00    +0.024 C 
ATOM     10  C   UNL     1      -3.574  -0.496  23.500  0.00  0.00    +0.089 C 
ATOM     11  C   UNL     1      -3.343  -2.559  25.578  0.00  0.00    +0.019 C 
ATOM     12  C   UNL     1      -2.603  -2.568  24.229  0.00  0.00    +0.085 C 
ENDROOT
BRANCH   7  13
ATOM     13  C   UNL     1      -5.184   0.792  24.987  0.00  0.00    +0.089 C 
BRANCH  13   3
ATOM      3  N   UNL     1      -4.190   1.865  24.987  0.00  0.00    -0.302 NA
ATOM     15  C   UNL     1      -4.478   2.832  26.055  0.00  0.00    +0.084 C 
ATOM     16  C   UNL     1      -4.142   2.522  23.674  0.00  0.00    +0.084 C 
ATOM     17  C   UNL     1      -3.419   3.935  26.101  0.00  0.00    +0.015 C 
ATOM     18  C   UNL     1      -3.072   3.614  23.642  0.00  0.00    +0.015 C 
ATOM     19  C   UNL     1      -3.288   4.635  24.754  0.00  0.00    +0.002 C 
ENDBRANCH  13   3
ENDBRANCH   7  13
BRANCH   8  14
ATOM     14  C   UNL     1      -0.927   0.817  24.397  0.00  0.00    +0.123 C 
BRANCH  14   4
ATOM      1  O   UNL     1       0.470  -0.385  22.195  0.00  0.00    -0.270 OA
ATOM      4  N   UNL     1       0.513   0.685  24.251  0.00  0.00    -0.310 N 
ATOM     20  C   UNL     1       1.088   0.086  23.147  0.00  0.00    +0.244 C 
ATOM     29  H   UNL     1       1.084   1.101  24.978  0.00  0.00    +0.149 HD
BRANCH  20  21
ATOM     21  C   UNL     1       2.571   0.005  23.161  0.00  0.00    +0.037 A 
ATOM     22  C   UNL     1       3.201  -1.155  23.608  0.00  0.00    +0.015 A 
ATOM     23  C   UNL     1       3.333   1.091  22.726  0.00  0.00    +0.015 A 
ATOM     24  C   UNL     1       4.594  -1.232  23.623  0.00  0.00    +0.024 A 
ATOM     25  C   UNL     1       4.726   1.014  22.741  0.00  0.00    +0.024 A 
ATOM     26  C   UNL     1       5.357  -0.146  23.189  0.00  0.00    +0.029 A 
BRANCH  26   5
ATOM      5  N   UNL     1       6.764  -0.223  23.203  0.00  0.00    -0.336 N 
ATOM     27  C   UNL     1       7.547   0.765  23.919  0.00  0.00    +0.129 C 
ATOM     28  C   UNL     1       7.448  -1.296  22.508  0.00  0.00    +0.129 C 
ENDBRANCH  26   5
ENDBRANCH  20  21
ENDBRANCH  14   4
ENDBRANCH   8  14
TORSDOF 6
ENDMDL
MODEL 5
REMARK VINA RESULT:       0.2     15.897     19.897
REMARK  Name = 40780575
REMARK  8 active torsions:
REMARK  status: ('A' for Active; 'I' for Inactive)
REMARK    1  A    between atoms: N_3  and  C_13
REMARK    2  A    between atoms: N_4  and  C_14
REMARK    3  A    between atoms: N_5  and  C_26
REMARK    4  A    between atoms: N_5  and  C_27
REMARK    5  A    between atoms: N_5  and  C_28
REMARK    6  A    between atoms: C_7  and  C_13
REMARK    7  A    between atoms: C_8  and  C_14
REMARK    8  A    between atoms: C_20  and  C_21
REMARK                            x       y       z     vdW  Elec       q    Type
REMARK                         _______ _______ _______ _____ _____    ______ ____
ROOT
ATOM      2  N   UNL     1      -3.002   3.323  25.110  0.00  0.00    -0.298 NA
ATOM      6  C   UNL     1      -5.356   2.391  25.710  0.00  0.00    -0.003 C 
ATOM      7  C   UNL     1      -4.273   1.298  25.866  0.00  0.00    +0.020 C 
ATOM      8  C   UNL     1      -3.959   3.608  24.008  0.00  0.00    +0.074 C 
ATOM      9  C   UNL     1      -5.326   2.937  24.271  0.00  0.00    +0.024 C 
ATOM     10  C   UNL     1      -2.927   1.863  25.360  0.00  0.00    +0.089 C 
ATOM     11  C   UNL     1      -4.959   3.550  26.645  0.00  0.00    +0.019 C 
ATOM     12  C   UNL     1      -3.513   3.977  26.339  0.00  0.00    +0.085 C 
ENDROOT
BRANCH   7  13
ATOM     13  C   UNL     1      -4.633  -0.010  25.167  0.00  0.00    +0.089 C 
BRANCH  13   3
ATOM      3  N   UNL     1      -3.590  -1.015  25.369  0.00  0.00    -0.302 NA
ATOM     15  C   UNL     1      -2.271  -0.375  25.459  0.00  0.00    +0.084 C 
ATOM     16  C   UNL     1      -3.624  -2.014  24.292  0.00  0.00    +0.084 C 
ATOM     17  C   UNL     1      -1.172  -1.407  25.719  0.00  0.00    +0.015 C 
ATOM     18  C   UNL     1      -2.570  -3.100  24.514  0.00  0.00    +0.015 C 
ATOM     19  C   UNL     1      -1.176  -2.500  24.657  0.00  0.00    +0.002 C 
ENDBRANCH  13   3
ENDBRANCH   7  13
BRANCH   8  14
ATOM     14  C   UNL     1      -3.398   3.233  22.634  0.00  0.00    +0.123 C 
BRANCH  14   4
ATOM      1  O   UNL     1      -2.626   0.481  22.358  0.00  0.00    -0.270 OA
ATOM      4  N   UNL     1      -2.054   2.693  22.755  0.00  0.00    -0.310 N 
ATOM     20  C   UNL     1      -1.788   1.345  22.604  0.00  0.00    +0.244 C 
ATOM     29  H   UNL     1      -1.306   3.360  22.906  0.00  0.00    +0.149 HD
BRANCH  20  21
ATOM     21  C   UNL     1      -0.368   0.948  22.785  0.00  0.00    +0.037 A 
ATOM     22  C   UNL     1       0.144  -0.147  22.090  0.00  0.00    +0.015 A 
ATOM     23  C   UNL     1       0.453   1.671  23.651  0.00  0.00    +0.015 A 
ATOM     24  C   UNL     1       1.477  -0.521  22.261  0.00  0.00    +0.024 A 
ATOM     25  C   UNL     1       1.786   1.297  23.821  0.00  0.00    +0.024 A 
ATOM     26  C   UNL     1       2.299   0.202  23.127  0.00  0.00    +0.029 A 
BRANCH  26   5
ATOM      5  N   UNL     1       3.646  -0.175  23.299  0.00  0.00    -0.336 N 
ATOM     27  C   UNL     1       4.713   0.773  23.046  0.00  0.00    +0.129 C 
ATOM     28  C   UNL     1       3.982  -1.515  23.740  0.00  0.00    +0.129 C 
ENDBRANCH  26   5
ENDBRANCH  20  21
ENDBRANCH  14   4
ENDBRANCH   8  14
TORSDOF 6
ENDMDL
