MODEL 1
REMARK VINA RESULT:      -5.4      0.000      0.000
REMARK  Name = 75536625
REMARK  9 active torsions:
REMARK  status: ('A' for Active; 'I' for Inactive)
REMARK    1  A    between atoms: O_2  and  C_9
REMARK    2  A    between atoms: O_4  and  C_24
REMARK    3  A    between atoms: N_6  and  C_8
REMARK    4  A    between atoms: N_6  and  C_13
REMARK    5  A    between atoms: N_7  and  C_12
REMARK    6  A    between atoms: C_10  and  C_12
REMARK    7  A    between atoms: C_13  and  C_14
REMARK    8  A    between atoms: C_15  and  C_18
REMARK    9  A    between atoms: C_21  and  C_24
REMARK                            x       y       z     vdW  Elec       q    Type
REMARK                         _______ _______ _______ _____ _____    ______ ____
ROOT
ATOM      1  O   UNL     1      -1.897  -0.593  25.837  0.00  0.00    -0.371 OA
ATOM      8  C   UNL     1      -3.745  -1.592  24.747  0.00  0.00    +0.111 C 
ATOM      9  C   UNL     1      -2.478  -2.193  24.162  0.00  0.00    +0.164 C 
ATOM     10  C   UNL     1      -1.343  -1.353  24.746  0.00  0.00    +0.165 C 
ATOM     11  C   UNL     1      -3.243  -1.028  26.065  0.00  0.00    +0.181 C 
ENDROOT
BRANCH   9   2
ATOM      2  O   UNL     1      -2.366  -3.532  24.648  0.00  0.00    -0.388 OA
ATOM     29  H   UNL     1      -3.163  -4.011  24.365  0.00  0.00    +0.210 HD
ENDBRANCH   9   2
BRANCH   8   6
ATOM      6  N   UNL     1      -4.280  -0.531  23.898  0.00  0.00    -0.305 NA
ATOM     28  H   UNL     1      -3.521  -0.123  23.351  0.00  0.00    +0.123 HD
BRANCH   6  13
ATOM     13  C   UNL     1      -4.889   0.525  24.699  0.00  0.00    +0.116 C 
BRANCH  13  14
ATOM     14  C   UNL     1      -4.012   1.746  24.779  0.00  0.00    -0.034 A 
ATOM     16  C   UNL     1      -4.246   2.713  25.757  0.00  0.00    +0.006 A 
ATOM     17  C   UNL     1      -2.964   1.911  23.873  0.00  0.00    +0.006 A 
ATOM     19  C   UNL     1      -3.434   3.843  25.830  0.00  0.00    +0.015 A 
ATOM     20  C   UNL     1      -2.151   3.042  23.946  0.00  0.00    +0.015 A 
ATOM     21  C   UNL     1      -2.385   4.008  24.924  0.00  0.00    +0.059 A 
BRANCH  21  24
ATOM      5  O   UNL     1      -1.909   6.316  25.335  0.00  0.00    -0.245 OA
ATOM     24  C   UNL     1      -1.536   5.186  25.001  0.00  0.00    +0.337 C 
BRANCH  24   4
ATOM      4  O   UNL     1      -0.247   4.921  24.657  0.00  0.00    -0.477 OA
ATOM     31  H   UNL     1       0.205   4.369  25.332  0.00  0.00    +0.295 HD
ENDBRANCH  24   4
ENDBRANCH  21  24
ENDBRANCH  13  14
ENDBRANCH   6  13
ENDBRANCH   8   6
BRANCH  10  12
ATOM     12  C   UNL     1      -0.731  -0.380  23.750  0.00  0.00    +0.138 C 
BRANCH  12   7
ATOM      3  O   UNL     1       1.207  -0.355  21.631  0.00  0.00    -0.270 OA
ATOM      7  N   UNL     1       0.696  -0.315  23.894  0.00  0.00    -0.309 N 
ATOM     15  C   UNL     1       1.562  -0.307  22.805  0.00  0.00    +0.244 C 
ATOM     30  H   UNL     1       1.060  -0.357  24.840  0.00  0.00    +0.149 HD
BRANCH  15  18
ATOM     18  C   UNL     1       3.013  -0.264  23.122  0.00  0.00    +0.037 A 
ATOM     22  C   UNL     1       3.637  -1.374  23.692  0.00  0.00    +0.013 A 
ATOM     23  C   UNL     1       3.752   0.887  22.848  0.00  0.00    +0.013 A 
ATOM     25  C   UNL     1       4.999  -1.333  23.987  0.00  0.00    +0.001 A 
ATOM     26  C   UNL     1       5.114   0.928  23.143  0.00  0.00    +0.001 A 
ATOM     27  C   UNL     1       5.738  -0.183  23.713  0.00  0.00    +0.000 A 
ENDBRANCH  15  18
ENDBRANCH  12   7
ENDBRANCH  10  12
TORSDOF 9
ENDMDL
MODEL 2
REMARK VINA RESULT:      -4.9      1.576      4.672
REMARK  Name = 75536625
REMARK  9 active torsions:
REMARK  status: ('A' for Active; 'I' for Inactive)
REMARK    1  A    between atoms: O_2  and  C_9
REMARK    2  A    between atoms: O_4  and  C_24
REMARK    3  A    between atoms: N_6  and  C_8
REMARK    4  A    between atoms: N_6  and  C_13
REMARK    5  A    between atoms: N_7  and  C_12
REMARK    6  A    between atoms: C_10  and  C_12
REMARK    7  A    between atoms: C_13  and  C_14
REMARK    8  A    between atoms: C_15  and  C_18
REMARK    9  A    between atoms: C_21  and  C_24
REMARK                            x       y       z     vdW  Elec       q    Type
REMARK                         _______ _______ _______ _____ _____    ______ ____
ROOT
ATOM      1  O   UNL     1      -0.235   4.567  24.537  0.00  0.00    -0.371 OA
ATOM      8  C   UNL     1      -2.466   4.292  25.277  0.00  0.00    +0.111 C 
ATOM      9  C   UNL     1      -1.663   3.095  25.757  0.00  0.00    +0.164 C 
ATOM     10  C   UNL     1      -0.308   3.230  25.064  0.00  0.00    +0.165 C 
ATOM     11  C   UNL     1      -1.371   5.308  24.997  0.00  0.00    +0.181 C 
ENDROOT
BRANCH   9   2
ATOM      2  O   UNL     1      -1.481   3.230  27.168  0.00  0.00    -0.388 OA
ATOM     29  H   UNL     1      -2.293   2.913  27.598  0.00  0.00    +0.210 HD
ENDBRANCH   9   2
BRANCH   8   6
ATOM      6  N   UNL     1      -3.213   3.986  24.061  0.00  0.00    -0.305 NA
ATOM     28  H   UNL     1      -3.525   4.857  23.630  0.00  0.00    +0.123 HD
BRANCH   6  13
ATOM     13  C   UNL     1      -4.387   3.172  24.356  0.00  0.00    +0.116 C 
BRANCH  13  14
ATOM     14  C   UNL     1      -4.064   1.701  24.352  0.00  0.00    -0.034 A 
ATOM     16  C   UNL     1      -3.293   1.158  23.326  0.00  0.00    +0.006 A 
ATOM     17  C   UNL     1      -4.539   0.882  25.377  0.00  0.00    +0.006 A 
ATOM     19  C   UNL     1      -2.994  -0.204  23.323  0.00  0.00    +0.015 A 
ATOM     20  C   UNL     1      -4.240  -0.481  25.374  0.00  0.00    +0.015 A 
ATOM     21  C   UNL     1      -3.468  -1.024  24.348  0.00  0.00    +0.059 A 
BRANCH  21  24
ATOM      5  O   UNL     1      -3.978  -3.357  24.212  0.00  0.00    -0.245 OA
ATOM     24  C   UNL     1      -3.157  -2.444  24.346  0.00  0.00    +0.337 C 
BRANCH  24   4
ATOM      4  O   UNL     1      -1.828  -2.685  24.514  0.00  0.00    -0.477 OA
ATOM     31  H   UNL     1      -1.619  -3.642  24.449  0.00  0.00    +0.295 HD
ENDBRANCH  24   4
ENDBRANCH  21  24
ENDBRANCH  13  14
ENDBRANCH   6  13
ENDBRANCH   8   6
BRANCH  10  12
ATOM     12  C   UNL     1      -0.113   2.253  23.914  0.00  0.00    +0.138 C 
BRANCH  12   7
ATOM      3  O   UNL     1       0.783  -0.083  22.505  0.00  0.00    -0.270 OA
ATOM      7  N   UNL     1       1.217   1.714  23.907  0.00  0.00    -0.309 N 
ATOM     15  C   UNL     1       1.562   0.572  23.191  0.00  0.00    +0.244 C 
ATOM     30  H   UNL     1       1.891   2.159  24.520  0.00  0.00    +0.149 HD
BRANCH  15  18
ATOM     18  C   UNL     1       2.975   0.127  23.309  0.00  0.00    +0.037 A 
ATOM     22  C   UNL     1       4.013   1.018  23.037  0.00  0.00    +0.013 A 
ATOM     23  C   UNL     1       3.264  -1.182  23.694  0.00  0.00    +0.013 A 
ATOM     25  C   UNL     1       5.339   0.601  23.151  0.00  0.00    +0.001 A 
ATOM     26  C   UNL     1       4.589  -1.600  23.807  0.00  0.00    +0.001 A 
ATOM     27  C   UNL     1       5.627  -0.708  23.536  0.00  0.00    +0.000 A 
ENDBRANCH  15  18
ENDBRANCH  12   7
ENDBRANCH  10  12
TORSDOF 9
ENDMDL
MODEL 3
REMARK VINA RESULT:      -4.9      2.803      5.898
REMARK  Name = 75536625
REMARK  9 active torsions:
REMARK  status: ('A' for Active; 'I' for Inactive)
REMARK    1  A    between atoms: O_2  and  C_9
REMARK    2  A    between atoms: O_4  and  C_24
REMARK    3  A    between atoms: N_6  and  C_8
REMARK    4  A    between atoms: N_6  and  C_13
REMARK    5  A    between atoms: N_7  and  C_12
REMARK    6  A    between atoms: C_10  and  C_12
REMARK    7  A    between atoms: C_13  and  C_14
REMARK    8  A    between atoms: C_15  and  C_18
REMARK    9  A    between atoms: C_21  and  C_24
REMARK                            x       y       z     vdW  Elec       q    Type
REMARK                         _______ _______ _______ _____ _____    ______ ____
ROOT
ATOM      1  O   UNL     1      -4.791   2.667  26.874  0.00  0.00    -0.371 OA
ATOM      8  C   UNL     1      -4.262   4.508  25.485  0.00  0.00    +0.111 C 
ATOM      9  C   UNL     1      -5.663   4.043  25.129  0.00  0.00    +0.164 C 
ATOM     10  C   UNL     1      -5.847   2.735  25.898  0.00  0.00    +0.165 C 
ATOM     11  C   UNL     1      -4.076   3.908  26.869  0.00  0.00    +0.181 C 
ENDROOT
BRANCH   9   2
ATOM      2  O   UNL     1      -6.585   5.012  25.630  0.00  0.00    -0.388 OA
ATOM     29  H   UNL     1      -7.370   4.990  25.057  0.00  0.00    +0.210 HD
ENDBRANCH   9   2
BRANCH   8   6
ATOM      6  N   UNL     1      -3.267   3.983  24.554  0.00  0.00    -0.305 NA
ATOM     28  H   UNL     1      -3.583   3.080  24.198  0.00  0.00    +0.123 HD
BRANCH   6  13
ATOM     13  C   UNL     1      -1.980   3.793  25.214  0.00  0.00    +0.116 C 
BRANCH  13  14
ATOM     14  C   UNL     1      -1.133   2.768  24.507  0.00  0.00    -0.034 A 
ATOM     16  C   UNL     1       0.174   2.528  24.932  0.00  0.00    +0.006 A 
ATOM     17  C   UNL     1      -1.656   2.057  23.427  0.00  0.00    +0.006 A 
ATOM     19  C   UNL     1       0.957   1.579  24.278  0.00  0.00    +0.015 A 
ATOM     20  C   UNL     1      -0.872   1.108  22.772  0.00  0.00    +0.015 A 
ATOM     21  C   UNL     1       0.435   0.868  23.197  0.00  0.00    +0.059 A 
BRANCH  21  24
ATOM      5  O   UNL     1       0.957  -0.684  21.453  0.00  0.00    -0.245 OA
ATOM     24  C   UNL     1       1.251  -0.123  22.514  0.00  0.00    +0.337 C 
BRANCH  24   4
ATOM      4  O   UNL     1       2.410  -0.388  23.177  0.00  0.00    -0.477 OA
ATOM     31  H   UNL     1       3.166  -0.497  22.560  0.00  0.00    +0.295 HD
ENDBRANCH  24   4
ENDBRANCH  21  24
ENDBRANCH  13  14
ENDBRANCH   6  13
ENDBRANCH   8   6
BRANCH  10  12
ATOM     12  C   UNL     1      -5.764   1.496  25.019  0.00  0.00    +0.138 C 
BRANCH  12   7
ATOM      3  O   UNL     1      -5.073  -1.120  24.056  0.00  0.00    -0.270 OA
ATOM      7  N   UNL     1      -4.499   0.834  25.168  0.00  0.00    -0.309 N 
ATOM     15  C   UNL     1      -4.253  -0.440  24.665  0.00  0.00    +0.244 C 
ATOM     30  H   UNL     1      -3.803   1.306  25.734  0.00  0.00    +0.149 HD
BRANCH  15  18
ATOM     18  C   UNL     1      -2.900  -0.997  24.926  0.00  0.00    +0.037 A 
ATOM     22  C   UNL     1      -2.447  -2.098  24.200  0.00  0.00    +0.013 A 
ATOM     23  C   UNL     1      -2.082  -0.416  25.895  0.00  0.00    +0.013 A 
ATOM     25  C   UNL     1      -1.176  -2.619  24.444  0.00  0.00    +0.001 A 
ATOM     26  C   UNL     1      -0.812  -0.936  26.139  0.00  0.00    +0.001 A 
ATOM     27  C   UNL     1      -0.358  -2.038  25.413  0.00  0.00    +0.000 A 
ENDBRANCH  15  18
ENDBRANCH  12   7
ENDBRANCH  10  12
TORSDOF 9
ENDMDL
MODEL 4
REMARK VINA RESULT:      -4.8      2.512      6.664
REMARK  Name = 75536625
REMARK  9 active torsions:
REMARK  status: ('A' for Active; 'I' for Inactive)
REMARK    1  A    between atoms: O_2  and  C_9
REMARK    2  A    between atoms: O_4  and  C_24
REMARK    3  A    between atoms: N_6  and  C_8
REMARK    4  A    between atoms: N_6  and  C_13
REMARK    5  A    between atoms: N_7  and  C_12
REMARK    6  A    between atoms: C_10  and  C_12
REMARK    7  A    between atoms: C_13  and  C_14
REMARK    8  A    between atoms: C_15  and  C_18
REMARK    9  A    between atoms: C_21  and  C_24
REMARK                            x       y       z     vdW  Elec       q    Type
REMARK                         _______ _______ _______ _____ _____    ______ ____
ROOT
ATOM      1  O   UNL     1      -4.411   4.222  25.516  0.00  0.00    -0.371 OA
ATOM      8  C   UNL     1      -2.223   3.544  26.110  0.00  0.00    +0.111 C 
ATOM      9  C   UNL     1      -2.154   4.191  24.737  0.00  0.00    +0.164 C 
ATOM     10  C   UNL     1      -3.613   4.399  24.331  0.00  0.00    +0.165 C 
ATOM     11  C   UNL     1      -3.539   4.084  26.644  0.00  0.00    +0.181 C 
ENDROOT
BRANCH   9   2
ATOM      2  O   UNL     1      -1.526   5.466  24.888  0.00  0.00    -0.388 OA
ATOM     29  H   UNL     1      -1.485   5.659  25.840  0.00  0.00    +0.210 HD
ENDBRANCH   9   2
BRANCH   8   6
ATOM      6  N   UNL     1      -2.260   2.087  26.017  0.00  0.00    -0.305 NA
ATOM     28  H   UNL     1      -2.962   1.726  26.664  0.00  0.00    +0.123 HD
BRANCH   6  13
ATOM     13  C   UNL     1      -0.969   1.505  26.365  0.00  0.00    +0.116 C 
BRANCH  13  14
ATOM     14  C   UNL     1      -0.202   1.069  25.145  0.00  0.00    -0.034 A 
ATOM     16  C   UNL     1      -0.389  -0.210  24.622  0.00  0.00    +0.006 A 
ATOM     17  C   UNL     1       0.697   1.946  24.538  0.00  0.00    +0.006 A 
ATOM     19  C   UNL     1       0.322  -0.612  23.492  0.00  0.00    +0.015 A 
ATOM     20  C   UNL     1       1.408   1.544  23.407  0.00  0.00    +0.015 A 
ATOM     21  C   UNL     1       1.221   0.264  22.884  0.00  0.00    +0.059 A 
BRANCH  21  24
ATOM      5  O   UNL     1       3.175  -0.006  21.532  0.00  0.00    -0.245 OA
ATOM     24  C   UNL     1       1.961  -0.154  21.705  0.00  0.00    +0.337 C 
BRANCH  24   4
ATOM      4  O   UNL     1       1.164  -0.745  20.773  0.00  0.00    -0.477 OA
ATOM     31  H   UNL     1       1.554  -1.581  20.436  0.00  0.00    +0.295 HD
ENDBRANCH  24   4
ENDBRANCH  21  24
ENDBRANCH  13  14
ENDBRANCH   6  13
ENDBRANCH   8   6
BRANCH  10  12
ATOM     12  C   UNL     1      -4.098   3.414  23.278  0.00  0.00    +0.138 C 
BRANCH  12   7
ATOM      3  O   UNL     1      -5.811   1.577  24.668  0.00  0.00    -0.270 OA
ATOM      7  N   UNL     1      -3.786   2.062  23.645  0.00  0.00    -0.309 N 
ATOM     15  C   UNL     1      -4.683   1.240  24.321  0.00  0.00    +0.244 C 
ATOM     30  H   UNL     1      -2.840   1.748  23.461  0.00  0.00    +0.149 HD
BRANCH  15  18
ATOM     18  C   UNL     1      -4.199  -0.125  24.652  0.00  0.00    +0.037 A 
ATOM     22  C   UNL     1      -4.130  -1.102  23.659  0.00  0.00    +0.013 A 
ATOM     23  C   UNL     1      -3.811  -0.429  25.957  0.00  0.00    +0.013 A 
ATOM     25  C   UNL     1      -3.673  -2.382  23.970  0.00  0.00    +0.001 A 
ATOM     26  C   UNL     1      -3.354  -1.709  26.268  0.00  0.00    +0.001 A 
ATOM     27  C   UNL     1      -3.285  -2.686  25.275  0.00  0.00    +0.000 A 
ENDBRANCH  15  18
ENDBRANCH  12   7
ENDBRANCH  10  12
TORSDOF 9
ENDMDL
MODEL 5
REMARK VINA RESULT:      -4.5      2.294      6.679
REMARK  Name = 75536625
REMARK  9 active torsions:
REMARK  status: ('A' for Active; 'I' for Inactive)
REMARK    1  A    between atoms: O_2  and  C_9
REMARK    2  A    between atoms: O_4  and  C_24
REMARK    3  A    between atoms: N_6  and  C_8
REMARK    4  A    between atoms: N_6  and  C_13
REMARK    5  A    between atoms: N_7  and  C_12
REMARK    6  A    between atoms: C_10  and  C_12
REMARK    7  A    between atoms: C_13  and  C_14
REMARK    8  A    between atoms: C_15  and  C_18
REMARK    9  A    between atoms: C_21  and  C_24
REMARK                            x       y       z     vdW  Elec       q    Type
REMARK                         _______ _______ _______ _____ _____    ______ ____
ROOT
ATOM      1  O   UNL     1      -3.669   4.284  26.492  0.00  0.00    -0.371 OA
ATOM      8  C   UNL     1      -2.405   3.599  24.612  0.00  0.00    +0.111 C 
ATOM      9  C   UNL     1      -3.859   3.696  24.186  0.00  0.00    +0.164 C 
ATOM     10  C   UNL     1      -4.632   3.923  25.485  0.00  0.00    +0.165 C 
ATOM     11  C   UNL     1      -2.390   4.454  25.868  0.00  0.00    +0.181 C 
ENDROOT
BRANCH   9   2
ATOM      2  O   UNL     1      -3.994   4.851  23.355  0.00  0.00    -0.388 OA
ATOM     29  H   UNL     1      -3.111   5.245  23.260  0.00  0.00    +0.210 HD
ENDBRANCH   9   2
BRANCH   8   6
ATOM      6  N   UNL     1      -2.023   2.223  24.917  0.00  0.00    -0.305 NA
ATOM     28  H   UNL     1      -1.149   2.225  25.444  0.00  0.00    +0.123 HD
BRANCH   6  13
ATOM     13  C   UNL     1      -1.824   1.450  23.697  0.00  0.00    +0.116 C 
BRANCH  13  14
ATOM     14  C   UNL     1      -0.381   1.061  23.508  0.00  0.00    -0.034 A 
ATOM     16  C   UNL     1       0.634   1.924  23.918  0.00  0.00    +0.006 A 
ATOM     17  C   UNL     1      -0.061  -0.164  22.923  0.00  0.00    +0.006 A 
ATOM     19  C   UNL     1       1.969   1.563  23.743  0.00  0.00    +0.015 A 
ATOM     20  C   UNL     1       1.275  -0.525  22.748  0.00  0.00    +0.015 A 
ATOM     21  C   UNL     1       2.291   0.338  23.158  0.00  0.00    +0.059 A 
BRANCH  21  24
ATOM      5  O   UNL     1       4.510   0.581  22.301  0.00  0.00    -0.245 OA
ATOM     24  C   UNL     1       3.683  -0.039  22.977  0.00  0.00    +0.337 C 
BRANCH  24   4
ATOM      4  O   UNL     1       4.003  -1.182  23.643  0.00  0.00    -0.477 OA
ATOM     31  H   UNL     1       4.948  -1.420  23.526  0.00  0.00    +0.295 HD
ENDBRANCH  24   4
ENDBRANCH  21  24
ENDBRANCH  13  14
ENDBRANCH   6  13
ENDBRANCH   8   6
BRANCH  10  12
ATOM     12  C   UNL     1      -5.387   2.693  25.967  0.00  0.00    +0.138 C 
BRANCH  12   7
ATOM      3  O   UNL     1      -6.144   0.457  24.332  0.00  0.00    -0.270 OA
ATOM      7  N   UNL     1      -4.627   1.495  25.749  0.00  0.00    -0.309 N 
ATOM     15  C   UNL     1      -5.075   0.458  24.936  0.00  0.00    +0.244 C 
ATOM     30  H   UNL     1      -3.772   1.396  26.284  0.00  0.00    +0.149 HD
BRANCH  15  18
ATOM     18  C   UNL     1      -4.183  -0.726  24.835  0.00  0.00    +0.037 A 
ATOM     22  C   UNL     1      -3.112  -0.871  25.716  0.00  0.00    +0.013 A 
ATOM     23  C   UNL     1      -4.419  -1.695  23.859  0.00  0.00    +0.013 A 
ATOM     25  C   UNL     1      -2.277  -1.984  25.623  0.00  0.00    +0.001 A 
ATOM     26  C   UNL     1      -3.584  -2.807  23.765  0.00  0.00    +0.001 A 
ATOM     27  C   UNL     1      -2.513  -2.953  24.647  0.00  0.00    +0.000 A 
ENDBRANCH  15  18
ENDBRANCH  12   7
ENDBRANCH  10  12
TORSDOF 9
ENDMDL
MODEL 6
REMARK VINA RESULT:      -4.1      2.165      7.208
REMARK  Name = 75536625
REMARK  9 active torsions:
REMARK  status: ('A' for Active; 'I' for Inactive)
REMARK    1  A    between atoms: O_2  and  C_9
REMARK    2  A    between atoms: O_4  and  C_24
REMARK    3  A    between atoms: N_6  and  C_8
REMARK    4  A    between atoms: N_6  and  C_13
REMARK    5  A    between atoms: N_7  and  C_12
REMARK    6  A    between atoms: C_10  and  C_12
REMARK    7  A    between atoms: C_13  and  C_14
REMARK    8  A    between atoms: C_15  and  C_18
REMARK    9  A    between atoms: C_21  and  C_24
REMARK                            x       y       z     vdW  Elec       q    Type
REMARK                         _______ _______ _______ _____ _____    ______ ____
ROOT
ATOM      1  O   UNL     1      -2.124   3.280  26.180  0.00  0.00    -0.371 OA
ATOM      8  C   UNL     1      -0.266   2.584  24.889  0.00  0.00    +0.111 C 
ATOM      9  C   UNL     1      -1.012   3.645  24.099  0.00  0.00    +0.164 C 
ATOM     10  C   UNL     1      -2.301   3.882  24.884  0.00  0.00    +0.165 C 
ATOM     11  C   UNL     1      -0.767   2.837  26.301  0.00  0.00    +0.181 C 
ENDROOT
BRANCH   9   2
ATOM      2  O   UNL     1      -0.226   4.838  24.122  0.00  0.00    -0.388 OA
ATOM     29  H   UNL     1       0.707   4.573  24.059  0.00  0.00    +0.210 HD
ENDBRANCH   9   2
BRANCH   8   6
ATOM      6  N   UNL     1      -0.618   1.237  24.449  0.00  0.00    -0.305 NA
ATOM     28  H   UNL     1      -0.247   0.558  25.114  0.00  0.00    +0.123 HD
BRANCH   6  13
ATOM     13  C   UNL     1      -0.056   0.950  23.134  0.00  0.00    +0.116 C 
BRANCH  13  14
ATOM     14  C   UNL     1       1.402   0.582  23.215  0.00  0.00    -0.034 A 
ATOM     16  C   UNL     1       1.776  -0.726  23.521  0.00  0.00    +0.006 A 
ATOM     17  C   UNL     1       2.378   1.551  22.983  0.00  0.00    +0.006 A 
ATOM     19  C   UNL     1       3.126  -1.066  23.595  0.00  0.00    +0.015 A 
ATOM     20  C   UNL     1       3.729   1.210  23.057  0.00  0.00    +0.015 A 
ATOM     21  C   UNL     1       4.103  -0.098  23.364  0.00  0.00    +0.059 A 
BRANCH  21  24
ATOM      5  O   UNL     1       6.344  -0.272  22.545  0.00  0.00    -0.245 OA
ATOM     24  C   UNL     1       5.511  -0.453  23.440  0.00  0.00    +0.337 C 
BRANCH  24   4
ATOM      4  O   UNL     1       5.840  -1.024  24.631  0.00  0.00    -0.477 OA
ATOM     31  H   UNL     1       5.983  -1.992  24.544  0.00  0.00    +0.295 HD
ENDBRANCH  24   4
ENDBRANCH  21  24
ENDBRANCH  13  14
ENDBRANCH   6  13
ENDBRANCH   8   6
BRANCH  10  12
ATOM     12  C   UNL     1      -3.531   3.264  24.236  0.00  0.00    +0.138 C 
BRANCH  12   7
ATOM      3  O   UNL     1      -5.176   1.410  25.686  0.00  0.00    -0.270 OA
ATOM      7  N   UNL     1      -3.441   1.832  24.204  0.00  0.00    -0.309 N 
ATOM     15  C   UNL     1      -4.284   1.008  24.944  0.00  0.00    +0.244 C 
ATOM     30  H   UNL     1      -2.671   1.436  23.675  0.00  0.00    +0.149 HD
BRANCH  15  18
ATOM     18  C   UNL     1      -4.044  -0.453  24.823  0.00  0.00    +0.037 A 
ATOM     22  C   UNL     1      -3.404  -1.143  25.853  0.00  0.00    +0.013 A 
ATOM     23  C   UNL     1      -4.462  -1.136  23.681  0.00  0.00    +0.013 A 
ATOM     25  C   UNL     1      -3.182  -2.516  25.740  0.00  0.00    +0.001 A 
ATOM     26  C   UNL     1      -4.239  -2.507  23.567  0.00  0.00    +0.001 A 
ATOM     27  C   UNL     1      -3.599  -3.198  24.597  0.00  0.00    +0.000 A 
ENDBRANCH  15  18
ENDBRANCH  12   7
ENDBRANCH  10  12
TORSDOF 9
ENDMDL
MODEL 7
REMARK VINA RESULT:      -2.8      2.704      5.311
REMARK  Name = 75536625
REMARK  9 active torsions:
REMARK  status: ('A' for Active; 'I' for Inactive)
REMARK    1  A    between atoms: O_2  and  C_9
REMARK    2  A    between atoms: O_4  and  C_24
REMARK    3  A    between atoms: N_6  and  C_8
REMARK    4  A    between atoms: N_6  and  C_13
REMARK    5  A    between atoms: N_7  and  C_12
REMARK    6  A    between atoms: C_10  and  C_12
REMARK    7  A    between atoms: C_13  and  C_14
REMARK    8  A    between atoms: C_15  and  C_18
REMARK    9  A    between atoms: C_21  and  C_24
REMARK                            x       y       z     vdW  Elec       q    Type
REMARK                         _______ _______ _______ _____ _____    ______ ____
ROOT
ATOM      1  O   UNL     1      -0.842  -1.510  23.849  0.00  0.00    -0.371 OA
ATOM      8  C   UNL     1       0.180   0.264  22.661  0.00  0.00    +0.111 C 
ATOM      9  C   UNL     1       1.016  -0.011  23.899  0.00  0.00    +0.164 C 
ATOM     10  C   UNL     1       0.187  -1.000  24.718  0.00  0.00    +0.165 C 
ATOM     11  C   UNL     1      -0.604  -1.030  22.520  0.00  0.00    +0.181 C 
ENDROOT
BRANCH   9   2
ATOM      2  O   UNL     1       2.222  -0.651  23.477  0.00  0.00    -0.388 OA
ATOM     29  H   UNL     1       2.857   0.049  23.247  0.00  0.00    +0.210 HD
ENDBRANCH   9   2
BRANCH   8   6
ATOM      6  N   UNL     1      -0.721   1.396  22.859  0.00  0.00    -0.305 NA
ATOM     28  H   UNL     1      -0.828   1.569  23.859  0.00  0.00    +0.123 HD
BRANCH   6  13
ATOM     13  C   UNL     1      -2.037   1.125  22.293  0.00  0.00    +0.116 C 
BRANCH  13  14
ATOM     14  C   UNL     1      -3.144   1.479  23.251  0.00  0.00    -0.034 A 
ATOM     16  C   UNL     1      -3.662   0.509  24.109  0.00  0.00    +0.006 A 
ATOM     17  C   UNL     1      -3.650   2.779  23.281  0.00  0.00    +0.006 A 
ATOM     19  C   UNL     1      -4.686   0.838  24.996  0.00  0.00    +0.015 A 
ATOM     20  C   UNL     1      -4.675   3.107  24.168  0.00  0.00    +0.015 A 
ATOM     21  C   UNL     1      -5.193   2.137  25.026  0.00  0.00    +0.059 A 
BRANCH  21  24
ATOM      5  O   UNL     1      -6.898   1.676  26.639  0.00  0.00    -0.245 OA
ATOM     24  C   UNL     1      -6.260   2.480  25.952  0.00  0.00    +0.337 C 
BRANCH  24   4
ATOM      4  O   UNL     1      -6.502   3.819  25.994  0.00  0.00    -0.477 OA
ATOM     31  H   UNL     1      -6.586   4.203  25.094  0.00  0.00    +0.295 HD
ENDBRANCH  24   4
ENDBRANCH  21  24
ENDBRANCH  13  14
ENDBRANCH   6  13
ENDBRANCH   8   6
BRANCH  10  12
ATOM     12  C   UNL     1      -0.481  -0.374  25.933  0.00  0.00    +0.138 C 
BRANCH  12   7
ATOM      3  O   UNL     1       0.600   2.091  26.934  0.00  0.00    -0.270 OA
ATOM      7  N   UNL     1      -0.955   0.949  25.644  0.00  0.00    -0.309 N 
ATOM     15  C   UNL     1      -0.367   2.092  26.177  0.00  0.00    +0.244 C 
ATOM     30  H   UNL     1      -1.802   1.018  25.091  0.00  0.00    +0.149 HD
BRANCH  15  18
ATOM     18  C   UNL     1      -0.993   3.386  25.803  0.00  0.00    +0.037 A 
ATOM     22  C   UNL     1      -2.210   3.763  26.371  0.00  0.00    +0.013 A 
ATOM     23  C   UNL     1      -0.363   4.226  24.885  0.00  0.00    +0.013 A 
ATOM     25  C   UNL     1      -2.796   4.980  26.021  0.00  0.00    +0.001 A 
ATOM     26  C   UNL     1      -0.948   5.442  24.535  0.00  0.00    +0.001 A 
ATOM     27  C   UNL     1      -2.166   5.819  25.103  0.00  0.00    +0.000 A 
ENDBRANCH  15  18
ENDBRANCH  12   7
ENDBRANCH  10  12
TORSDOF 9
ENDMDL
MODEL 8
REMARK VINA RESULT:      -2.4      2.574      4.101
REMARK  Name = 75536625
REMARK  9 active torsions:
REMARK  status: ('A' for Active; 'I' for Inactive)
REMARK    1  A    between atoms: O_2  and  C_9
REMARK    2  A    between atoms: O_4  and  C_24
REMARK    3  A    between atoms: N_6  and  C_8
REMARK    4  A    between atoms: N_6  and  C_13
REMARK    5  A    between atoms: N_7  and  C_12
REMARK    6  A    between atoms: C_10  and  C_12
REMARK    7  A    between atoms: C_13  and  C_14
REMARK    8  A    between atoms: C_15  and  C_18
REMARK    9  A    between atoms: C_21  and  C_24
REMARK                            x       y       z     vdW  Elec       q    Type
REMARK                         _______ _______ _______ _____ _____    ______ ____
ROOT
ATOM      1  O   UNL     1      -1.359  -0.859  26.110  0.00  0.00    -0.371 OA
ATOM      8  C   UNL     1      -2.768  -2.236  24.799  0.00  0.00    +0.111 C 
ATOM      9  C   UNL     1      -1.331  -2.640  24.521  0.00  0.00    +0.164 C 
ATOM     10  C   UNL     1      -0.484  -1.578  25.220  0.00  0.00    +0.165 C 
ATOM     11  C   UNL     1      -2.636  -1.508  26.126  0.00  0.00    +0.181 C 
ENDROOT
BRANCH   9   2
ATOM      2  O   UNL     1      -1.104  -3.904  25.147  0.00  0.00    -0.388 OA
ATOM     29  H   UNL     1      -0.695  -4.487  24.485  0.00  0.00    +0.210 HD
ENDBRANCH   9   2
BRANCH   8   6
ATOM      6  N   UNL     1      -3.286  -1.342  23.767  0.00  0.00    -0.305 NA
ATOM     28  H   UNL     1      -2.753  -0.472  23.778  0.00  0.00    +0.123 HD
BRANCH   6  13
ATOM     13  C   UNL     1      -4.690  -1.025  24.002  0.00  0.00    +0.116 C 
BRANCH  13  14
ATOM     14  C   UNL     1      -4.874   0.391  24.479  0.00  0.00    -0.034 A 
ATOM     16  C   UNL     1      -5.815   0.680  25.467  0.00  0.00    +0.006 A 
ATOM     17  C   UNL     1      -4.102   1.416  23.931  0.00  0.00    +0.006 A 
ATOM     19  C   UNL     1      -5.985   1.991  25.907  0.00  0.00    +0.015 A 
ATOM     20  C   UNL     1      -4.272   2.728  24.372  0.00  0.00    +0.015 A 
ATOM     21  C   UNL     1      -5.213   3.017  25.359  0.00  0.00    +0.059 A 
BRANCH  21  24
ATOM      5  O   UNL     1      -6.323   5.131  25.507  0.00  0.00    -0.245 OA
ATOM     24  C   UNL     1      -5.389   4.385  25.820  0.00  0.00    +0.337 C 
BRANCH  24   4
ATOM      4  O   UNL     1      -4.393   4.784  26.657  0.00  0.00    -0.477 OA
ATOM     31  H   UNL     1      -4.104   4.058  27.252  0.00  0.00    +0.295 HD
ENDBRANCH  24   4
ENDBRANCH  21  24
ENDBRANCH  13  14
ENDBRANCH   6  13
ENDBRANCH   8   6
BRANCH  10  12
ATOM     12  C   UNL     1       0.150  -0.579  24.265  0.00  0.00    +0.138 C 
BRANCH  12   7
ATOM      3  O   UNL     1       1.563   1.893  23.888  0.00  0.00    -0.270 OA
ATOM      7  N   UNL     1      -0.366   0.744  24.474  0.00  0.00    -0.309 N 
ATOM     15  C   UNL     1       0.394   1.891  24.265  0.00  0.00    +0.244 C 
ATOM     30  H   UNL     1      -1.299   0.811  24.866  0.00  0.00    +0.149 HD
BRANCH  15  18
ATOM     18  C   UNL     1      -0.278   3.184  24.553  0.00  0.00    +0.037 A 
ATOM     22  C   UNL     1      -1.130   3.299  25.651  0.00  0.00    +0.013 A 
ATOM     23  C   UNL     1      -0.054   4.285  23.726  0.00  0.00    +0.013 A 
ATOM     25  C   UNL     1      -1.759   4.514  25.922  0.00  0.00    +0.001 A 
ATOM     26  C   UNL     1      -0.683   5.499  23.996  0.00  0.00    +0.001 A 
ATOM     27  C   UNL     1      -1.535   5.615  25.095  0.00  0.00    +0.000 A 
ENDBRANCH  15  18
ENDBRANCH  12   7
ENDBRANCH  10  12
TORSDOF 9
ENDMDL
MODEL 9
REMARK VINA RESULT:      -2.0      2.684      5.527
REMARK  Name = 75536625
REMARK  9 active torsions:
REMARK  status: ('A' for Active; 'I' for Inactive)
REMARK    1  A    between atoms: O_2  and  C_9
REMARK    2  A    between atoms: O_4  and  C_24
REMARK    3  A    between atoms: N_6  and  C_8
REMARK    4  A    between atoms: N_6  and  C_13
REMARK    5  A    between atoms: N_7  and  C_12
REMARK    6  A    between atoms: C_10  and  C_12
REMARK    7  A    between atoms: C_13  and  C_14
REMARK    8  A    between atoms: C_15  and  C_18
REMARK    9  A    between atoms: C_21  and  C_24
REMARK                            x       y       z     vdW  Elec       q    Type
REMARK                         _______ _______ _______ _____ _____    ______ ____
ROOT
ATOM      1  O   UNL     1       0.983   1.829  25.228  0.00  0.00    -0.371 OA
ATOM      8  C   UNL     1      -0.089   2.325  23.177  0.00  0.00    +0.111 C 
ATOM      9  C   UNL     1      -0.574   3.326  24.211  0.00  0.00    +0.164 C 
ATOM     10  C   UNL     1      -0.019   2.815  25.539  0.00  0.00    +0.165 C 
ATOM     11  C   UNL     1       1.196   1.820  23.811  0.00  0.00    +0.181 C 
ENDROOT
BRANCH   9   2
ATOM      2  O   UNL     1       0.025   4.589  23.910  0.00  0.00    -0.388 OA
ATOM     29  H   UNL     1      -0.178   5.189  24.647  0.00  0.00    +0.210 HD
ENDBRANCH   9   2
BRANCH   8   6
ATOM      6  N   UNL     1      -1.042   1.233  22.995  0.00  0.00    -0.305 NA
ATOM     28  H   UNL     1      -0.619   0.512  22.411  0.00  0.00    +0.123 HD
BRANCH   6  13
ATOM     13  C   UNL     1      -2.259   1.701  22.342  0.00  0.00    +0.116 C 
BRANCH  13  14
ATOM     14  C   UNL     1      -3.317   2.090  23.341  0.00  0.00    -0.034 A 
ATOM     16  C   UNL     1      -3.496   3.430  23.683  0.00  0.00    +0.006 A 
ATOM     17  C   UNL     1      -4.119   1.108  23.924  0.00  0.00    +0.006 A 
ATOM     19  C   UNL     1      -4.476   3.789  24.608  0.00  0.00    +0.015 A 
ATOM     20  C   UNL     1      -5.099   1.468  24.849  0.00  0.00    +0.015 A 
ATOM     21  C   UNL     1      -5.278   2.808  25.191  0.00  0.00    +0.059 A 
BRANCH  21  24
ATOM      5  O   UNL     1      -6.810   2.425  26.988  0.00  0.00    -0.245 OA
ATOM     24  C   UNL     1      -6.301   3.182  26.154  0.00  0.00    +0.337 C 
BRANCH  24   4
ATOM      4  O   UNL     1      -6.662   4.489  26.048  0.00  0.00    -0.477 OA
ATOM     31  H   UNL     1      -6.990   4.706  25.148  0.00  0.00    +0.295 HD
ENDBRANCH  24   4
ENDBRANCH  21  24
ENDBRANCH  13  14
ENDBRANCH   6  13
ENDBRANCH   8   6
BRANCH  10  12
ATOM     12  C   UNL     1      -1.069   2.163  26.426  0.00  0.00    +0.138 C 
BRANCH  12   7
ATOM      3  O   UNL     1      -0.606  -0.609  27.020  0.00  0.00    -0.270 OA
ATOM      7  N   UNL     1      -1.674   1.035  25.777  0.00  0.00    -0.309 N 
ATOM     15  C   UNL     1      -1.389  -0.280  26.133  0.00  0.00    +0.244 C 
ATOM     30  H   UNL     1      -2.268   1.234  24.979  0.00  0.00    +0.149 HD
BRANCH  15  18
ATOM     18  C   UNL     1      -2.078  -1.336  25.346  0.00  0.00    +0.037 A 
ATOM     22  C   UNL     1      -1.350  -2.136  24.464  0.00  0.00    +0.013 A 
ATOM     23  C   UNL     1      -3.451  -1.528  25.490  0.00  0.00    +0.013 A 
ATOM     25  C   UNL     1      -1.997  -3.128  23.728  0.00  0.00    +0.001 A 
ATOM     26  C   UNL     1      -4.098  -2.520  24.754  0.00  0.00    +0.001 A 
ATOM     27  C   UNL     1      -3.371  -3.321  23.872  0.00  0.00    +0.000 A 
ENDBRANCH  15  18
ENDBRANCH  12   7
ENDBRANCH  10  12
TORSDOF 9
ENDMDL
MODEL 10
REMARK VINA RESULT:      -2.0      1.876      4.979
REMARK  Name = 75536625
REMARK  9 active torsions:
REMARK  status: ('A' for Active; 'I' for Inactive)
REMARK    1  A    between atoms: O_2  and  C_9
REMARK    2  A    between atoms: O_4  and  C_24
REMARK    3  A    between atoms: N_6  and  C_8
REMARK    4  A    between atoms: N_6  and  C_13
REMARK    5  A    between atoms: N_7  and  C_12
REMARK    6  A    between atoms: C_10  and  C_12
REMARK    7  A    between atoms: C_13  and  C_14
REMARK    8  A    between atoms: C_15  and  C_18
REMARK    9  A    between atoms: C_21  and  C_24
REMARK                            x       y       z     vdW  Elec       q    Type
REMARK                         _______ _______ _______ _____ _____    ______ ____
ROOT
ATOM      1  O   UNL     1      -0.696   3.963  25.084  0.00  0.00    -0.371 OA
ATOM      8  C   UNL     1      -3.018   4.353  24.842  0.00  0.00    +0.111 C 
ATOM      9  C   UNL     1      -2.787   3.749  26.216  0.00  0.00    +0.164 C 
ATOM     10  C   UNL     1      -1.319   3.325  26.214  0.00  0.00    +0.165 C 
ATOM     11  C   UNL     1      -1.633   4.872  24.493  0.00  0.00    +0.181 C 
ENDROOT
BRANCH   9   2
ATOM      2  O   UNL     1      -2.972   4.783  27.185  0.00  0.00    -0.388 OA
ATOM     29  H   UNL     1      -2.098   5.168  27.369  0.00  0.00    +0.210 HD
ENDBRANCH   9   2
BRANCH   8   6
ATOM      6  N   UNL     1      -3.453   3.347  23.877  0.00  0.00    -0.305 NA
ATOM     28  H   UNL     1      -3.772   3.813  23.027  0.00  0.00    +0.123 HD
BRANCH   6  13
ATOM     13  C   UNL     1      -4.554   2.552  24.408  0.00  0.00    +0.116 C 
BRANCH  13  14
ATOM     14  C   UNL     1      -4.216   1.085  24.454  0.00  0.00    -0.034 A 
ATOM     16  C   UNL     1      -4.148   0.422  25.679  0.00  0.00    +0.006 A 
ATOM     17  C   UNL     1      -3.970   0.390  23.270  0.00  0.00    +0.006 A 
ATOM     19  C   UNL     1      -3.834  -0.936  25.720  0.00  0.00    +0.015 A 
ATOM     20  C   UNL     1      -3.657  -0.968  23.311  0.00  0.00    +0.015 A 
ATOM     21  C   UNL     1      -3.589  -1.632  24.536  0.00  0.00    +0.059 A 
BRANCH  21  24
ATOM      5  O   UNL     1      -3.955  -3.956  24.104  0.00  0.00    -0.245 OA
ATOM     24  C   UNL     1      -3.263  -3.048  24.578  0.00  0.00    +0.337 C 
BRANCH  24   4
ATOM      4  O   UNL     1      -2.084  -3.293  25.212  0.00  0.00    -0.477 OA
ATOM     31  H   UNL     1      -1.829  -2.553  25.805  0.00  0.00    +0.295 HD
ENDBRANCH  24   4
ENDBRANCH  21  24
ENDBRANCH  13  14
ENDBRANCH   6  13
ENDBRANCH   8   6
BRANCH  10  12
ATOM     12  C   UNL     1      -1.119   1.822  26.083  0.00  0.00    +0.138 C 
BRANCH  12   7
ATOM      3  O   UNL     1      -1.127   1.033  23.322  0.00  0.00    -0.270 OA
ATOM      7  N   UNL     1       0.027   1.516  25.276  0.00  0.00    -0.309 N 
ATOM     15  C   UNL     1      -0.072   1.141  23.940  0.00  0.00    +0.244 C 
ATOM     30  H   UNL     1       0.925   1.505  25.747  0.00  0.00    +0.149 HD
BRANCH  15  18
ATOM     18  C   UNL     1       1.207   0.831  23.250  0.00  0.00    +0.037 A 
ATOM     22  C   UNL     1       1.230  -0.089  22.201  0.00  0.00    +0.013 A 
ATOM     23  C   UNL     1       2.385   1.462  23.649  0.00  0.00    +0.013 A 
ATOM     25  C   UNL     1       2.430  -0.377  21.552  0.00  0.00    +0.001 A 
ATOM     26  C   UNL     1       3.585   1.174  23.001  0.00  0.00    +0.001 A 
ATOM     27  C   UNL     1       3.608   0.254  21.951  0.00  0.00    +0.000 A 
ENDBRANCH  15  18
ENDBRANCH  12   7
ENDBRANCH  10  12
TORSDOF 9
ENDMDL
