MODEL 1
REMARK VINA RESULT:      -1.7      0.000      0.000
REMARK  Name = 25389016
REMARK  8 active torsions:
REMARK  status: ('A' for Active; 'I' for Inactive)
REMARK    1  A    between atoms: O_3  and  C_22
REMARK    2  A    between atoms: O_3  and  C_28
REMARK    3  A    between atoms: N_5  and  C_19
REMARK    4  A    between atoms: N_6  and  C_16
REMARK    5  A    between atoms: C_9  and  C_15
REMARK    6  A    between atoms: C_10  and  C_16
REMARK    7  A    between atoms: C_18  and  C_21
REMARK    8  A    between atoms: C_20  and  C_22
REMARK                            x       y       z     vdW  Elec       q    Type
REMARK                         _______ _______ _______ _____ _____    ______ ____
ROOT
ATOM      4  N   UNL     1      -5.338   2.517  26.331  0.00  0.00    -0.297 NA
ATOM      8  C   UNL     1      -5.011   1.765  23.859  0.00  0.00    +0.002 C 
ATOM      9  C   UNL     1      -4.306   0.774  24.827  0.00  0.00    +0.055 C 
ATOM     10  C   UNL     1      -4.857   3.660  25.511  0.00  0.00    +0.074 C 
ATOM     11  C   UNL     1      -4.461   3.187  24.096  0.00  0.00    +0.024 C 
ATOM     12  C   UNL     1      -6.504   1.784  24.251  0.00  0.00    +0.019 C 
ATOM     13  C   UNL     1      -4.372   1.393  26.252  0.00  0.00    +0.094 C 
ATOM     14  C   UNL     1      -6.628   2.060  25.760  0.00  0.00    +0.085 C 
ENDROOT
BRANCH   9  15
ATOM      5  N   UNL     1      -2.478  -0.981  24.699  0.00  0.00    -0.270 N 
ATOM      7  N   UNL     1      -1.210  -1.204  24.314  0.00  0.00    -0.171 NA
ATOM     15  C   UNL     1      -2.907   0.293  24.470  0.00  0.00    +0.044 A 
ATOM     17  C   UNL     1      -1.846   0.949  23.895  0.00  0.00    +0.053 A 
ATOM     18  C   UNL     1      -0.830  -0.022  23.823  0.00  0.00    +0.093 A 
ATOM     19  C   UNL     1      -3.234  -2.058  25.296  0.00  0.00    +0.172 C 
BRANCH  18  21
ATOM      1  F   UNL     1       4.305   0.677  21.782  0.00  0.00    -0.205 F 
ATOM     21  C   UNL     1       0.498   0.158  23.295  0.00  0.00    +0.002 A 
ATOM     23  C   UNL     1       0.919  -0.588  22.194  0.00  0.00    +0.013 A 
ATOM     24  C   UNL     1       1.364   1.079  23.885  0.00  0.00    +0.013 A 
ATOM     25  C   UNL     1       2.204  -0.412  21.683  0.00  0.00    +0.039 A 
ATOM     26  C   UNL     1       2.649   1.255  23.373  0.00  0.00    +0.039 A 
ATOM     27  C   UNL     1       3.069   0.509  22.273  0.00  0.00    +0.123 A 
ENDBRANCH  18  21
ENDBRANCH   9  15
BRANCH  10  16
ATOM     16  C   UNL     1      -3.724   4.431  26.193  0.00  0.00    +0.123 C 
BRANCH  16   6
ATOM      2  O   UNL     1      -1.301   5.519  25.050  0.00  0.00    -0.273 OA
ATOM      6  N   UNL     1      -2.474   3.759  26.022  0.00  0.00    -0.312 N 
ATOM     20  C   UNL     1      -1.350   4.362  25.459  0.00  0.00    +0.239 C 
ATOM     29  H   UNL     1      -2.408   2.792  26.326  0.00  0.00    +0.149 HD
BRANCH  20  22
ATOM     22  C   UNL     1      -0.165   3.422  25.400  0.00  0.00    +0.255 C 
BRANCH  22   3
ATOM      3  O   UNL     1      -0.279   2.413  26.381  0.00  0.00    -0.374 OA
ATOM     28  C   UNL     1       0.704   2.552  27.402  0.00  0.00    +0.194 C 
ENDBRANCH  22   3
ENDBRANCH  20  22
ENDBRANCH  16   6
ENDBRANCH  10  16
TORSDOF 6
ENDMDL
MODEL 2
REMARK VINA RESULT:      -1.2      2.535      3.987
REMARK  Name = 25389016
REMARK  8 active torsions:
REMARK  status: ('A' for Active; 'I' for Inactive)
REMARK    1  A    between atoms: O_3  and  C_22
REMARK    2  A    between atoms: O_3  and  C_28
REMARK    3  A    between atoms: N_5  and  C_19
REMARK    4  A    between atoms: N_6  and  C_16
REMARK    5  A    between atoms: C_9  and  C_15
REMARK    6  A    between atoms: C_10  and  C_16
REMARK    7  A    between atoms: C_18  and  C_21
REMARK    8  A    between atoms: C_20  and  C_22
REMARK                            x       y       z     vdW  Elec       q    Type
REMARK                         _______ _______ _______ _____ _____    ______ ____
ROOT
ATOM      4  N   UNL     1      -4.220   3.052  24.141  0.00  0.00    -0.297 NA
ATOM      8  C   UNL     1      -2.085   3.126  25.630  0.00  0.00    +0.002 C 
ATOM      9  C   UNL     1      -1.697   3.015  24.130  0.00  0.00    +0.055 C 
ATOM     10  C   UNL     1      -4.334   2.060  25.242  0.00  0.00    +0.074 C 
ATOM     11  C   UNL     1      -2.999   1.942  26.009  0.00  0.00    +0.024 C 
ATOM     12  C   UNL     1      -2.924   4.413  25.780  0.00  0.00    +0.019 C 
ATOM     13  C   UNL     1      -3.009   2.773  23.329  0.00  0.00    +0.094 C 
ATOM     14  C   UNL     1      -4.069   4.394  24.753  0.00  0.00    +0.085 C 
ENDROOT
BRANCH   9  15
ATOM      5  N   UNL     1      -0.826   0.909  23.016  0.00  0.00    -0.270 N 
ATOM      7  N   UNL     1       0.279   0.181  22.780  0.00  0.00    -0.171 NA
ATOM     15  C   UNL     1      -0.596   2.040  23.742  0.00  0.00    +0.044 A 
ATOM     17  C   UNL     1       0.754   2.053  23.998  0.00  0.00    +0.053 A 
ATOM     18  C   UNL     1       1.240   0.885  23.382  0.00  0.00    +0.093 A 
ATOM     19  C   UNL     1      -2.097   0.447  22.507  0.00  0.00    +0.172 C 
BRANCH  18  21
ATOM      1  F   UNL     1       6.522  -0.878  23.293  0.00  0.00    -0.205 F 
ATOM     21  C   UNL     1       2.606   0.429  23.359  0.00  0.00    +0.002 A 
ATOM     23  C   UNL     1       3.630   1.309  23.006  0.00  0.00    +0.013 A 
ATOM     24  C   UNL     1       2.906  -0.892  23.689  0.00  0.00    +0.013 A 
ATOM     25  C   UNL     1       4.952   0.868  22.984  0.00  0.00    +0.039 A 
ATOM     26  C   UNL     1       4.229  -1.334  23.667  0.00  0.00    +0.039 A 
ATOM     27  C   UNL     1       5.252  -0.454  23.315  0.00  0.00    +0.123 A 
ENDBRANCH  18  21
ENDBRANCH   9  15
BRANCH  10  16
ATOM     16  C   UNL     1      -4.831   0.698  24.751  0.00  0.00    +0.123 C 
BRANCH  16   6
ATOM      2  O   UNL     1      -4.570  -1.950  23.618  0.00  0.00    -0.273 OA
ATOM      6  N   UNL     1      -3.972  -0.353  25.201  0.00  0.00    -0.312 N 
ATOM     20  C   UNL     1      -3.909  -1.605  24.594  0.00  0.00    +0.239 C 
ATOM     29  H   UNL     1      -3.382  -0.171  26.009  0.00  0.00    +0.149 HD
BRANCH  20  22
ATOM     22  C   UNL     1      -2.916  -2.523  25.275  0.00  0.00    +0.255 C 
BRANCH  22   3
ATOM      3  O   UNL     1      -1.648  -2.427  24.665  0.00  0.00    -0.374 OA
ATOM     28  C   UNL     1      -0.747  -1.636  25.434  0.00  0.00    +0.194 C 
ENDBRANCH  22   3
ENDBRANCH  20  22
ENDBRANCH  16   6
ENDBRANCH  10  16
TORSDOF 6
ENDMDL
MODEL 3
REMARK VINA RESULT:       0.4      1.799      2.885
REMARK  Name = 25389016
REMARK  8 active torsions:
REMARK  status: ('A' for Active; 'I' for Inactive)
REMARK    1  A    between atoms: O_3  and  C_22
REMARK    2  A    between atoms: O_3  and  C_28
REMARK    3  A    between atoms: N_5  and  C_19
REMARK    4  A    between atoms: N_6  and  C_16
REMARK    5  A    between atoms: C_9  and  C_15
REMARK    6  A    between atoms: C_10  and  C_16
REMARK    7  A    between atoms: C_18  and  C_21
REMARK    8  A    between atoms: C_20  and  C_22
REMARK                            x       y       z     vdW  Elec       q    Type
REMARK                         _______ _______ _______ _____ _____    ______ ____
ROOT
ATOM      4  N   UNL     1      -3.910  -0.452  25.858  0.00  0.00    -0.297 NA
ATOM      8  C   UNL     1      -3.230  -1.074  23.423  0.00  0.00    +0.002 C 
ATOM      9  C   UNL     1      -2.008  -1.194  24.376  0.00  0.00    +0.055 C 
ATOM     10  C   UNL     1      -4.370   0.602  24.918  0.00  0.00    +0.074 C 
ATOM     11  C   UNL     1      -3.800   0.358  23.504  0.00  0.00    +0.024 C 
ATOM     12  C   UNL     1      -4.315  -2.027  23.967  0.00  0.00    +0.019 C 
ATOM     13  C   UNL     1      -2.438  -0.618  25.755  0.00  0.00    +0.094 C 
ATOM     14  C   UNL     1      -4.549  -1.728  25.459  0.00  0.00    +0.085 C 
ENDROOT
BRANCH   9  15
ATOM      5  N   UNL     1      -0.566   0.459  23.102  0.00  0.00    -0.270 N 
ATOM      7  N   UNL     1       0.701   0.791  22.802  0.00  0.00    -0.171 NA
ATOM     15  C   UNL     1      -0.673  -0.635  23.908  0.00  0.00    +0.044 A 
ATOM     17  C   UNL     1       0.615  -1.049  24.150  0.00  0.00    +0.053 A 
ATOM     18  C   UNL     1       1.417  -0.133  23.445  0.00  0.00    +0.093 A 
ATOM     19  C   UNL     1      -1.649   1.253  22.568  0.00  0.00    +0.172 C 
BRANCH  18  21
ATOM      1  F   UNL     1       6.979  -0.108  23.166  0.00  0.00    -0.205 F 
ATOM     21  C   UNL     1       2.856  -0.127  23.373  0.00  0.00    +0.002 A 
ATOM     23  C   UNL     1       3.582  -1.231  23.820  0.00  0.00    +0.013 A 
ATOM     24  C   UNL     1       3.523   0.984  22.856  0.00  0.00    +0.013 A 
ATOM     25  C   UNL     1       4.974  -1.225  23.750  0.00  0.00    +0.039 A 
ATOM     26  C   UNL     1       4.916   0.990  22.786  0.00  0.00    +0.039 A 
ATOM     27  C   UNL     1       5.642  -0.114  23.233  0.00  0.00    +0.123 A 
ENDBRANCH  18  21
ENDBRANCH   9  15
BRANCH  10  16
ATOM     16  C   UNL     1      -4.057   2.013  25.423  0.00  0.00    +0.123 C 
BRANCH  16   6
ATOM      2  O   UNL     1      -2.640   4.399  26.238  0.00  0.00    -0.273 OA
ATOM      6  N   UNL     1      -2.754   2.427  25.006  0.00  0.00    -0.312 N 
ATOM     20  C   UNL     1      -2.142   3.598  25.450  0.00  0.00    +0.239 C 
ATOM     29  H   UNL     1      -2.254   1.835  24.349  0.00  0.00    +0.149 HD
BRANCH  20  22
ATOM     22  C   UNL     1      -0.767   3.790  24.848  0.00  0.00    +0.255 C 
BRANCH  22   3
ATOM      3  O   UNL     1       0.094   2.737  25.226  0.00  0.00    -0.374 OA
ATOM     28  C   UNL     1       0.098   2.535  26.636  0.00  0.00    +0.194 C 
ENDBRANCH  22   3
ENDBRANCH  20  22
ENDBRANCH  16   6
ENDBRANCH  10  16
TORSDOF 6
ENDMDL
MODEL 4
REMARK VINA RESULT:       0.4      2.125      4.090
REMARK  Name = 25389016
REMARK  8 active torsions:
REMARK  status: ('A' for Active; 'I' for Inactive)
REMARK    1  A    between atoms: O_3  and  C_22
REMARK    2  A    between atoms: O_3  and  C_28
REMARK    3  A    between atoms: N_5  and  C_19
REMARK    4  A    between atoms: N_6  and  C_16
REMARK    5  A    between atoms: C_9  and  C_15
REMARK    6  A    between atoms: C_10  and  C_16
REMARK    7  A    between atoms: C_18  and  C_21
REMARK    8  A    between atoms: C_20  and  C_22
REMARK                            x       y       z     vdW  Elec       q    Type
REMARK                         _______ _______ _______ _____ _____    ______ ____
ROOT
ATOM      4  N   UNL     1      -5.457   1.827  24.037  0.00  0.00    -0.297 NA
ATOM      8  C   UNL     1      -3.868   2.480  25.994  0.00  0.00    +0.002 C 
ATOM      9  C   UNL     1      -3.306   2.998  24.641  0.00  0.00    +0.055 C 
ATOM     10  C   UNL     1      -5.164   0.634  24.874  0.00  0.00    +0.074 C 
ATOM     11  C   UNL     1      -4.066   0.952  25.911  0.00  0.00    +0.024 C 
ATOM     12  C   UNL     1      -5.266   3.111  26.167  0.00  0.00    +0.019 C 
ATOM     13  C   UNL     1      -4.193   2.401  23.511  0.00  0.00    +0.094 C 
ATOM     14  C   UNL     1      -6.102   2.842  24.904  0.00  0.00    +0.085 C 
ENDROOT
BRANCH   9  15
ATOM      5  N   UNL     1      -0.904   3.810  24.557  0.00  0.00    -0.270 N 
ATOM      7  N   UNL     1       0.355   3.452  24.252  0.00  0.00    -0.171 NA
ATOM     15  C   UNL     1      -1.820   2.820  24.363  0.00  0.00    +0.044 A 
ATOM     17  C   UNL     1      -1.112   1.739  23.897  0.00  0.00    +0.053 A 
ATOM     18  C   UNL     1       0.221   2.186  23.850  0.00  0.00    +0.093 A 
ATOM     19  C   UNL     1      -1.159   5.149  25.037  0.00  0.00    +0.172 C 
BRANCH  18  21
ATOM      1  F   UNL     1       4.661  -0.750  22.211  0.00  0.00    -0.205 F 
ATOM     21  C   UNL     1       1.369   1.427  23.426  0.00  0.00    +0.002 A 
ATOM     23  C   UNL     1       2.626   2.032  23.374  0.00  0.00    +0.013 A 
ATOM     24  C   UNL     1       1.226   0.087  23.067  0.00  0.00    +0.013 A 
ATOM     25  C   UNL     1       3.737   1.297  22.965  0.00  0.00    +0.039 A 
ATOM     26  C   UNL     1       2.338  -0.648  22.657  0.00  0.00    +0.039 A 
ATOM     27  C   UNL     1       3.594  -0.043  22.606  0.00  0.00    +0.123 A 
ENDBRANCH  18  21
ENDBRANCH   9  15
BRANCH  10  16
ATOM     16  C   UNL     1      -4.816  -0.597  24.034  0.00  0.00    +0.123 C 
BRANCH  16   6
ATOM      2  O   UNL     1      -3.904  -3.330  24.295  0.00  0.00    -0.273 OA
ATOM      6  N   UNL     1      -3.484  -1.040  24.304  0.00  0.00    -0.312 N 
ATOM     20  C   UNL     1      -3.129  -2.384  24.415  0.00  0.00    +0.239 C 
ATOM     29  H   UNL     1      -2.763  -0.334  24.424  0.00  0.00    +0.149 HD
BRANCH  20  22
ATOM     22  C   UNL     1      -1.655  -2.565  24.704  0.00  0.00    +0.255 C 
BRANCH  22   3
ATOM      3  O   UNL     1      -1.016  -1.315  24.846  0.00  0.00    -0.374 OA
ATOM     28  C   UNL     1      -0.900  -0.930  26.212  0.00  0.00    +0.194 C 
ENDBRANCH  22   3
ENDBRANCH  20  22
ENDBRANCH  16   6
ENDBRANCH  10  16
TORSDOF 6
ENDMDL
