MODEL 1
REMARK VINA RESULT:      -4.8      0.000      0.000
REMARK  Name = 71693989
REMARK  8 active torsions:
REMARK  status: ('A' for Active; 'I' for Inactive)
REMARK    1  A    between atoms: O_4  and  C_12
REMARK    2  A    between atoms: O_5  and  C_14
REMARK    3  A    between atoms: O_7  and  C_20
REMARK    4  A    between atoms: O_7  and  C_23
REMARK    5  A    between atoms: N_8  and  C_11
REMARK    6  A    between atoms: C_10  and  C_15
REMARK    7  A    between atoms: C_18  and  C_20
REMARK    8  A    between atoms: C_21  and  C_22
REMARK                            x       y       z     vdW  Elec       q    Type
REMARK                         _______ _______ _______ _____ _____    ______ ____
ROOT
ATOM     10  C   UNL     1      -1.740   2.464  25.427  0.00  0.00    +0.046 C 
ATOM     11  C   UNL     1      -2.888   2.993  24.537  0.00  0.00    +0.111 C 
ATOM     12  C   UNL     1      -3.371   4.237  25.281  0.00  0.00    +0.164 C 
ATOM     13  C   UNL     1      -1.246   3.682  26.249  0.00  0.00    +0.044 C 
ATOM     14  C   UNL     1      -2.074   4.873  25.768  0.00  0.00    +0.145 C 
ENDROOT
BRANCH  10  15
ATOM      9  N   UNL     1       1.564   1.818  23.680  0.00  0.00    -0.251 NA
ATOM     15  C   UNL     1      -0.655   1.763  24.638  0.00  0.00    -0.024 A 
ATOM     16  C   UNL     1      -0.841   0.474  24.149  0.00  0.00    +0.007 A 
ATOM     17  C   UNL     1       0.556   2.386  24.378  0.00  0.00    +0.115 A 
ATOM     19  C   UNL     1       0.173  -0.144  23.427  0.00  0.00    +0.032 A 
ATOM     21  C   UNL     1       1.347   0.564  23.221  0.00  0.00    +0.144 A 
BRANCH  21  22
ATOM      1  F   UNL     1       2.996  -1.160  23.065  0.00  0.00    -0.164 F 
ATOM      2  F   UNL     1       3.511   0.771  22.224  0.00  0.00    -0.164 F 
ATOM      3  F   UNL     1       2.060  -0.498  21.218  0.00  0.00    -0.164 F 
ATOM     22  C   UNL     1       2.457  -0.067  22.450  0.00  0.00    +0.434 C 
ENDBRANCH  21  22
ENDBRANCH  10  15
BRANCH  11   8
ATOM      6  O   UNL     1      -5.318   2.772  26.092  0.00  0.00    -0.272 OA
ATOM      8  N   UNL     1      -3.939   2.020  24.376  0.00  0.00    -0.307 N 
ATOM     18  C   UNL     1      -5.074   1.992  25.175  0.00  0.00    +0.251 C 
ATOM     29  H   UNL     1      -3.864   1.357  23.609  0.00  0.00    +0.149 HD
BRANCH  18  20
ATOM     20  C   UNL     1      -6.009   0.868  24.786  0.00  0.00    +0.324 C 
BRANCH  20   7
ATOM      7  O   UNL     1      -5.376  -0.019  23.889  0.00  0.00    -0.483 OA
BRANCH   7  23
ATOM     23  C   UNL     1      -4.496  -0.931  24.424  0.00  0.00    +0.121 A 
ATOM     24  C   UNL     1      -3.898  -0.681  25.659  0.00  0.00    +0.045 A 
ATOM     25  C   UNL     1      -4.202  -2.106  23.732  0.00  0.00    +0.045 A 
ATOM     26  C   UNL     1      -3.006  -1.605  26.202  0.00  0.00    +0.004 A 
ATOM     27  C   UNL     1      -3.310  -3.030  24.274  0.00  0.00    +0.004 A 
ATOM     28  C   UNL     1      -2.712  -2.780  25.510  0.00  0.00    +0.000 A 
ENDBRANCH   7  23
ENDBRANCH  20   7
ENDBRANCH  18  20
ENDBRANCH  11   8
BRANCH  12   4
ATOM      4  O   UNL     1      -4.089   5.120  24.441  0.00  0.00    -0.387 OA
ATOM     30  H   UNL     1      -3.706   6.006  24.554  0.00  0.00    +0.210 HD
ENDBRANCH  12   4
BRANCH  14   5
ATOM      5  O   UNL     1      -1.382   5.507  24.697  0.00  0.00    -0.389 OA
ATOM     31  H   UNL     1      -1.421   6.466  24.852  0.00  0.00    +0.210 HD
ENDBRANCH  14   5
TORSDOF 8
ENDMDL
MODEL 2
REMARK VINA RESULT:      -3.7      2.348      4.936
REMARK  Name = 71693989
REMARK  8 active torsions:
REMARK  status: ('A' for Active; 'I' for Inactive)
REMARK    1  A    between atoms: O_4  and  C_12
REMARK    2  A    between atoms: O_5  and  C_14
REMARK    3  A    between atoms: O_7  and  C_20
REMARK    4  A    between atoms: O_7  and  C_23
REMARK    5  A    between atoms: N_8  and  C_11
REMARK    6  A    between atoms: C_10  and  C_15
REMARK    7  A    between atoms: C_18  and  C_20
REMARK    8  A    between atoms: C_21  and  C_22
REMARK                            x       y       z     vdW  Elec       q    Type
REMARK                         _______ _______ _______ _____ _____    ______ ____
ROOT
ATOM     10  C   UNL     1       0.122  -0.016  23.230  0.00  0.00    +0.046 C 
ATOM     11  C   UNL     1      -0.522   0.610  24.488  0.00  0.00    +0.111 C 
ATOM     12  C   UNL     1      -1.827  -0.169  24.645  0.00  0.00    +0.164 C 
ATOM     13  C   UNL     1      -0.496  -1.432  23.098  0.00  0.00    +0.044 C 
ATOM     14  C   UNL     1      -1.420  -1.597  24.304  0.00  0.00    +0.145 C 
ENDROOT
BRANCH  10  15
ATOM      9  N   UNL     1       3.704  -1.180  23.677  0.00  0.00    -0.251 NA
ATOM     15  C   UNL     1       1.635   0.002  23.269  0.00  0.00    -0.024 A 
ATOM     16  C   UNL     1       2.347   1.155  22.954  0.00  0.00    +0.007 A 
ATOM     17  C   UNL     1       2.355  -1.129  23.621  0.00  0.00    +0.115 A 
ATOM     19  C   UNL     1       3.737   1.141  23.000  0.00  0.00    +0.032 A 
ATOM     21  C   UNL     1       4.363  -0.040  23.363  0.00  0.00    +0.144 A 
BRANCH  21  22
ATOM      1  F   UNL     1       6.428   1.107  23.732  0.00  0.00    -0.164 F 
ATOM      2  F   UNL     1       6.434  -0.476  22.250  0.00  0.00    -0.164 F 
ATOM      3  F   UNL     1       6.308  -0.970  24.364  0.00  0.00    -0.164 F 
ATOM     22  C   UNL     1       5.853  -0.092  23.424  0.00  0.00    +0.434 C 
ENDBRANCH  21  22
ENDBRANCH  10  15
BRANCH  11   8
ATOM      6  O   UNL     1      -0.170   2.673  26.485  0.00  0.00    -0.272 OA
ATOM      8  N   UNL     1      -0.755   2.023  24.330  0.00  0.00    -0.307 N 
ATOM     18  C   UNL     1      -0.557   2.942  25.352  0.00  0.00    +0.251 C 
ATOM     29  H   UNL     1      -1.027   2.364  23.412  0.00  0.00    +0.149 HD
BRANCH  18  20
ATOM     20  C   UNL     1      -0.877   4.354  24.909  0.00  0.00    +0.324 C 
BRANCH  20   7
ATOM      7  O   UNL     1      -2.130   4.763  25.415  0.00  0.00    -0.483 OA
BRANCH   7  23
ATOM     23  C   UNL     1      -3.201   3.932  25.185  0.00  0.00    +0.121 A 
ATOM     24  C   UNL     1      -3.378   3.352  23.929  0.00  0.00    +0.045 A 
ATOM     25  C   UNL     1      -4.111   3.668  26.209  0.00  0.00    +0.045 A 
ATOM     26  C   UNL     1      -4.464   2.510  23.695  0.00  0.00    +0.004 A 
ATOM     27  C   UNL     1      -5.199   2.826  25.976  0.00  0.00    +0.004 A 
ATOM     28  C   UNL     1      -5.375   2.247  24.719  0.00  0.00    +0.000 A 
ENDBRANCH   7  23
ENDBRANCH  20   7
ENDBRANCH  18  20
ENDBRANCH  11   8
BRANCH  12   4
ATOM      4  O   UNL     1      -2.348  -0.086  25.958  0.00  0.00    -0.387 OA
ATOM     30  H   UNL     1      -2.739   0.799  26.060  0.00  0.00    +0.210 HD
ENDBRANCH  12   4
BRANCH  14   5
ATOM      5  O   UNL     1      -0.679  -2.186  25.368  0.00  0.00    -0.389 OA
ATOM     31  H   UNL     1      -0.509  -1.490  26.025  0.00  0.00    +0.210 HD
ENDBRANCH  14   5
TORSDOF 8
ENDMDL
MODEL 3
REMARK VINA RESULT:      -3.3      3.317      6.091
REMARK  Name = 71693989
REMARK  8 active torsions:
REMARK  status: ('A' for Active; 'I' for Inactive)
REMARK    1  A    between atoms: O_4  and  C_12
REMARK    2  A    between atoms: O_5  and  C_14
REMARK    3  A    between atoms: O_7  and  C_20
REMARK    4  A    between atoms: O_7  and  C_23
REMARK    5  A    between atoms: N_8  and  C_11
REMARK    6  A    between atoms: C_10  and  C_15
REMARK    7  A    between atoms: C_18  and  C_20
REMARK    8  A    between atoms: C_21  and  C_22
REMARK                            x       y       z     vdW  Elec       q    Type
REMARK                         _______ _______ _______ _____ _____    ______ ____
ROOT
ATOM     10  C   UNL     1      -2.857   2.435  23.553  0.00  0.00    +0.046 C 
ATOM     11  C   UNL     1      -1.760   3.031  24.465  0.00  0.00    +0.111 C 
ATOM     12  C   UNL     1      -2.200   4.482  24.651  0.00  0.00    +0.164 C 
ATOM     13  C   UNL     1      -4.106   3.333  23.753  0.00  0.00    +0.044 C 
ATOM     14  C   UNL     1      -3.712   4.367  24.806  0.00  0.00    +0.145 C 
ENDROOT
BRANCH  10  15
ATOM      9  N   UNL     1      -2.248  -1.299  23.809  0.00  0.00    -0.251 NA
ATOM     15  C   UNL     1      -3.101   0.963  23.805  0.00  0.00    -0.024 A 
ATOM     16  C   UNL     1      -4.338   0.505  24.244  0.00  0.00    +0.007 A 
ATOM     17  C   UNL     1      -2.097   0.028  23.604  0.00  0.00    +0.115 A 
ATOM     19  C   UNL     1      -4.532  -0.854  24.466  0.00  0.00    +0.032 A 
ATOM     21  C   UNL     1      -3.465  -1.708  24.237  0.00  0.00    +0.144 A 
BRANCH  21  22
ATOM      1  F   UNL     1      -2.657  -3.931  23.890  0.00  0.00    -0.164 F 
ATOM      2  F   UNL     1      -4.808  -3.669  23.972  0.00  0.00    -0.164 F 
ATOM      3  F   UNL     1      -3.625  -3.501  25.788  0.00  0.00    -0.164 F 
ATOM     22  C   UNL     1      -3.636  -3.172  24.464  0.00  0.00    +0.434 C 
ENDBRANCH  21  22
ENDBRANCH  10  15
BRANCH  11   8
ATOM      6  O   UNL     1       0.262   1.030  24.990  0.00  0.00    -0.272 OA
ATOM      8  N   UNL     1      -0.452   2.938  23.868  0.00  0.00    -0.307 N 
ATOM     18  C   UNL     1       0.456   1.936  24.185  0.00  0.00    +0.251 C 
ATOM     29  H   UNL     1      -0.206   3.610  23.145  0.00  0.00    +0.149 HD
BRANCH  18  20
ATOM     20  C   UNL     1       1.747   2.080  23.410  0.00  0.00    +0.324 C 
BRANCH  20   7
ATOM      7  O   UNL     1       2.083   0.867  22.770  0.00  0.00    -0.483 OA
BRANCH   7  23
ATOM     23  C   UNL     1       3.270   0.275  23.131  0.00  0.00    +0.121 A 
ATOM     24  C   UNL     1       3.290  -1.060  23.534  0.00  0.00    +0.045 A 
ATOM     25  C   UNL     1       4.456   1.009  23.094  0.00  0.00    +0.045 A 
ATOM     26  C   UNL     1       4.494  -1.661  23.900  0.00  0.00    +0.004 A 
ATOM     27  C   UNL     1       5.660   0.409  23.460  0.00  0.00    +0.004 A 
ATOM     28  C   UNL     1       5.679  -0.926  23.863  0.00  0.00    +0.000 A 
ENDBRANCH   7  23
ENDBRANCH  20   7
ENDBRANCH  18  20
ENDBRANCH  11   8
BRANCH  12   4
ATOM      4  O   UNL     1      -1.613   5.080  25.791  0.00  0.00    -0.387 OA
ATOM     30  H   UNL     1      -2.136   5.870  26.007  0.00  0.00    +0.210 HD
ENDBRANCH  12   4
BRANCH  14   5
ATOM      5  O   UNL     1      -4.057   3.863  26.093  0.00  0.00    -0.389 OA
ATOM     31  H   UNL     1      -5.019   3.950  26.192  0.00  0.00    +0.210 HD
ENDBRANCH  14   5
TORSDOF 8
ENDMDL
MODEL 4
REMARK VINA RESULT:      -2.9      2.685      5.048
REMARK  Name = 71693989
REMARK  8 active torsions:
REMARK  status: ('A' for Active; 'I' for Inactive)
REMARK    1  A    between atoms: O_4  and  C_12
REMARK    2  A    between atoms: O_5  and  C_14
REMARK    3  A    between atoms: O_7  and  C_20
REMARK    4  A    between atoms: O_7  and  C_23
REMARK    5  A    between atoms: N_8  and  C_11
REMARK    6  A    between atoms: C_10  and  C_15
REMARK    7  A    between atoms: C_18  and  C_20
REMARK    8  A    between atoms: C_21  and  C_22
REMARK                            x       y       z     vdW  Elec       q    Type
REMARK                         _______ _______ _______ _____ _____    ______ ____
ROOT
ATOM     10  C   UNL     1      -4.901   1.976  24.304  0.00  0.00    +0.046 C 
ATOM     11  C   UNL     1      -4.257   3.030  25.235  0.00  0.00    +0.111 C 
ATOM     12  C   UNL     1      -5.402   4.000  25.519  0.00  0.00    +0.164 C 
ATOM     13  C   UNL     1      -6.425   2.043  24.580  0.00  0.00    +0.044 C 
ATOM     14  C   UNL     1      -6.602   3.078  25.691  0.00  0.00    +0.145 C 
ENDROOT
BRANCH  10  15
ATOM      9  N   UNL     1      -3.384  -1.391  23.436  0.00  0.00    -0.251 NA
ATOM     15  C   UNL     1      -4.298   0.597  24.466  0.00  0.00    -0.024 A 
ATOM     16  C   UNL     1      -4.101   0.043  25.726  0.00  0.00    +0.007 A 
ATOM     17  C   UNL     1      -3.926  -0.155  23.362  0.00  0.00    +0.115 A 
ATOM     19  C   UNL     1      -3.545  -1.226  25.843  0.00  0.00    +0.032 A 
ATOM     21  C   UNL     1      -3.207  -1.896  24.678  0.00  0.00    +0.144 A 
BRANCH  21  22
ATOM      1  F   UNL     1      -1.277  -3.254  25.061  0.00  0.00    -0.164 F 
ATOM      2  F   UNL     1      -2.715  -3.978  23.609  0.00  0.00    -0.164 F 
ATOM      3  F   UNL     1      -3.195  -4.028  25.728  0.00  0.00    -0.164 F 
ATOM     22  C   UNL     1      -2.609  -3.260  24.765  0.00  0.00    +0.434 C 
ENDBRANCH  21  22
ENDBRANCH  10  15
BRANCH  11   8
ATOM      6  O   UNL     1      -2.358   4.813  26.492  0.00  0.00    -0.272 OA
ATOM      8  N   UNL     1      -3.136   3.687  24.612  0.00  0.00    -0.307 N 
ATOM     18  C   UNL     1      -2.274   4.531  25.300  0.00  0.00    +0.251 C 
ATOM     29  H   UNL     1      -2.942   3.481  23.635  0.00  0.00    +0.149 HD
BRANCH  18  20
ATOM     20  C   UNL     1      -1.188   5.081  24.402  0.00  0.00    +0.324 C 
BRANCH  20   7
ATOM      7  O   UNL     1      -0.017   4.299  24.499  0.00  0.00    -0.483 OA
BRANCH   7  23
ATOM     23  C   UNL     1      -0.179   2.939  24.625  0.00  0.00    +0.121 A 
ATOM     24  C   UNL     1      -0.275   2.362  25.892  0.00  0.00    +0.045 A 
ATOM     25  C   UNL     1      -0.249   2.136  23.487  0.00  0.00    +0.045 A 
ATOM     26  C   UNL     1      -0.439   0.983  26.020  0.00  0.00    +0.004 A 
ATOM     27  C   UNL     1      -0.413   0.757  23.614  0.00  0.00    +0.004 A 
ATOM     28  C   UNL     1      -0.509   0.181  24.881  0.00  0.00    +0.000 A 
ENDBRANCH   7  23
ENDBRANCH  20   7
ENDBRANCH  18  20
ENDBRANCH  11   8
BRANCH  12   4
ATOM      4  O   UNL     1      -5.177   4.769  26.685  0.00  0.00    -0.387 OA
ATOM     30  H   UNL     1      -5.634   4.325  27.419  0.00  0.00    +0.210 HD
ENDBRANCH  12   4
BRANCH  14   5
ATOM      5  O   UNL     1      -6.558   2.410  26.948  0.00  0.00    -0.389 OA
ATOM     31  H   UNL     1      -6.039   2.964  27.555  0.00  0.00    +0.210 HD
ENDBRANCH  14   5
TORSDOF 8
ENDMDL
MODEL 5
REMARK VINA RESULT:      -2.4      2.859      5.122
REMARK  Name = 71693989
REMARK  8 active torsions:
REMARK  status: ('A' for Active; 'I' for Inactive)
REMARK    1  A    between atoms: O_4  and  C_12
REMARK    2  A    between atoms: O_5  and  C_14
REMARK    3  A    between atoms: O_7  and  C_20
REMARK    4  A    between atoms: O_7  and  C_23
REMARK    5  A    between atoms: N_8  and  C_11
REMARK    6  A    between atoms: C_10  and  C_15
REMARK    7  A    between atoms: C_18  and  C_20
REMARK    8  A    between atoms: C_21  and  C_22
REMARK                            x       y       z     vdW  Elec       q    Type
REMARK                         _______ _______ _______ _____ _____    ______ ____
ROOT
ATOM     10  C   UNL     1      -4.170   2.343  24.447  0.00  0.00    +0.046 C 
ATOM     11  C   UNL     1      -3.521   3.006  25.684  0.00  0.00    +0.111 C 
ATOM     12  C   UNL     1      -4.425   4.205  25.961  0.00  0.00    +0.164 C 
ATOM     13  C   UNL     1      -5.651   2.799  24.452  0.00  0.00    +0.044 C 
ATOM     14  C   UNL     1      -5.822   3.650  25.710  0.00  0.00    +0.145 C 
ENDROOT
BRANCH  10  15
ATOM      9  N   UNL     1      -3.896  -1.257  25.610  0.00  0.00    -0.251 NA
ATOM     15  C   UNL     1      -3.979   0.841  24.412  0.00  0.00    -0.024 A 
ATOM     16  C   UNL     1      -3.720   0.178  23.218  0.00  0.00    +0.007 A 
ATOM     17  C   UNL     1      -4.056   0.085  25.571  0.00  0.00    +0.115 A 
ATOM     19  C   UNL     1      -3.549  -1.201  23.218  0.00  0.00    +0.032 A 
ATOM     21  C   UNL     1      -3.646  -1.867  24.429  0.00  0.00    +0.144 A 
BRANCH  21  22
ATOM      1  F   UNL     1      -4.438  -4.032  23.794  0.00  0.00    -0.164 F 
ATOM      2  F   UNL     1      -3.476  -3.867  25.730  0.00  0.00    -0.164 F 
ATOM      3  F   UNL     1      -2.287  -3.748  23.914  0.00  0.00    -0.164 F 
ATOM     22  C   UNL     1      -3.468  -3.348  24.468  0.00  0.00    +0.434 C 
ENDBRANCH  21  22
ENDBRANCH  10  15
BRANCH  11   8
ATOM      6  O   UNL     1      -2.198   3.177  23.117  0.00  0.00    -0.272 OA
ATOM      8  N   UNL     1      -2.159   3.404  25.431  0.00  0.00    -0.307 N 
ATOM     18  C   UNL     1      -1.609   3.456  24.158  0.00  0.00    +0.251 C 
ATOM     29  H   UNL     1      -1.595   3.709  26.220  0.00  0.00    +0.149 HD
BRANCH  18  20
ATOM     20  C   UNL     1      -0.165   3.907  24.185  0.00  0.00    +0.324 C 
BRANCH  20   7
ATOM      7  O   UNL     1       0.640   2.963  24.860  0.00  0.00    -0.483 OA
BRANCH   7  23
ATOM     23  C   UNL     1       0.395   1.634  24.604  0.00  0.00    +0.121 A 
ATOM     24  C   UNL     1       0.893   1.044  23.442  0.00  0.00    +0.045 A 
ATOM     25  C   UNL     1      -0.350   0.875  25.507  0.00  0.00    +0.045 A 
ATOM     26  C   UNL     1       0.645  -0.304  23.182  0.00  0.00    +0.004 A 
ATOM     27  C   UNL     1      -0.598  -0.473  25.248  0.00  0.00    +0.004 A 
ATOM     28  C   UNL     1      -0.100  -1.062  24.085  0.00  0.00    +0.000 A 
ENDBRANCH   7  23
ENDBRANCH  20   7
ENDBRANCH  18  20
ENDBRANCH  11   8
BRANCH  12   4
ATOM      4  O   UNL     1      -4.295   4.681  27.287  0.00  0.00    -0.387 OA
ATOM     30  H   UNL     1      -3.601   5.362  27.285  0.00  0.00    +0.210 HD
ENDBRANCH  12   4
BRANCH  14   5
ATOM      5  O   UNL     1      -6.236   2.806  26.779  0.00  0.00    -0.389 OA
ATOM     31  H   UNL     1      -6.147   1.887  26.477  0.00  0.00    +0.210 HD
ENDBRANCH  14   5
TORSDOF 8
ENDMDL
MODEL 6
REMARK VINA RESULT:      -1.8      3.879      5.686
REMARK  Name = 71693989
REMARK  8 active torsions:
REMARK  status: ('A' for Active; 'I' for Inactive)
REMARK    1  A    between atoms: O_4  and  C_12
REMARK    2  A    between atoms: O_5  and  C_14
REMARK    3  A    between atoms: O_7  and  C_20
REMARK    4  A    between atoms: O_7  and  C_23
REMARK    5  A    between atoms: N_8  and  C_11
REMARK    6  A    between atoms: C_10  and  C_15
REMARK    7  A    between atoms: C_18  and  C_20
REMARK    8  A    between atoms: C_21  and  C_22
REMARK                            x       y       z     vdW  Elec       q    Type
REMARK                         _______ _______ _______ _____ _____    ______ ____
ROOT
ATOM     10  C   UNL     1       0.755   0.314  22.942  0.00  0.00    +0.046 C 
ATOM     11  C   UNL     1       1.372  -0.679  23.954  0.00  0.00    +0.111 C 
ATOM     12  C   UNL     1       2.641  -1.160  23.253  0.00  0.00    +0.164 C 
ATOM     13  C   UNL     1       1.929   0.789  22.048  0.00  0.00    +0.044 C 
ATOM     14  C   UNL     1       3.179   0.110  22.604  0.00  0.00    +0.145 C 
ENDROOT
BRANCH  10  15
ATOM      9  N   UNL     1      -2.027   2.771  23.726  0.00  0.00    -0.251 NA
ATOM     15  C   UNL     1      -0.015   1.435  23.608  0.00  0.00    -0.024 A 
ATOM     16  C   UNL     1       0.530   2.149  24.669  0.00  0.00    +0.007 A 
ATOM     17  C   UNL     1      -1.286   1.782  23.177  0.00  0.00    +0.115 A 
ATOM     19  C   UNL     1      -0.201   3.173  25.260  0.00  0.00    +0.032 A 
ATOM     21  C   UNL     1      -1.464   3.443  24.756  0.00  0.00    +0.144 A 
BRANCH  21  22
ATOM      1  F   UNL     1      -1.601   5.714  25.490  0.00  0.00    -0.164 F 
ATOM      2  F   UNL     1      -2.727   4.247  26.621  0.00  0.00    -0.164 F 
ATOM      3  F   UNL     1      -3.391   4.827  24.634  0.00  0.00    -0.164 F 
ATOM     22  C   UNL     1      -2.277   4.535  25.365  0.00  0.00    +0.434 C 
ENDBRANCH  21  22
ENDBRANCH  10  15
BRANCH  11   8
ATOM      6  O   UNL     1      -0.643  -0.764  26.028  0.00  0.00    -0.272 OA
ATOM      8  N   UNL     1       0.478  -1.768  24.255  0.00  0.00    -0.307 N 
ATOM     18  C   UNL     1      -0.462  -1.718  25.275  0.00  0.00    +0.251 C 
ATOM     29  H   UNL     1       0.506  -2.590  23.657  0.00  0.00    +0.149 HD
BRANCH  18  20
ATOM     20  C   UNL     1      -1.265  -2.997  25.367  0.00  0.00    +0.324 C 
BRANCH  20   7
ATOM      7  O   UNL     1      -2.429  -2.913  24.572  0.00  0.00    -0.483 OA
BRANCH   7  23
ATOM     23  C   UNL     1      -3.170  -1.759  24.666  0.00  0.00    +0.121 A 
ATOM     24  C   UNL     1      -3.568  -1.089  23.509  0.00  0.00    +0.045 A 
ATOM     25  C   UNL     1      -3.527  -1.259  25.919  0.00  0.00    +0.045 A 
ATOM     26  C   UNL     1      -4.320   0.082  23.604  0.00  0.00    +0.004 A 
ATOM     27  C   UNL     1      -4.279  -0.088  26.014  0.00  0.00    +0.004 A 
ATOM     28  C   UNL     1      -4.676   0.582  24.857  0.00  0.00    +0.000 A 
ENDBRANCH   7  23
ENDBRANCH  20   7
ENDBRANCH  18  20
ENDBRANCH  11   8
BRANCH  12   4
ATOM      4  O   UNL     1       3.580  -1.709  24.158  0.00  0.00    -0.387 OA
ATOM     30  H   UNL     1       3.864  -0.994  24.752  0.00  0.00    +0.210 HD
ENDBRANCH  12   4
BRANCH  14   5
ATOM      5  O   UNL     1       3.771   0.968  23.575  0.00  0.00    -0.389 OA
ATOM     31  H   UNL     1       4.714   0.740  23.629  0.00  0.00    +0.210 HD
ENDBRANCH  14   5
TORSDOF 8
ENDMDL
MODEL 7
REMARK VINA RESULT:      -1.4      1.858      4.760
REMARK  Name = 71693989
REMARK  8 active torsions:
REMARK  status: ('A' for Active; 'I' for Inactive)
REMARK    1  A    between atoms: O_4  and  C_12
REMARK    2  A    between atoms: O_5  and  C_14
REMARK    3  A    between atoms: O_7  and  C_20
REMARK    4  A    between atoms: O_7  and  C_23
REMARK    5  A    between atoms: N_8  and  C_11
REMARK    6  A    between atoms: C_10  and  C_15
REMARK    7  A    between atoms: C_18  and  C_20
REMARK    8  A    between atoms: C_21  and  C_22
REMARK                            x       y       z     vdW  Elec       q    Type
REMARK                         _______ _______ _______ _____ _____    ______ ____
ROOT
ATOM     10  C   UNL     1      -1.720  -0.825  23.698  0.00  0.00    +0.046 C 
ATOM     11  C   UNL     1      -2.297  -0.441  25.081  0.00  0.00    +0.111 C 
ATOM     12  C   UNL     1      -3.199  -1.622  25.431  0.00  0.00    +0.164 C 
ATOM     13  C   UNL     1      -1.825  -2.370  23.612  0.00  0.00    +0.044 C 
ATOM     14  C   UNL     1      -2.395  -2.825  24.955  0.00  0.00    +0.145 C 
ENDROOT
BRANCH  10  15
ATOM      9  N   UNL     1       1.729  -0.343  22.195  0.00  0.00    -0.251 NA
ATOM     15  C   UNL     1      -0.327  -0.280  23.466  0.00  0.00    -0.024 A 
ATOM     16  C   UNL     1       0.186   0.739  24.260  0.00  0.00    +0.007 A 
ATOM     17  C   UNL     1       0.477  -0.783  22.455  0.00  0.00    +0.115 A 
ATOM     19  C   UNL     1       1.470   1.218  24.023  0.00  0.00    +0.032 A 
ATOM     21  C   UNL     1       2.194   0.649  22.987  0.00  0.00    +0.144 A 
BRANCH  21  22
ATOM      1  F   UNL     1       4.079   0.691  21.517  0.00  0.00    -0.164 F 
ATOM      2  F   UNL     1       4.491   0.765  23.644  0.00  0.00    -0.164 F 
ATOM      3  F   UNL     1       3.646   2.499  22.642  0.00  0.00    -0.164 F 
ATOM     22  C   UNL     1       3.575   1.138  22.704  0.00  0.00    +0.434 C 
ENDBRANCH  21  22
ENDBRANCH  10  15
BRANCH  11   8
ATOM      6  O   UNL     1      -5.110  -0.090  24.504  0.00  0.00    -0.272 OA
ATOM      8  N   UNL     1      -3.028   0.800  25.034  0.00  0.00    -0.307 N 
ATOM     18  C   UNL     1      -4.384   0.871  24.747  0.00  0.00    +0.251 C 
ATOM     29  H   UNL     1      -2.533   1.656  25.273  0.00  0.00    +0.149 HD
BRANCH  18  20
ATOM     20  C   UNL     1      -4.891   2.296  24.766  0.00  0.00    +0.324 C 
BRANCH  20   7
ATOM      7  O   UNL     1      -4.233   3.073  23.787  0.00  0.00    -0.483 OA
BRANCH   7  23
ATOM     23  C   UNL     1      -3.046   3.664  24.149  0.00  0.00    +0.121 A 
ATOM     24  C   UNL     1      -3.007   4.549  25.227  0.00  0.00    +0.045 A 
ATOM     25  C   UNL     1      -1.879   3.378  23.440  0.00  0.00    +0.045 A 
ATOM     26  C   UNL     1      -1.803   5.149  25.594  0.00  0.00    +0.004 A 
ATOM     27  C   UNL     1      -0.675   3.978  23.806  0.00  0.00    +0.004 A 
ATOM     28  C   UNL     1      -0.637   4.863  24.884  0.00  0.00    +0.000 A 
ENDBRANCH   7  23
ENDBRANCH  20   7
ENDBRANCH  18  20
ENDBRANCH  11   8
BRANCH  12   4
ATOM      4  O   UNL     1      -3.465  -1.702  26.819  0.00  0.00    -0.387 OA
ATOM     30  H   UNL     1      -3.865  -0.858  27.087  0.00  0.00    +0.210 HD
ENDBRANCH  12   4
BRANCH  14   5
ATOM      5  O   UNL     1      -1.313  -3.099  25.840  0.00  0.00    -0.389 OA
ATOM     31  H   UNL     1      -1.596  -3.814  26.434  0.00  0.00    +0.210 HD
ENDBRANCH  14   5
TORSDOF 8
ENDMDL
