MODEL 1
REMARK VINA RESULT:      -0.5      0.000      0.000
REMARK  Name = 38030616
REMARK  12 active torsions:
REMARK  status: ('A' for Active; 'I' for Inactive)
REMARK    1  A    between atoms: O_1  and  C_23
REMARK    2  A    between atoms: N_3  and  C_10
REMARK    3  A    between atoms: C_6  and  C_11
REMARK    4  A    between atoms: C_7  and  C_10
REMARK    5  A    between atoms: C_9  and  C_17
REMARK    6  A    between atoms: C_11  and  C_20
REMARK    7  A    between atoms: C_11  and  C_21
REMARK    8  A    between atoms: C_13  and  C_22
REMARK    9  A    between atoms: C_16  and  C_23
REMARK   10  A    between atoms: C_17  and  C_24
REMARK   11  A    between atoms: C_25  and  C_26
REMARK   12  A    between atoms: C_31  and  C_32
REMARK                            x       y       z     vdW  Elec       q    Type
REMARK                         _______ _______ _______ _____ _____    ______ ____
ROOT
ATOM      6  C   UNL     1      -2.724   2.804  25.839  0.00  0.00    +0.000 C 
ATOM      7  C   UNL     1      -4.232   2.857  25.501  0.00  0.00    +0.029 C 
ATOM      8  C   UNL     1      -1.958   2.028  24.760  0.00  0.00    +0.012 C 
ATOM      9  C   UNL     1      -2.145   2.605  23.341  0.00  0.00    +0.024 C 
ATOM     12  C   UNL     1      -4.489   3.165  24.048  0.00  0.00    -0.023 C 
ATOM     13  C   UNL     1      -3.568   3.070  23.071  0.00  0.00    -0.073 C 
ATOM     22  C   UNL     1      -3.909   3.486  21.667  0.00  0.00    +0.039 C 
ENDROOT
BRANCH   6  11
ATOM     11  C   UNL     1      -2.144   4.213  26.028  0.00  0.00    -0.013 C 
ATOM     20  C   UNL     1      -3.221   5.267  25.796  0.00  0.00    +0.007 C 
ATOM     21  C   UNL     1      -0.962   4.433  25.089  0.00  0.00    +0.007 C 
ENDBRANCH   6  11
BRANCH   7  10
ATOM     10  C   UNL     1      -4.942   1.551  25.872  0.00  0.00    +0.092 C 
BRANCH  10   3
ATOM      3  N   UNL     1      -4.216   0.399  25.338  0.00  0.00    -0.302 NA
ATOM     14  C   UNL     1      -4.961  -0.206  24.225  0.00  0.00    +0.085 C 
ATOM     15  C   UNL     1      -3.957  -0.584  26.399  0.00  0.00    +0.085 C 
ATOM     16  C   UNL     1      -3.855  -2.435  24.680  0.00  0.00    +0.017 C 
ATOM     18  C   UNL     1      -4.189  -1.380  23.618  0.00  0.00    +0.021 C 
ATOM     19  C   UNL     1      -3.150  -1.770  25.866  0.00  0.00    +0.021 C 
BRANCH  16  23
ATOM     23  C   UNL     1      -3.000  -3.554  24.091  0.00  0.00    +0.159 C 
BRANCH  23   1
ATOM      1  O   UNL     1      -1.651  -3.124  24.068  0.00  0.00    -0.395 OA
ATOM     33  H   UNL     1      -1.661  -2.155  23.991  0.00  0.00    +0.209 HD
ENDBRANCH  23   1
ENDBRANCH  16  23
ENDBRANCH  10   3
ENDBRANCH   7  10
BRANCH   9  17
ATOM     17  C   UNL     1      -1.653   1.570  22.322  0.00  0.00    +0.105 C 
BRANCH  17  24
ATOM      2  O   UNL     1       0.655   0.878  22.709  0.00  0.00    -0.420 OA
ATOM      4  N   UNL     1      -0.872  -0.440  23.678  0.00  0.00    -0.112 NA
ATOM      5  N   UNL     1       0.380  -0.945  23.976  0.00  0.00    -0.107 NA
ATOM     24  C   UNL     1      -0.663   0.623  22.937  0.00  0.00    +0.218 A 
ATOM     25  C   UNL     1       1.240  -0.145  23.391  0.00  0.00    +0.248 A 
BRANCH  25  26
ATOM     26  C   UNL     1       2.673  -0.180  23.360  0.00  0.00    +0.038 A 
ATOM     27  C   UNL     1       3.388   0.918  22.884  0.00  0.00    +0.013 A 
ATOM     28  C   UNL     1       3.353  -1.314  23.807  0.00  0.00    +0.013 A 
ATOM     29  C   UNL     1       4.782   0.885  22.855  0.00  0.00    +0.004 A 
ATOM     30  C   UNL     1       4.747  -1.348  23.778  0.00  0.00    +0.004 A 
ATOM     31  C   UNL     1       5.462  -0.249  23.302  0.00  0.00    -0.050 A 
ATOM     32  C   UNL     1       6.952  -0.285  23.270  0.00  0.00    +0.044 C 
ENDBRANCH  25  26
ENDBRANCH  17  24
ENDBRANCH   9  17
TORSDOF 8
ENDMDL
MODEL 2
REMARK VINA RESULT:       1.6      2.111      6.074
REMARK  Name = 38030616
REMARK  12 active torsions:
REMARK  status: ('A' for Active; 'I' for Inactive)
REMARK    1  A    between atoms: O_1  and  C_23
REMARK    2  A    between atoms: N_3  and  C_10
REMARK    3  A    between atoms: C_6  and  C_11
REMARK    4  A    between atoms: C_7  and  C_10
REMARK    5  A    between atoms: C_9  and  C_17
REMARK    6  A    between atoms: C_11  and  C_20
REMARK    7  A    between atoms: C_11  and  C_21
REMARK    8  A    between atoms: C_13  and  C_22
REMARK    9  A    between atoms: C_16  and  C_23
REMARK   10  A    between atoms: C_17  and  C_24
REMARK   11  A    between atoms: C_25  and  C_26
REMARK   12  A    between atoms: C_31  and  C_32
REMARK                            x       y       z     vdW  Elec       q    Type
REMARK                         _______ _______ _______ _____ _____    ______ ____
ROOT
ATOM      6  C   UNL     1      -1.332   3.783  24.407  0.00  0.00    +0.000 C 
ATOM      7  C   UNL     1      -0.946   2.867  25.591  0.00  0.00    +0.029 C 
ATOM      8  C   UNL     1      -2.854   3.976  24.350  0.00  0.00    +0.012 C 
ATOM      9  C   UNL     1      -3.448   4.547  25.655  0.00  0.00    +0.024 C 
ATOM     12  C   UNL     1      -1.695   3.207  26.855  0.00  0.00    -0.023 C 
ATOM     13  C   UNL     1      -2.806   3.965  26.906  0.00  0.00    -0.073 C 
ATOM     22  C   UNL     1      -3.423   4.315  28.231  0.00  0.00    +0.039 C 
ENDROOT
BRANCH   6  11
ATOM     11  C   UNL     1      -0.604   5.132  24.483  0.00  0.00    -0.013 C 
ATOM     20  C   UNL     1      -1.603   6.264  24.696  0.00  0.00    +0.007 C 
ATOM     21  C   UNL     1       0.219   5.366  23.220  0.00  0.00    +0.007 C 
ENDBRANCH   6  11
BRANCH   7  10
ATOM     10  C   UNL     1      -1.167   1.387  25.258  0.00  0.00    +0.092 C 
BRANCH  10   3
ATOM      3  N   UNL     1       0.028   0.814  24.640  0.00  0.00    -0.302 NA
ATOM     14  C   UNL     1       0.922   1.879  24.165  0.00  0.00    +0.085 C 
ATOM     15  C   UNL     1      -0.344  -0.093  23.545  0.00  0.00    +0.085 C 
ATOM     16  C   UNL     1       1.889   0.312  22.431  0.00  0.00    +0.017 C 
ATOM     18  C   UNL     1       2.203   1.296  23.563  0.00  0.00    +0.021 C 
ATOM     19  C   UNL     1       0.894  -0.744  22.924  0.00  0.00    +0.021 C 
BRANCH  16  23
ATOM     23  C   UNL     1       3.163  -0.341  21.902  0.00  0.00    +0.159 C 
BRANCH  23   1
ATOM      1  O   UNL     1       4.277   0.297  22.501  0.00  0.00    -0.395 OA
ATOM     33  H   UNL     1       4.364   1.171  22.084  0.00  0.00    +0.209 HD
ENDBRANCH  23   1
ENDBRANCH  16  23
ENDBRANCH  10   3
ENDBRANCH   7  10
BRANCH   9  17
ATOM     17  C   UNL     1      -4.970   4.359  25.624  0.00  0.00    +0.105 C 
BRANCH  17  24
ATOM      2  O   UNL     1      -4.447   2.007  25.234  0.00  0.00    -0.420 OA
ATOM      4  N   UNL     1      -6.430   2.355  26.211  0.00  0.00    -0.112 NA
ATOM      5  N   UNL     1      -6.266   0.992  26.052  0.00  0.00    -0.107 NA
ATOM     24  C   UNL     1      -5.345   2.908  25.721  0.00  0.00    +0.218 A 
ATOM     25  C   UNL     1      -5.096   0.835  25.478  0.00  0.00    +0.248 A 
BRANCH  25  26
ATOM     26  C   UNL     1      -4.408  -0.358  25.076  0.00  0.00    +0.038 A 
ATOM     27  C   UNL     1      -4.671  -0.928  23.831  0.00  0.00    +0.013 A 
ATOM     28  C   UNL     1      -3.476  -0.946  25.931  0.00  0.00    +0.013 A 
ATOM     29  C   UNL     1      -4.001  -2.088  23.439  0.00  0.00    +0.004 A 
ATOM     30  C   UNL     1      -2.807  -2.106  25.540  0.00  0.00    +0.004 A 
ATOM     31  C   UNL     1      -3.069  -2.677  24.294  0.00  0.00    -0.050 A 
ATOM     32  C   UNL     1      -2.354  -3.916  23.876  0.00  0.00    +0.044 C 
ENDBRANCH  25  26
ENDBRANCH  17  24
ENDBRANCH   9  17
TORSDOF 8
ENDMDL
