MODEL 1
REMARK VINA RESULT:      -4.7      0.000      0.000
REMARK  Name = 56775119
REMARK  6 active torsions:
REMARK  status: ('A' for Active; 'I' for Inactive)
REMARK    1  A    between atoms: O_3  and  C_17
REMARK    2  A    between atoms: O_3  and  C_23
REMARK    3  A    between atoms: N_6  and  C_12
REMARK    4  A    between atoms: N_7  and  C_14
REMARK    5  A    between atoms: C_12  and  C_16
REMARK    6  A    between atoms: C_14  and  C_17
REMARK                            x       y       z     vdW  Elec       q    Type
REMARK                         _______ _______ _______ _____ _____    ______ ____
ROOT
ATOM      1  O   UNL     1      -3.373  -9.052  10.434  0.00  0.00    -0.364 OA
ATOM      2  O   UNL     1      -6.272  -7.523   9.138  0.00  0.00    -0.273 OA
ATOM      6  N   UNL     1      -3.963 -10.781  13.176  0.00  0.00    -0.294 NA
ATOM      7  N   UNL     1      -6.110  -9.319  10.610  0.00  0.00    -0.291 N 
ATOM      8  C   UNL     1      -5.259 -10.258  11.336  0.00  0.00    +0.120 C 
ATOM      9  C   UNL     1      -3.821 -10.345  10.835  0.00  0.00    +0.154 C 
ATOM     10  C   UNL     1      -5.065  -9.895  12.805  0.00  0.00    +0.110 C 
ATOM     11  C   UNL     1      -3.005 -10.762  12.062  0.00  0.00    +0.118 C 
ATOM     13  C   UNL     1      -5.605  -8.393   9.701  0.00  0.00    +0.242 C 
ATOM     15  C   UNL     1      -4.141  -8.564   9.358  0.00  0.00    +0.256 C 
ENDROOT
BRANCH   6  12
ATOM     12  C   UNL     1      -3.358 -10.425  14.449  0.00  0.00    +0.119 C 
BRANCH  12  16
ATOM      4  O   UNL     1      -7.919  -9.931  16.308  0.00  0.00    -0.453 OA
ATOM      5  O   UNL     1      -7.193 -10.465  18.544  0.00  0.00    -0.453 OA
ATOM     16  C   UNL     1      -4.362 -10.446  15.571  0.00  0.00    -0.030 A 
ATOM     18  C   UNL     1      -5.703 -10.155  15.310  0.00  0.00    +0.054 A 
ATOM     19  C   UNL     1      -3.939 -10.757  16.876  0.00  0.00    +0.009 A 
ATOM     20  C   UNL     1      -6.584 -10.186  16.372  0.00  0.00    +0.167 A 
ATOM     21  C   UNL     1      -4.851 -10.781  17.934  0.00  0.00    +0.050 A 
ATOM     22  C   UNL     1      -6.169 -10.490  17.648  0.00  0.00    +0.166 A 
ATOM     24  C   UNL     1      -8.299 -10.110  17.688  0.00  0.00    +0.466 C 
ENDBRANCH  12  16
ENDBRANCH   6  12
BRANCH   7  14
ATOM     14  C   UNL     1      -7.527  -9.313  10.947  0.00  0.00    +0.136 C 
BRANCH  14  17
ATOM     17  C   UNL     1      -8.314 -10.265  10.063  0.00  0.00    +0.178 C 
BRANCH  17   3
ATOM      3  O   UNL     1      -9.525  -9.641   9.656  0.00  0.00    -0.381 OA
ATOM     23  C   UNL     1      -9.421  -9.109   8.343  0.00  0.00    +0.194 C 
ENDBRANCH  17   3
ENDBRANCH  14  17
ENDBRANCH   7  14
TORSDOF 5
ENDMDL
MODEL 2
REMARK VINA RESULT:      -4.4     15.504     17.662
REMARK  Name = 56775119
REMARK  6 active torsions:
REMARK  status: ('A' for Active; 'I' for Inactive)
REMARK    1  A    between atoms: O_3  and  C_17
REMARK    2  A    between atoms: O_3  and  C_23
REMARK    3  A    between atoms: N_6  and  C_12
REMARK    4  A    between atoms: N_7  and  C_14
REMARK    5  A    between atoms: C_12  and  C_16
REMARK    6  A    between atoms: C_14  and  C_17
REMARK                            x       y       z     vdW  Elec       q    Type
REMARK                         _______ _______ _______ _____ _____    ______ ____
ROOT
ATOM      1  O   UNL     1      -3.313  -0.706  24.682  0.00  0.00    -0.364 OA
ATOM      2  O   UNL     1      -5.597   1.977  24.610  0.00  0.00    -0.273 OA
ATOM      6  N   UNL     1      -0.224   0.235  24.026  0.00  0.00    -0.294 NA
ATOM      7  N   UNL     1      -3.284   2.044  24.858  0.00  0.00    -0.291 N 
ATOM      8  C   UNL     1      -2.026   1.313  24.989  0.00  0.00    +0.120 C 
ATOM      9  C   UNL     1      -2.172  -0.163  25.343  0.00  0.00    +0.154 C 
ATOM     10  C   UNL     1      -1.219   1.254  23.695  0.00  0.00    +0.110 C 
ATOM     11  C   UNL     1      -0.927  -0.832  24.752  0.00  0.00    +0.118 C 
ATOM     13  C   UNL     1      -4.523   1.409  24.811  0.00  0.00    +0.242 C 
ATOM     15  C   UNL     1      -4.495  -0.073  25.116  0.00  0.00    +0.256 C 
ENDROOT
BRANCH   6  12
ATOM     12  C   UNL     1       0.492  -0.252  22.858  0.00  0.00    +0.119 C 
BRANCH  12  16
ATOM      4  O   UNL     1       5.046  -1.753  24.085  0.00  0.00    -0.453 OA
ATOM      5  O   UNL     1       6.044   0.335  23.412  0.00  0.00    -0.453 OA
ATOM     16  C   UNL     1       1.979  -0.062  22.992  0.00  0.00    -0.030 A 
ATOM     18  C   UNL     1       2.769  -1.093  23.506  0.00  0.00    +0.054 A 
ATOM     19  C   UNL     1       2.562   1.157  22.599  0.00  0.00    +0.009 A 
ATOM     20  C   UNL     1       4.127  -0.870  23.610  0.00  0.00    +0.167 A 
ATOM     21  C   UNL     1       3.940   1.357  22.716  0.00  0.00    +0.050 A 
ATOM     22  C   UNL     1       4.696   0.322  23.226  0.00  0.00    +0.166 A 
ATOM     24  C   UNL     1       6.259  -0.984  23.956  0.00  0.00    +0.466 C 
ENDBRANCH  12  16
ENDBRANCH   6  12
BRANCH   7  14
ATOM     14  C   UNL     1      -3.196   3.487  24.676  0.00  0.00    +0.136 C 
BRANCH  14  17
ATOM     17  C   UNL     1      -2.535   4.159  25.865  0.00  0.00    +0.178 C 
BRANCH  17   3
ATOM      3  O   UNL     1      -1.718   5.230  25.409  0.00  0.00    -0.381 OA
ATOM     23  C   UNL     1      -0.559   4.753  24.740  0.00  0.00    +0.194 C 
ENDBRANCH  17   3
ENDBRANCH  14  17
ENDBRANCH   7  14
TORSDOF 5
ENDMDL
MODEL 3
REMARK VINA RESULT:      -4.0      1.925      2.806
REMARK  Name = 56775119
REMARK  6 active torsions:
REMARK  status: ('A' for Active; 'I' for Inactive)
REMARK    1  A    between atoms: O_3  and  C_17
REMARK    2  A    between atoms: O_3  and  C_23
REMARK    3  A    between atoms: N_6  and  C_12
REMARK    4  A    between atoms: N_7  and  C_14
REMARK    5  A    between atoms: C_12  and  C_16
REMARK    6  A    between atoms: C_14  and  C_17
REMARK                            x       y       z     vdW  Elec       q    Type
REMARK                         _______ _______ _______ _____ _____    ______ ____
ROOT
ATOM      1  O   UNL     1      -4.716  -9.375  12.076  0.00  0.00    -0.364 OA
ATOM      2  O   UNL     1      -4.980  -9.319   8.562  0.00  0.00    -0.273 OA
ATOM      6  N   UNL     1      -7.533 -10.234  13.551  0.00  0.00    -0.294 NA
ATOM      7  N   UNL     1      -6.341 -10.408  10.105  0.00  0.00    -0.291 N 
ATOM      8  C   UNL     1      -6.610 -10.754  11.498  0.00  0.00    +0.120 C 
ATOM      9  C   UNL     1      -5.439 -10.544  12.453  0.00  0.00    +0.154 C 
ATOM     10  C   UNL     1      -7.701  -9.900  12.138  0.00  0.00    +0.110 C 
ATOM     11  C   UNL     1      -6.088 -10.273  13.814  0.00  0.00    +0.118 C 
ATOM     13  C   UNL     1      -5.202  -9.711   9.708  0.00  0.00    +0.242 C 
ATOM     15  C   UNL     1      -4.160  -9.519  10.789  0.00  0.00    +0.256 C 
ENDROOT
BRANCH   6  12
ATOM     12  C   UNL     1      -8.244  -9.322  14.433  0.00  0.00    +0.119 C 
BRANCH  12  16
ATOM      4  O   UNL     1      -5.603 -10.373  18.485  0.00  0.00    -0.453 OA
ATOM      5  O   UNL     1      -7.575 -10.781  19.809  0.00  0.00    -0.453 OA
ATOM     16  C   UNL     1      -8.101  -9.715  15.879  0.00  0.00    -0.030 A 
ATOM     18  C   UNL     1      -6.828  -9.840  16.443  0.00  0.00    +0.054 A 
ATOM     19  C   UNL     1      -9.251  -9.953  16.652  0.00  0.00    +0.009 A 
ATOM     20  C   UNL     1      -6.749 -10.203  17.772  0.00  0.00    +0.167 A 
ATOM     21  C   UNL     1      -9.143 -10.319  17.996  0.00  0.00    +0.050 A 
ATOM     22  C   UNL     1      -7.875 -10.436  18.527  0.00  0.00    +0.166 A 
ATOM     24  C   UNL     1      -6.134 -10.739  19.775  0.00  0.00    +0.466 C 
ENDBRANCH  12  16
ENDBRANCH   6  12
BRANCH   7  14
ATOM     14  C   UNL     1      -7.372 -10.736   9.130  0.00  0.00    +0.136 C 
BRANCH  14  17
ATOM     17  C   UNL     1      -8.490  -9.710   9.133  0.00  0.00    +0.178 C 
BRANCH  17   3
ATOM      3  O   UNL     1      -8.206  -8.698   8.176  0.00  0.00    -0.381 OA
ATOM     23  C   UNL     1      -8.655  -7.424   8.616  0.00  0.00    +0.194 C 
ENDBRANCH  17   3
ENDBRANCH  14  17
ENDBRANCH   7  14
TORSDOF 5
ENDMDL
MODEL 4
REMARK VINA RESULT:      -3.3     25.570     27.389
REMARK  Name = 56775119
REMARK  6 active torsions:
REMARK  status: ('A' for Active; 'I' for Inactive)
REMARK    1  A    between atoms: O_3  and  C_17
REMARK    2  A    between atoms: O_3  and  C_23
REMARK    3  A    between atoms: N_6  and  C_12
REMARK    4  A    between atoms: N_7  and  C_14
REMARK    5  A    between atoms: C_12  and  C_16
REMARK    6  A    between atoms: C_14  and  C_17
REMARK                            x       y       z     vdW  Elec       q    Type
REMARK                         _______ _______ _______ _____ _____    ______ ____
ROOT
ATOM      1  O   UNL     1      15.646  -5.929  28.900  0.00  0.00    -0.364 OA
ATOM      2  O   UNL     1      16.340  -7.363  32.043  0.00  0.00    -0.273 OA
ATOM      6  N   UNL     1      16.372  -7.940  26.394  0.00  0.00    -0.294 NA
ATOM      7  N   UNL     1      16.032  -8.427  29.996  0.00  0.00    -0.291 N 
ATOM      8  C   UNL     1      15.711  -8.319  28.575  0.00  0.00    +0.120 C 
ATOM      9  C   UNL     1      15.069  -7.001  28.157  0.00  0.00    +0.154 C 
ATOM     10  C   UNL     1      16.937  -8.380  27.669  0.00  0.00    +0.110 C 
ATOM     11  C   UNL     1      15.469  -6.820  26.689  0.00  0.00    +0.118 C 
ATOM     13  C   UNL     1      15.991  -7.337  30.862  0.00  0.00    +0.242 C 
ATOM     15  C   UNL     1      15.391  -6.076  30.278  0.00  0.00    +0.256 C 
ENDROOT
BRANCH   6  12
ATOM     12  C   UNL     1      17.391  -7.603  25.413  0.00  0.00    +0.119 C 
BRANCH  12  16
ATOM      4  O   UNL     1      17.383  -2.717  26.202  0.00  0.00    -0.453 OA
ATOM      5  O   UNL     1      17.016  -2.222  23.872  0.00  0.00    -0.453 OA
ATOM     16  C   UNL     1      17.286  -6.170  24.965  0.00  0.00    -0.030 A 
ATOM     18  C   UNL     1      17.402  -5.139  25.901  0.00  0.00    +0.054 A 
ATOM     19  C   UNL     1      17.072  -5.881  23.605  0.00  0.00    +0.009 A 
ATOM     20  C   UNL     1      17.298  -3.842  25.441  0.00  0.00    +0.167 A 
ATOM     21  C   UNL     1      16.970  -4.559  23.166  0.00  0.00    +0.050 A 
ATOM     22  C   UNL     1      17.088  -3.560  24.111  0.00  0.00    +0.166 A 
ATOM     24  C   UNL     1      17.204  -1.694  25.201  0.00  0.00    +0.466 C 
ENDBRANCH  12  16
ENDBRANCH   6  12
BRANCH   7  14
ATOM     14  C   UNL     1      16.500  -9.721  30.473  0.00  0.00    +0.136 C 
BRANCH  14  17
ATOM     17  C   UNL     1      15.398 -10.763  30.432  0.00  0.00    +0.178 C 
BRANCH  17   3
ATOM      3  O   UNL     1      14.175 -10.175  30.858  0.00  0.00    -0.381 OA
ATOM     23  C   UNL     1      13.060 -10.749  30.190  0.00  0.00    +0.194 C 
ENDBRANCH  17   3
ENDBRANCH  14  17
ENDBRANCH   7  14
TORSDOF 5
ENDMDL
MODEL 5
REMARK VINA RESULT:      -3.3      2.317      3.152
REMARK  Name = 56775119
REMARK  6 active torsions:
REMARK  status: ('A' for Active; 'I' for Inactive)
REMARK    1  A    between atoms: O_3  and  C_17
REMARK    2  A    between atoms: O_3  and  C_23
REMARK    3  A    between atoms: N_6  and  C_12
REMARK    4  A    between atoms: N_7  and  C_14
REMARK    5  A    between atoms: C_12  and  C_16
REMARK    6  A    between atoms: C_14  and  C_17
REMARK                            x       y       z     vdW  Elec       q    Type
REMARK                         _______ _______ _______ _____ _____    ______ ____
ROOT
ATOM      1  O   UNL     1      -5.069  -8.392  10.779  0.00  0.00    -0.364 OA
ATOM      2  O   UNL     1      -7.402  -7.376   8.341  0.00  0.00    -0.273 OA
ATOM      6  N   UNL     1      -6.230 -10.773  12.738  0.00  0.00    -0.294 NA
ATOM      7  N   UNL     1      -7.347  -9.355   9.565  0.00  0.00    -0.291 N 
ATOM      8  C   UNL     1      -6.658 -10.193  10.543  0.00  0.00    +0.120 C 
ATOM      9  C   UNL     1      -5.206  -9.811  10.811  0.00  0.00    +0.154 C 
ATOM     10  C   UNL     1      -7.269 -10.125  11.940  0.00  0.00    +0.110 C 
ATOM     11  C   UNL     1      -4.938 -10.274  12.246  0.00  0.00    +0.118 C 
ATOM     13  C   UNL     1      -6.817  -8.157   9.094  0.00  0.00    +0.242 C 
ATOM     15  C   UNL     1      -5.386  -7.883   9.504  0.00  0.00    +0.256 C 
ENDROOT
BRANCH   6  12
ATOM     12  C   UNL     1      -6.408 -10.569  14.167  0.00  0.00    +0.119 C 
BRANCH  12  16
ATOM      4  O   UNL     1      -1.469 -10.781  14.397  0.00  0.00    -0.453 OA
ATOM      5  O   UNL     1      -1.459 -10.711  16.806  0.00  0.00    -0.453 OA
ATOM     16  C   UNL     1      -5.097 -10.604  14.907  0.00  0.00    -0.030 A 
ATOM     18  C   UNL     1      -3.898 -10.678  14.193  0.00  0.00    +0.054 A 
ATOM     19  C   UNL     1      -5.091 -10.564  16.313  0.00  0.00    +0.009 A 
ATOM     20  C   UNL     1      -2.723 -10.709  14.916  0.00  0.00    +0.167 A 
ATOM     21  C   UNL     1      -3.888 -10.597  17.021  0.00  0.00    +0.050 A 
ATOM     22  C   UNL     1      -2.719 -10.669  16.292  0.00  0.00    +0.166 A 
ATOM     24  C   UNL     1      -0.671 -10.781  15.599  0.00  0.00    +0.466 C 
ENDBRANCH  12  16
ENDBRANCH   6  12
BRANCH   7  14
ATOM     14  C   UNL     1      -8.683  -9.772   9.159  0.00  0.00    +0.136 C 
BRANCH  14  17
ATOM     17  C   UNL     1      -9.732  -9.343  10.169  0.00  0.00    +0.178 C 
BRANCH  17   3
ATOM      3  O   UNL     1     -10.665  -8.473   9.542  0.00  0.00    -0.381 OA
ATOM     23  C   UNL     1     -10.625  -8.599   8.127  0.00  0.00    +0.194 C 
ENDBRANCH  17   3
ENDBRANCH  14  17
ENDBRANCH   7  14
TORSDOF 5
ENDMDL
MODEL 6
REMARK VINA RESULT:      -3.2      1.779      2.732
REMARK  Name = 56775119
REMARK  6 active torsions:
REMARK  status: ('A' for Active; 'I' for Inactive)
REMARK    1  A    between atoms: O_3  and  C_17
REMARK    2  A    between atoms: O_3  and  C_23
REMARK    3  A    between atoms: N_6  and  C_12
REMARK    4  A    between atoms: N_7  and  C_14
REMARK    5  A    between atoms: C_12  and  C_16
REMARK    6  A    between atoms: C_14  and  C_17
REMARK                            x       y       z     vdW  Elec       q    Type
REMARK                         _______ _______ _______ _____ _____    ______ ____
ROOT
ATOM      1  O   UNL     1      -5.966  -9.101   8.633  0.00  0.00    -0.364 OA
ATOM      2  O   UNL     1      -9.413  -8.627   9.190  0.00  0.00    -0.273 OA
ATOM      6  N   UNL     1      -4.501 -10.769  11.067  0.00  0.00    -0.294 NA
ATOM      7  N   UNL     1      -7.988 -10.196  10.151  0.00  0.00    -0.291 N 
ATOM      8  C   UNL     1      -6.652 -10.781  10.224  0.00  0.00    +0.120 C 
ATOM      9  C   UNL     1      -5.735 -10.444   9.053  0.00  0.00    +0.154 C 
ATOM     10  C   UNL     1      -5.837 -10.292  11.419  0.00  0.00    +0.110 C 
ATOM     11  C   UNL     1      -4.319 -10.516   9.632  0.00  0.00    +0.118 C 
ATOM     13  C   UNL     1      -8.330  -9.212   9.227  0.00  0.00    +0.242 C 
ATOM     15  C   UNL     1      -7.286  -8.939   8.166  0.00  0.00    +0.256 C 
ENDROOT
BRANCH   6  12
ATOM     12  C   UNL     1      -3.457 -10.171  11.885  0.00  0.00    +0.119 C 
BRANCH  12  16
ATOM      4  O   UNL     1      -6.464 -10.409  15.808  0.00  0.00    -0.453 OA
ATOM      5  O   UNL     1      -4.633 -10.738  17.341  0.00  0.00    -0.453 OA
ATOM     16  C   UNL     1      -3.737 -10.328  13.355  0.00  0.00    -0.030 A 
ATOM     18  C   UNL     1      -5.054 -10.281  13.821  0.00  0.00    +0.054 A 
ATOM     19  C   UNL     1      -2.669 -10.519  14.250  0.00  0.00    +0.009 A 
ATOM     20  C   UNL     1      -5.259 -10.429  15.178  0.00  0.00    +0.167 A 
ATOM     21  C   UNL     1      -2.904 -10.666  15.619  0.00  0.00    +0.050 A 
ATOM     22  C   UNL     1      -4.213 -10.616  16.052  0.00  0.00    +0.166 A 
ATOM     24  C   UNL     1      -6.061 -10.607  17.179  0.00  0.00    +0.466 C 
ENDBRANCH  12  16
ENDBRANCH   6  12
BRANCH   7  14
ATOM     14  C   UNL     1      -8.950 -10.613  11.163  0.00  0.00    +0.136 C 
BRANCH  14  17
ATOM     17  C   UNL     1      -9.890  -9.482  11.538  0.00  0.00    +0.178 C 
BRANCH  17   3
ATOM      3  O   UNL     1     -10.365  -9.682  12.863  0.00  0.00    -0.381 OA
ATOM     23  C   UNL     1      -9.362  -9.388  13.826  0.00  0.00    +0.194 C 
ENDBRANCH  17   3
ENDBRANCH  14  17
ENDBRANCH   7  14
TORSDOF 5
ENDMDL
MODEL 7
REMARK VINA RESULT:      -2.2     25.699     27.492
REMARK  Name = 56775119
REMARK  6 active torsions:
REMARK  status: ('A' for Active; 'I' for Inactive)
REMARK    1  A    between atoms: O_3  and  C_17
REMARK    2  A    between atoms: O_3  and  C_23
REMARK    3  A    between atoms: N_6  and  C_12
REMARK    4  A    between atoms: N_7  and  C_14
REMARK    5  A    between atoms: C_12  and  C_16
REMARK    6  A    between atoms: C_14  and  C_17
REMARK                            x       y       z     vdW  Elec       q    Type
REMARK                         _______ _______ _______ _____ _____    ______ ____
ROOT
ATOM      1  O   UNL     1      13.728  -5.950  29.617  0.00  0.00    -0.364 OA
ATOM      2  O   UNL     1      12.921  -7.036  32.872  0.00  0.00    -0.273 OA
ATOM      6  N   UNL     1      16.127  -7.737  28.237  0.00  0.00    -0.294 NA
ATOM      7  N   UNL     1      14.018  -8.200  31.181  0.00  0.00    -0.291 N 
ATOM      8  C   UNL     1      14.501  -8.229  29.803  0.00  0.00    +0.120 C 
ATOM      9  C   UNL     1      13.905  -7.163  28.889  0.00  0.00    +0.154 C 
ATOM     10  C   UNL     1      15.998  -7.960  29.676  0.00  0.00    +0.110 C 
ATOM     11  C   UNL     1      14.981  -6.916  27.826  0.00  0.00    +0.118 C 
ATOM     13  C   UNL     1      13.269  -7.145  31.695  0.00  0.00    +0.242 C 
ATOM     15  C   UNL     1      12.811  -6.127  30.673  0.00  0.00    +0.256 C 
ENDROOT
BRANCH   6  12
ATOM     12  C   UNL     1      17.405  -7.148  27.871  0.00  0.00    +0.119 C 
BRANCH  12  16
ATOM      4  O   UNL     1      17.030  -2.990  25.213  0.00  0.00    -0.453 OA
ATOM      5  O   UNL     1      17.081  -4.183  23.120  0.00  0.00    -0.453 OA
ATOM     16  C   UNL     1      17.321  -6.384  26.578  0.00  0.00    -0.030 A 
ATOM     18  C   UNL     1      17.213  -4.991  26.599  0.00  0.00    +0.054 A 
ATOM     19  C   UNL     1      17.351  -7.079  25.356  0.00  0.00    +0.009 A 
ATOM     20  C   UNL     1      17.138  -4.335  25.387  0.00  0.00    +0.167 A 
ATOM     21  C   UNL     1      17.273  -6.391  24.143  0.00  0.00    +0.050 A 
ATOM     22  C   UNL     1      17.168  -5.016  24.193  0.00  0.00    +0.166 A 
ATOM     24  C   UNL     1      16.994  -2.900  23.774  0.00  0.00    +0.466 C 
ENDBRANCH  12  16
ENDBRANCH   6  12
BRANCH   7  14
ATOM     14  C   UNL     1      14.436  -9.291  32.052  0.00  0.00    +0.136 C 
BRANCH  14  17
ATOM     17  C   UNL     1      15.009 -10.450  31.257  0.00  0.00    +0.178 C 
BRANCH  17   3
ATOM      3  O   UNL     1      16.355 -10.677  31.656  0.00  0.00    -0.381 OA
ATOM     23  C   UNL     1      16.733  -9.822  32.726  0.00  0.00    +0.194 C 
ENDBRANCH  17   3
ENDBRANCH  14  17
ENDBRANCH   7  14
TORSDOF 5
ENDMDL
MODEL 8
REMARK VINA RESULT:      -2.2     14.872     17.407
REMARK  Name = 56775119
REMARK  6 active torsions:
REMARK  status: ('A' for Active; 'I' for Inactive)
REMARK    1  A    between atoms: O_3  and  C_17
REMARK    2  A    between atoms: O_3  and  C_23
REMARK    3  A    between atoms: N_6  and  C_12
REMARK    4  A    between atoms: N_7  and  C_14
REMARK    5  A    between atoms: C_12  and  C_16
REMARK    6  A    between atoms: C_14  and  C_17
REMARK                            x       y       z     vdW  Elec       q    Type
REMARK                         _______ _______ _______ _____ _____    ______ ____
ROOT
ATOM      1  O   UNL     1      -4.431   3.869  25.529  0.00  0.00    -0.364 OA
ATOM      2  O   UNL     1      -6.579   1.271  26.556  0.00  0.00    -0.273 OA
ATOM      6  N   UNL     1      -1.786   2.766  23.904  0.00  0.00    -0.294 NA
ATOM      7  N   UNL     1      -4.950   1.238  24.894  0.00  0.00    -0.291 N 
ATOM      8  C   UNL     1      -3.941   1.965  24.128  0.00  0.00    +0.120 C 
ATOM      9  C   UNL     1      -4.039   3.485  24.213  0.00  0.00    +0.154 C 
ATOM     10  C   UNL     1      -2.514   1.709  24.604  0.00  0.00    +0.110 C 
ATOM     11  C   UNL     1      -2.607   3.981  23.989  0.00  0.00    +0.118 C 
ATOM     13  C   UNL     1      -5.781   1.858  25.824  0.00  0.00    +0.242 C 
ATOM     15  C   UNL     1      -5.712   3.370  25.838  0.00  0.00    +0.256 C 
ENDROOT
BRANCH   6  12
ATOM     12  C   UNL     1      -0.438   2.956  24.418  0.00  0.00    +0.119 C 
BRANCH  12  16
ATOM      4  O   UNL     1       4.025   1.297  23.069  0.00  0.00    -0.453 OA
ATOM      5  O   UNL     1       3.184  -0.905  22.562  0.00  0.00    -0.453 OA
ATOM     16  C   UNL     1       0.507   1.896  23.919  0.00  0.00    -0.030 A 
ATOM     18  C   UNL     1       1.861   2.195  23.752  0.00  0.00    +0.054 A 
ATOM     19  C   UNL     1       0.016   0.612  23.623  0.00  0.00    +0.009 A 
ATOM     20  C   UNL     1       2.688   1.190  23.292  0.00  0.00    +0.167 A 
ATOM     21  C   UNL     1       0.874  -0.388  23.157  0.00  0.00    +0.050 A 
ATOM     22  C   UNL     1       2.207  -0.066  23.003  0.00  0.00    +0.166 A 
ATOM     24  C   UNL     1       4.335  -0.034  22.608  0.00  0.00    +0.466 C 
ENDBRANCH  12  16
ENDBRANCH   6  12
BRANCH   7  14
ATOM     14  C   UNL     1      -4.997  -0.207  24.722  0.00  0.00    +0.136 C 
BRANCH  14  17
ATOM     17  C   UNL     1      -3.919  -0.901  25.535  0.00  0.00    +0.178 C 
BRANCH  17   3
ATOM      3  O   UNL     1      -3.645  -2.176  24.967  0.00  0.00    -0.381 OA
ATOM     23  C   UNL     1      -2.293  -2.279  24.545  0.00  0.00    +0.194 C 
ENDBRANCH  17   3
ENDBRANCH  14  17
ENDBRANCH   7  14
TORSDOF 5
ENDMDL
MODEL 9
REMARK VINA RESULT:      -1.7     14.465     16.911
REMARK  Name = 56775119
REMARK  6 active torsions:
REMARK  status: ('A' for Active; 'I' for Inactive)
REMARK    1  A    between atoms: O_3  and  C_17
REMARK    2  A    between atoms: O_3  and  C_23
REMARK    3  A    between atoms: N_6  and  C_12
REMARK    4  A    between atoms: N_7  and  C_14
REMARK    5  A    between atoms: C_12  and  C_16
REMARK    6  A    between atoms: C_14  and  C_17
REMARK                            x       y       z     vdW  Elec       q    Type
REMARK                         _______ _______ _______ _____ _____    ______ ____
ROOT
ATOM      1  O   UNL     1      -1.406   3.477  26.647  0.00  0.00    -0.364 OA
ATOM      2  O   UNL     1      -4.857   4.115  26.326  0.00  0.00    -0.273 OA
ATOM      6  N   UNL     1      -0.129   2.010  23.988  0.00  0.00    -0.294 NA
ATOM      7  N   UNL     1      -3.292   3.709  24.652  0.00  0.00    -0.291 N 
ATOM      8  C   UNL     1      -1.900   3.465  24.285  0.00  0.00    +0.120 C 
ATOM      9  C   UNL     1      -0.879   3.808  25.364  0.00  0.00    +0.154 C 
ATOM     10  C   UNL     1      -1.591   1.996  24.008  0.00  0.00    +0.110 C 
ATOM     11  C   UNL     1       0.306   2.876  25.092  0.00  0.00    +0.118 C 
ATOM     13  C   UNL     1      -3.689   3.994  25.956  0.00  0.00    +0.242 C 
ATOM     15  C   UNL     1      -2.557   4.240  26.930  0.00  0.00    +0.256 C 
ENDROOT
BRANCH   6  12
ATOM     12  C   UNL     1       0.447   0.677  24.052  0.00  0.00    +0.119 C 
BRANCH  12  16
ATOM      4  O   UNL     1      -4.048  -1.286  23.391  0.00  0.00    -0.453 OA
ATOM      5  O   UNL     1      -3.555  -3.185  24.791  0.00  0.00    -0.453 OA
ATOM     16  C   UNL     1      -0.604  -0.378  24.271  0.00  0.00    -0.030 A 
ATOM     18  C   UNL     1      -1.855  -0.250  23.663  0.00  0.00    +0.054 A 
ATOM     19  C   UNL     1      -0.316  -1.487  25.088  0.00  0.00    +0.009 A 
ATOM     20  C   UNL     1      -2.785  -1.243  23.895  0.00  0.00    +0.167 A 
ATOM     21  C   UNL     1      -1.276  -2.478  25.306  0.00  0.00    +0.050 A 
ATOM     22  C   UNL     1      -2.503  -2.327  24.694  0.00  0.00    +0.166 A 
ATOM     24  C   UNL     1      -4.530  -2.520  23.962  0.00  0.00    +0.466 C 
ENDBRANCH  12  16
ENDBRANCH   6  12
BRANCH   7  14
ATOM     14  C   UNL     1      -4.291   3.546  23.604  0.00  0.00    +0.136 C 
BRANCH  14  17
ATOM     17  C   UNL     1      -4.818   2.124  23.552  0.00  0.00    +0.178 C 
BRANCH  17   3
ATOM      3  O   UNL     1      -5.788   1.941  24.575  0.00  0.00    -0.381 OA
ATOM     23  C   UNL     1      -5.416   0.899  25.466  0.00  0.00    +0.194 C 
ENDBRANCH  17   3
ENDBRANCH  14  17
ENDBRANCH   7  14
TORSDOF 5
ENDMDL
MODEL 10
REMARK VINA RESULT:      -1.6     15.031     17.453
REMARK  Name = 56775119
REMARK  6 active torsions:
REMARK  status: ('A' for Active; 'I' for Inactive)
REMARK    1  A    between atoms: O_3  and  C_17
REMARK    2  A    between atoms: O_3  and  C_23
REMARK    3  A    between atoms: N_6  and  C_12
REMARK    4  A    between atoms: N_7  and  C_14
REMARK    5  A    between atoms: C_12  and  C_16
REMARK    6  A    between atoms: C_14  and  C_17
REMARK                            x       y       z     vdW  Elec       q    Type
REMARK                         _______ _______ _______ _____ _____    ______ ____
ROOT
ATOM      1  O   UNL     1      -2.611   4.411  26.683  0.00  0.00    -0.364 OA
ATOM      2  O   UNL     1      -5.804   2.919  26.638  0.00  0.00    -0.273 OA
ATOM      6  N   UNL     1      -0.808   3.640  24.037  0.00  0.00    -0.294 NA
ATOM      7  N   UNL     1      -4.347   3.289  24.861  0.00  0.00    -0.291 N 
ATOM      8  C   UNL     1      -3.082   3.844  24.385  0.00  0.00    +0.120 C 
ATOM      9  C   UNL     1      -2.414   4.832  25.335  0.00  0.00    +0.154 C 
ATOM     10  C   UNL     1      -1.991   2.795  24.194  0.00  0.00    +0.110 C 
ATOM     11  C   UNL     1      -0.918   4.720  25.026  0.00  0.00    +0.118 C 
ATOM     13  C   UNL     1      -4.793   3.445  26.170  0.00  0.00    +0.242 C 
ATOM     15  C   UNL     1      -3.982   4.406  27.013  0.00  0.00    +0.256 C 
ENDROOT
BRANCH   6  12
ATOM     12  C   UNL     1       0.436   2.894  24.149  0.00  0.00    +0.119 C 
BRANCH  12  16
ATOM      4  O   UNL     1      -1.612  -1.202  26.028  0.00  0.00    -0.453 OA
ATOM      5  O   UNL     1      -0.534  -2.626  24.410  0.00  0.00    -0.453 OA
ATOM     16  C   UNL     1       0.197   1.408  24.190  0.00  0.00    -0.030 A 
ATOM     18  C   UNL     1      -0.646   0.866  25.164  0.00  0.00    +0.054 A 
ATOM     19  C   UNL     1       0.826   0.576  23.246  0.00  0.00    +0.009 A 
ATOM     20  C   UNL     1      -0.833  -0.501  25.161  0.00  0.00    +0.167 A 
ATOM     21  C   UNL     1       0.620  -0.805  23.265  0.00  0.00    +0.050 A 
ATOM     22  C   UNL     1      -0.217  -1.314  24.237  0.00  0.00    +0.166 A 
ATOM     24  C   UNL     1      -1.420  -2.547  25.547  0.00  0.00    +0.466 C 
ENDBRANCH  12  16
ENDBRANCH   6  12
BRANCH   7  14
ATOM     14  C   UNL     1      -5.101   2.463  23.927  0.00  0.00    +0.136 C 
BRANCH  14  17
ATOM     17  C   UNL     1      -5.238   1.037  24.428  0.00  0.00    +0.178 C 
BRANCH  17   3
ATOM      3  O   UNL     1      -4.079   0.296  24.068  0.00  0.00    -0.381 OA
ATOM     23  C   UNL     1      -4.350  -1.097  24.001  0.00  0.00    +0.194 C 
ENDBRANCH  17   3
ENDBRANCH  14  17
ENDBRANCH   7  14
TORSDOF 5
ENDMDL
