MODEL 1
REMARK VINA RESULT:      27.6      0.000      0.000
REMARK  Name = 11884237
REMARK  3 active torsions:
REMARK  status: ('A' for Active; 'I' for Inactive)
REMARK    1  A    between atoms: C_16  and  C_17
REMARK    2  A    between atoms: C_26  and  C_28
REMARK    3  A    between atoms: C_31  and  C_34
REMARK                            x       y       z     vdW  Elec       q    Type
REMARK                         _______ _______ _______ _____ _____    ______ ____
ROOT
ATOM      5  O   UNL     1      -3.739   4.604  26.895  0.00  0.00    -0.274 OA
ATOM      6  O   UNL     1      -1.403   4.176  23.707  0.00  0.00    -0.273 OA
ATOM      7  O   UNL     1       0.201  -0.851  24.011  0.00  0.00    -0.270 OA
ATOM      8  N   UNL     1      -0.698   1.140  24.775  0.00  0.00    -0.283 N 
ATOM      9  N   UNL     1      -2.895   2.705  25.846  0.00  0.00    -0.296 N 
ATOM     10  N   UNL     1       0.560   3.210  23.076  0.00  0.00    -0.283 N 
ATOM     12  C   UNL     1      -0.485   2.516  25.199  0.00  0.00    +0.180 C 
ATOM     13  C   UNL     1      -1.511   2.981  26.240  0.00  0.00    +0.139 C 
ATOM     14  C   UNL     1      -1.970   0.513  25.141  0.00  0.00    +0.128 C 
ATOM     15  C   UNL     1      -3.131   1.492  25.058  0.00  0.00    +0.127 C 
ATOM     16  C   UNL     1      -3.911   3.582  26.236  0.00  0.00    +0.234 C 
ATOM     18  C   UNL     1      -0.514   3.351  23.929  0.00  0.00    +0.239 C 
ATOM     19  C   UNL     1       0.304   0.362  24.201  0.00  0.00    +0.249 C 
ATOM     20  C   UNL     1       1.563   1.022  23.762  0.00  0.00    +0.059 A 
ATOM     22  C   UNL     1       1.625   2.288  23.159  0.00  0.00    +0.046 A 
ATOM     24  C   UNL     1       2.720   0.223  23.806  0.00  0.00    +0.023 A 
ATOM     25  C   UNL     1       2.826   2.696  22.552  0.00  0.00    +0.024 A 
ATOM     26  C   UNL     1       3.917   0.664  23.242  0.00  0.00    -0.017 A 
ATOM     27  C   UNL     1       3.966   1.895  22.602  0.00  0.00    +0.010 A 
ATOM     35  H   UNL     1       0.642   3.923  22.355  0.00  0.00    +0.155 HD
ENDROOT
BRANCH  16  17
ATOM      1  S   UNL     1      -7.230   1.440  25.829  0.00  0.00    -0.143 S 
ATOM     11  N   UNL     1      -5.215   2.571  24.527  0.00  0.00    -0.296 NA
ATOM     17  C   UNL     1      -5.304   3.232  25.829  0.00  0.00    +0.151 C 
ATOM     21  C   UNL     1      -5.936   2.246  26.803  0.00  0.00    +0.098 C 
ATOM     23  C   UNL     1      -6.528   1.993  24.254  0.00  0.00    +0.151 C 
ATOM     36  H   UNL     1      -4.546   1.802  24.594  0.00  0.00    +0.123 HD
ENDBRANCH  16  17
BRANCH  26  28
ATOM     28  C   UNL     1       5.098  -0.171  23.301  0.00  0.00    -0.017 A 
ATOM     29  C   UNL     1       6.365   0.413  23.308  0.00  0.00    +0.021 A 
ATOM     30  C   UNL     1       4.969  -1.558  23.350  0.00  0.00    +0.008 A 
ATOM     31  C   UNL     1       7.503  -0.393  23.362  0.00  0.00    +0.055 A 
ATOM     32  C   UNL     1       6.107  -2.363  23.406  0.00  0.00    +0.001 A 
ATOM     33  C   UNL     1       7.374  -1.781  23.412  0.00  0.00    +0.012 A 
BRANCH  31  34
ATOM      2  F   UNL     1       9.650  -0.195  24.398  0.00  0.00    -0.166 F 
ATOM      3  F   UNL     1       9.580  -0.019  22.238  0.00  0.00    -0.166 F 
ATOM      4  F   UNL     1       8.811   1.590  23.482  0.00  0.00    -0.166 F 
ATOM     34  C   UNL     1       8.858   0.230  23.370  0.00  0.00    +0.417 C 
ENDBRANCH  31  34
ENDBRANCH  26  28
TORSDOF 3
ENDMDL
MODEL 2
REMARK VINA RESULT:      28.0      5.968     10.514
REMARK  Name = 11884237
REMARK  3 active torsions:
REMARK  status: ('A' for Active; 'I' for Inactive)
REMARK    1  A    between atoms: C_16  and  C_17
REMARK    2  A    between atoms: C_26  and  C_28
REMARK    3  A    between atoms: C_31  and  C_34
REMARK                            x       y       z     vdW  Elec       q    Type
REMARK                         _______ _______ _______ _____ _____    ______ ____
ROOT
ATOM      5  O   UNL     1       5.751  -2.399  23.144  0.00  0.00    -0.274 OA
ATOM      6  O   UNL     1       2.640  -0.845  21.216  0.00  0.00    -0.273 OA
ATOM      7  O   UNL     1       0.866   2.875  24.525  0.00  0.00    -0.270 OA
ATOM      8  N   UNL     1       2.054   0.995  23.886  0.00  0.00    -0.283 N 
ATOM      9  N   UNL     1       4.547  -0.438  23.489  0.00  0.00    -0.296 N 
ATOM     10  N   UNL     1       0.526  -0.094  21.599  0.00  0.00    -0.283 N 
ATOM     12  C   UNL     1       2.045  -0.413  23.515  0.00  0.00    +0.180 C 
ATOM     13  C   UNL     1       3.334  -1.140  23.916  0.00  0.00    +0.139 C 
ATOM     14  C   UNL     1       3.336   1.574  24.292  0.00  0.00    +0.128 C 
ATOM     15  C   UNL     1       4.493   1.027  23.470  0.00  0.00    +0.127 C 
ATOM     16  C   UNL     1       5.681  -1.173  23.137  0.00  0.00    +0.234 C 
ATOM     18  C   UNL     1       1.791  -0.446  22.016  0.00  0.00    +0.239 C 
ATOM     19  C   UNL     1       0.891   1.745  24.032  0.00  0.00    +0.249 C 
ATOM     20  C   UNL     1      -0.396   1.179  23.547  0.00  0.00    +0.059 A 
ATOM     22  C   UNL     1      -0.535   0.424  22.370  0.00  0.00    +0.046 A 
ATOM     24  C   UNL     1      -1.548   1.598  24.237  0.00  0.00    +0.023 A 
ATOM     25  C   UNL     1      -1.826   0.166  21.876  0.00  0.00    +0.024 A 
ATOM     26  C   UNL     1      -2.822   1.290  23.757  0.00  0.00    -0.017 A 
ATOM     27  C   UNL     1      -2.960   0.587  22.568  0.00  0.00    +0.010 A 
ATOM     35  H   UNL     1       0.302  -0.331  20.635  0.00  0.00    +0.155 HD
ENDROOT
BRANCH  16  17
ATOM      1  S   UNL     1       9.522  -0.292  22.645  0.00  0.00    -0.143 S 
ATOM     11  N   UNL     1       7.289   0.404  23.894  0.00  0.00    -0.296 NA
ATOM     17  C   UNL     1       6.895  -0.401  22.738  0.00  0.00    +0.151 C 
ATOM     21  C   UNL     1       8.058  -1.328  22.406  0.00  0.00    +0.098 C 
ATOM     23  C   UNL     1       8.613   0.946  23.604  0.00  0.00    +0.151 C 
ATOM     36  H   UNL     1       7.376  -0.209  24.706  0.00  0.00    +0.123 HD
ENDBRANCH  16  17
BRANCH  26  28
ATOM     28  C   UNL     1      -3.995   1.726  24.484  0.00  0.00    -0.017 A 
ATOM     29  C   UNL     1      -4.263   3.088  24.623  0.00  0.00    +0.021 A 
ATOM     30  C   UNL     1      -4.856   0.784  25.046  0.00  0.00    +0.008 A 
ATOM     31  C   UNL     1      -5.394   3.506  25.327  0.00  0.00    +0.055 A 
ATOM     32  C   UNL     1      -5.986   1.203  25.748  0.00  0.00    +0.001 A 
ATOM     33  C   UNL     1      -6.255   2.564  25.888  0.00  0.00    +0.012 A 
BRANCH  31  34
ATOM      2  F   UNL     1      -5.418   5.690  24.351  0.00  0.00    -0.166 F 
ATOM      3  F   UNL     1      -6.986   5.233  25.778  0.00  0.00    -0.166 F 
ATOM      4  F   UNL     1      -4.948   5.544  26.469  0.00  0.00    -0.166 F 
ATOM     34  C   UNL     1      -5.682   4.962  25.476  0.00  0.00    +0.417 C 
ENDBRANCH  31  34
ENDBRANCH  26  28
TORSDOF 3
ENDMDL
MODEL 3
REMARK VINA RESULT:      29.2      5.969     10.491
REMARK  Name = 11884237
REMARK  3 active torsions:
REMARK  status: ('A' for Active; 'I' for Inactive)
REMARK    1  A    between atoms: C_16  and  C_17
REMARK    2  A    between atoms: C_26  and  C_28
REMARK    3  A    between atoms: C_31  and  C_34
REMARK                            x       y       z     vdW  Elec       q    Type
REMARK                         _______ _______ _______ _____ _____    ______ ____
ROOT
ATOM      5  O   UNL     1       7.489  -0.243  24.674  0.00  0.00    -0.274 OA
ATOM      6  O   UNL     1       4.157  -2.407  24.518  0.00  0.00    -0.273 OA
ATOM      7  O   UNL     1       0.878   0.574  21.638  0.00  0.00    -0.270 OA
ATOM      8  N   UNL     1       2.735   0.111  22.939  0.00  0.00    -0.283 N 
ATOM      9  N   UNL     1       5.606  -0.079  23.315  0.00  0.00    -0.296 N 
ATOM     10  N   UNL     1       1.895  -2.170  24.625  0.00  0.00    -0.283 N 
ATOM     12  C   UNL     1       3.289  -0.170  24.256  0.00  0.00    +0.180 C 
ATOM     13  C   UNL     1       4.728   0.336  24.413  0.00  0.00    +0.139 C 
ATOM     14  C   UNL     1       3.668   0.538  21.895  0.00  0.00    +0.128 C 
ATOM     15  C   UNL     1       4.998  -0.193  21.987  0.00  0.00    +0.127 C 
ATOM     16  C   UNL     1       6.956  -0.331  23.571  0.00  0.00    +0.234 C 
ATOM     18  C   UNL     1       3.168  -1.674  24.444  0.00  0.00    +0.239 C 
ATOM     19  C   UNL     1       1.366   0.155  22.689  0.00  0.00    +0.249 C 
ATOM     20  C   UNL     1       0.429  -0.352  23.727  0.00  0.00    +0.059 A 
ATOM     22  C   UNL     1       0.668  -1.483  24.524  0.00  0.00    +0.046 A 
ATOM     24  C   UNL     1      -0.840   0.256  23.757  0.00  0.00    +0.023 A 
ATOM     25  C   UNL     1      -0.390  -2.020  25.280  0.00  0.00    +0.024 A 
ATOM     26  C   UNL     1      -1.864  -0.261  24.550  0.00  0.00    -0.017 A 
ATOM     27  C   UNL     1      -1.643  -1.408  25.301  0.00  0.00    +0.010 A 
ATOM     35  H   UNL     1       1.844  -3.127  24.969  0.00  0.00    +0.155 HD
ENDROOT
BRANCH  16  17
ATOM      1  S   UNL     1       9.176  -2.615  21.199  0.00  0.00    -0.143 S 
ATOM     11  N   UNL     1       9.198  -0.504  22.803  0.00  0.00    -0.296 NA
ATOM     17  C   UNL     1       7.807  -0.722  22.408  0.00  0.00    +0.151 C 
ATOM     21  C   UNL     1       7.649  -2.201  22.077  0.00  0.00    +0.098 C 
ATOM     23  C   UNL     1      10.033  -1.131  21.783  0.00  0.00    +0.151 C 
ATOM     36  H   UNL     1       9.368  -0.990  23.686  0.00  0.00    +0.123 HD
ENDBRANCH  16  17
BRANCH  26  28
ATOM     28  C   UNL     1      -3.160   0.382  24.571  0.00  0.00    -0.017 A 
ATOM     29  C   UNL     1      -3.258   1.746  24.844  0.00  0.00    +0.021 A 
ATOM     30  C   UNL     1      -4.311  -0.364  24.321  0.00  0.00    +0.008 A 
ATOM     31  C   UNL     1      -4.509   2.364  24.867  0.00  0.00    +0.055 A 
ATOM     32  C   UNL     1      -5.561   0.255  24.342  0.00  0.00    +0.001 A 
ATOM     33  C   UNL     1      -5.660   1.618  24.615  0.00  0.00    +0.012 A 
BRANCH  31  34
ATOM      2  F   UNL     1      -4.251   4.618  24.109  0.00  0.00    -0.166 F 
ATOM      3  F   UNL     1      -5.877   4.224  25.489  0.00  0.00    -0.166 F 
ATOM      4  F   UNL     1      -3.823   4.209  26.201  0.00  0.00    -0.166 F 
ATOM     34  C   UNL     1      -4.614   3.823  25.159  0.00  0.00    +0.417 C 
ENDBRANCH  31  34
ENDBRANCH  26  28
TORSDOF 3
ENDMDL
MODEL 4
REMARK VINA RESULT:      29.5      1.856      2.403
REMARK  Name = 11884237
REMARK  3 active torsions:
REMARK  status: ('A' for Active; 'I' for Inactive)
REMARK    1  A    between atoms: C_16  and  C_17
REMARK    2  A    between atoms: C_26  and  C_28
REMARK    3  A    between atoms: C_31  and  C_34
REMARK                            x       y       z     vdW  Elec       q    Type
REMARK                         _______ _______ _______ _____ _____    ______ ____
ROOT
ATOM      5  O   UNL     1      -4.735   4.442  22.995  0.00  0.00    -0.274 OA
ATOM      6  O   UNL     1      -2.616   1.117  22.487  0.00  0.00    -0.273 OA
ATOM      7  O   UNL     1       1.195   1.509  26.128  0.00  0.00    -0.270 OA
ATOM      8  N   UNL     1      -0.508   2.253  24.750  0.00  0.00    -0.283 N 
ATOM      9  N   UNL     1      -3.136   3.413  24.338  0.00  0.00    -0.296 N 
ATOM     10  N   UNL     1      -0.459   0.389  22.454  0.00  0.00    -0.283 N 
ATOM     12  C   UNL     1      -0.956   2.607  23.410  0.00  0.00    +0.180 C 
ATOM     13  C   UNL     1      -2.034   3.697  23.415  0.00  0.00    +0.139 C 
ATOM     14  C   UNL     1      -1.312   2.734  25.876  0.00  0.00    +0.128 C 
ATOM     15  C   UNL     1      -2.801   2.693  25.569  0.00  0.00    +0.127 C 
ATOM     16  C   UNL     1      -4.429   3.838  24.020  0.00  0.00    +0.234 C 
ATOM     18  C   UNL     1      -1.433   1.309  22.777  0.00  0.00    +0.239 C 
ATOM     19  C   UNL     1       0.717   1.642  25.000  0.00  0.00    +0.249 C 
ATOM     20  C   UNL     1       1.492   1.090  23.856  0.00  0.00    +0.059 A 
ATOM     22  C   UNL     1       0.918   0.433  22.755  0.00  0.00    +0.046 A 
ATOM     24  C   UNL     1       2.891   1.084  24.009  0.00  0.00    +0.023 A 
ATOM     25  C   UNL     1       1.754  -0.273  21.872  0.00  0.00    +0.024 A 
ATOM     26  C   UNL     1       3.708   0.419  23.095  0.00  0.00    -0.017 A 
ATOM     27  C   UNL     1       3.138  -0.272  22.034  0.00  0.00    +0.010 A 
ATOM     35  H   UNL     1      -0.757  -0.364  21.838  0.00  0.00    +0.155 HD
ENDROOT
BRANCH  16  17
ATOM      1  S   UNL     1      -6.169   2.407  27.289  0.00  0.00    -0.143 S 
ATOM     11  N   UNL     1      -6.086   2.254  24.643  0.00  0.00    -0.296 NA
ATOM     17  C   UNL     1      -5.504   3.545  25.012  0.00  0.00    +0.151 C 
ATOM     21  C   UNL     1      -4.938   3.408  26.420  0.00  0.00    +0.098 C 
ATOM     23  C   UNL     1      -6.941   1.840  25.752  0.00  0.00    +0.151 C 
ATOM     36  H   UNL     1      -5.334   1.568  24.558  0.00  0.00    +0.123 HD
ENDBRANCH  16  17
BRANCH  26  28
ATOM     28  C   UNL     1       5.145   0.429  23.267  0.00  0.00    -0.017 A 
ATOM     29  C   UNL     1       5.778   1.557  23.790  0.00  0.00    +0.021 A 
ATOM     30  C   UNL     1       5.897  -0.689  22.909  0.00  0.00    +0.008 A 
ATOM     31  C   UNL     1       7.164   1.566  23.953  0.00  0.00    +0.055 A 
ATOM     32  C   UNL     1       7.282  -0.680  23.073  0.00  0.00    +0.001 A 
ATOM     33  C   UNL     1       7.915   0.447  23.595  0.00  0.00    +0.012 A 
BRANCH  31  34
ATOM      2  F   UNL     1       7.675   3.894  23.750  0.00  0.00    -0.166 F 
ATOM      3  F   UNL     1       7.399   3.118  25.757  0.00  0.00    -0.166 F 
ATOM      4  F   UNL     1       9.190   2.608  24.634  0.00  0.00    -0.166 F 
ATOM     34  C   UNL     1       7.841   2.772  24.511  0.00  0.00    +0.417 C 
ENDBRANCH  31  34
ENDBRANCH  26  28
TORSDOF 3
ENDMDL
