MODEL 1
REMARK VINA RESULT:      -3.6      0.000      0.000
REMARK  Name = 40533380
REMARK  5 active torsions:
REMARK  status: ('A' for Active; 'I' for Inactive)
REMARK    1  A    between atoms: N_3  and  C_10
REMARK    2  A    between atoms: N_3  and  C_15
REMARK    3  A    between atoms: N_4  and  C_11
REMARK    4  A    between atoms: C_14  and  C_15
REMARK    5  A    between atoms: C_22  and  C_23
REMARK                            x       y       z     vdW  Elec       q    Type
REMARK                         _______ _______ _______ _____ _____    ______ ____
ROOT
ATOM      1  O   UNL     1      -4.561   3.291  26.596  0.00  0.00    -0.370 OA
ATOM      2  O   UNL     1      -3.932   3.591  23.550  0.00  0.00    -0.370 OA
ATOM      8  C   UNL     1      -4.227   2.463  24.391  0.00  0.00    +0.168 C 
ATOM      9  C   UNL     1      -3.566   2.711  25.732  0.00  0.00    +0.175 C 
ATOM     10  C   UNL     1      -5.704   2.418  24.709  0.00  0.00    +0.111 C 
ATOM     11  C   UNL     1      -2.476   3.729  25.438  0.00  0.00    +0.166 C 
ATOM     12  C   UNL     1      -5.810   3.362  25.893  0.00  0.00    +0.181 C 
ATOM     13  C   UNL     1      -3.064   4.490  24.255  0.00  0.00    +0.189 C 
ENDROOT
BRANCH  11   4
ATOM      4  N   UNL     1      -1.142   3.052  25.184  0.00  0.00    -0.243 N 
ATOM      5  N   UNL     1      -0.178   3.064  26.120  0.00  0.00    -0.065 NA
ATOM      6  N   UNL     1       0.861   2.402  25.623  0.00  0.00    -0.128 NA
ATOM     21  C   UNL     1      -0.747   2.384  24.066  0.00  0.00    +0.140 A 
ATOM     22  C   UNL     1       0.529   1.980  24.366  0.00  0.00    +0.131 A 
BRANCH  22  23
ATOM      7  N   UNL     1       2.676   1.646  23.462  0.00  0.00    -0.253 NA
ATOM     23  C   UNL     1       1.389   1.233  23.506  0.00  0.00    +0.092 A 
ATOM     24  C   UNL     1       0.894   0.160  22.782  0.00  0.00    +0.030 A 
ATOM     25  C   UNL     1       1.775  -0.533  21.960  0.00  0.00    +0.004 A 
ATOM     26  C   UNL     1       3.503   0.948  22.651  0.00  0.00    +0.111 A 
ATOM     27  C   UNL     1       3.106  -0.138  21.887  0.00  0.00    +0.020 A 
ENDBRANCH  22  23
ENDBRANCH  11   4
BRANCH  10   3
ATOM      3  N   UNL     1      -6.122   1.084  25.065  0.00  0.00    -0.309 NA
ATOM     28  H   UNL     1      -5.779   0.846  25.995  0.00  0.00    +0.122 HD
BRANCH   3  15
ATOM     15  C   UNL     1      -5.616   0.107  24.113  0.00  0.00    +0.084 C 
BRANCH  15  14
ATOM     14  C   UNL     1      -4.570  -0.796  24.764  0.00  0.00    +0.003 C 
ATOM     16  C   UNL     1      -4.441  -2.118  23.994  0.00  0.00    +0.005 C 
ATOM     17  C   UNL     1      -3.216  -0.081  24.852  0.00  0.00    +0.005 C 
ATOM     18  C   UNL     1      -3.363  -3.017  24.595  0.00  0.00    +0.000 C 
ATOM     19  C   UNL     1      -2.139  -0.983  25.451  0.00  0.00    +0.000 C 
ATOM     20  C   UNL     1      -2.020  -2.300  24.688  0.00  0.00    +0.000 C 
ENDBRANCH  15  14
ENDBRANCH   3  15
ENDBRANCH  10   3
TORSDOF 5
ENDMDL
MODEL 2
REMARK VINA RESULT:      -2.9      1.585      2.103
REMARK  Name = 40533380
REMARK  5 active torsions:
REMARK  status: ('A' for Active; 'I' for Inactive)
REMARK    1  A    between atoms: N_3  and  C_10
REMARK    2  A    between atoms: N_3  and  C_15
REMARK    3  A    between atoms: N_4  and  C_11
REMARK    4  A    between atoms: C_14  and  C_15
REMARK    5  A    between atoms: C_22  and  C_23
REMARK                            x       y       z     vdW  Elec       q    Type
REMARK                         _______ _______ _______ _____ _____    ______ ____
ROOT
ATOM      1  O   UNL     1      -2.887   3.392  25.870  0.00  0.00    -0.370 OA
ATOM      2  O   UNL     1      -3.212   2.685  22.844  0.00  0.00    -0.370 OA
ATOM      8  C   UNL     1      -3.454   1.957  24.059  0.00  0.00    +0.168 C 
ATOM      9  C   UNL     1      -2.363   2.338  25.041  0.00  0.00    +0.175 C 
ATOM     10  C   UNL     1      -4.727   2.438  24.715  0.00  0.00    +0.111 C 
ATOM     11  C   UNL     1      -1.237   2.872  24.172  0.00  0.00    +0.166 C 
ATOM     12  C   UNL     1      -4.251   3.645  25.502  0.00  0.00    +0.181 C 
ATOM     13  C   UNL     1      -1.997   3.437  22.977  0.00  0.00    +0.189 C 
ENDROOT
BRANCH  11   4
ATOM      4  N   UNL     1      -0.225   1.787  23.851  0.00  0.00    -0.243 N 
ATOM      5  N   UNL     1      -0.627   0.587  23.400  0.00  0.00    -0.065 NA
ATOM      6  N   UNL     1       0.463  -0.147  23.207  0.00  0.00    -0.128 NA
ATOM     21  C   UNL     1       1.130   1.854  23.959  0.00  0.00    +0.140 A 
ATOM     22  C   UNL     1       1.548   0.614  23.546  0.00  0.00    +0.131 A 
BRANCH  22  23
ATOM      7  N   UNL     1       3.809   1.120  23.139  0.00  0.00    -0.253 NA
ATOM     23  C   UNL     1       2.904   0.174  23.474  0.00  0.00    +0.092 A 
ATOM     24  C   UNL     1       3.225  -1.147  23.738  0.00  0.00    +0.030 A 
ATOM     25  C   UNL     1       4.562  -1.522  23.654  0.00  0.00    +0.004 A 
ATOM     26  C   UNL     1       5.099   0.719  23.066  0.00  0.00    +0.111 A 
ATOM     27  C   UNL     1       5.522  -0.577  23.312  0.00  0.00    +0.020 A 
ENDBRANCH  22  23
ENDBRANCH  11   4
BRANCH  10   3
ATOM      3  N   UNL     1      -5.279   1.430  25.587  0.00  0.00    -0.309 NA
ATOM     28  H   UNL     1      -4.640   1.249  26.361  0.00  0.00    +0.122 HD
BRANCH   3  15
ATOM     15  C   UNL     1      -5.511   0.187  24.868  0.00  0.00    +0.084 C 
BRANCH  15  14
ATOM     14  C   UNL     1      -4.202  -0.568  24.649  0.00  0.00    +0.003 C 
ATOM     16  C   UNL     1      -3.502  -0.840  25.988  0.00  0.00    +0.005 C 
ATOM     17  C   UNL     1      -4.452  -1.876  23.887  0.00  0.00    +0.005 C 
ATOM     18  C   UNL     1      -2.215  -1.641  25.799  0.00  0.00    +0.000 C 
ATOM     19  C   UNL     1      -3.163  -2.675  23.701  0.00  0.00    +0.000 C 
ATOM     20  C   UNL     1      -2.467  -2.937  25.033  0.00  0.00    +0.000 C 
ENDBRANCH  15  14
ENDBRANCH   3  15
ENDBRANCH  10   3
TORSDOF 5
ENDMDL
MODEL 3
REMARK VINA RESULT:      -2.6      2.159      4.047
REMARK  Name = 40533380
REMARK  5 active torsions:
REMARK  status: ('A' for Active; 'I' for Inactive)
REMARK    1  A    between atoms: N_3  and  C_10
REMARK    2  A    between atoms: N_3  and  C_15
REMARK    3  A    between atoms: N_4  and  C_11
REMARK    4  A    between atoms: C_14  and  C_15
REMARK    5  A    between atoms: C_22  and  C_23
REMARK                            x       y       z     vdW  Elec       q    Type
REMARK                         _______ _______ _______ _____ _____    ______ ____
ROOT
ATOM      1  O   UNL     1      -4.308   2.108  23.154  0.00  0.00    -0.370 OA
ATOM      2  O   UNL     1      -4.205   0.125  25.566  0.00  0.00    -0.370 OA
ATOM      8  C   UNL     1      -3.720   1.463  25.367  0.00  0.00    +0.168 C 
ATOM      9  C   UNL     1      -3.230   1.559  23.935  0.00  0.00    +0.175 C 
ATOM     10  C   UNL     1      -4.861   2.451  25.435  0.00  0.00    +0.111 C 
ATOM     11  C   UNL     1      -2.970   0.120  23.523  0.00  0.00    +0.166 C 
ATOM     12  C   UNL     1      -5.410   2.411  24.021  0.00  0.00    +0.181 C 
ATOM     13  C   UNL     1      -3.979  -0.642  24.375  0.00  0.00    +0.189 C 
ENDROOT
BRANCH  11   4
ATOM      4  N   UNL     1      -1.515  -0.260  23.733  0.00  0.00    -0.243 N 
ATOM      5  N   UNL     1      -1.185  -1.293  24.526  0.00  0.00    -0.065 NA
ATOM      6  N   UNL     1       0.140  -1.387  24.518  0.00  0.00    -0.128 NA
ATOM     21  C   UNL     1      -0.414   0.333  23.198  0.00  0.00    +0.140 A 
ATOM     22  C   UNL     1       0.627  -0.398  23.710  0.00  0.00    +0.131 A 
BRANCH  22  23
ATOM      7  N   UNL     1       2.833  -1.219  23.688  0.00  0.00    -0.253 NA
ATOM     23  C   UNL     1       2.012  -0.172  23.447  0.00  0.00    +0.092 A 
ATOM     24  C   UNL     1       2.443   1.058  22.976  0.00  0.00    +0.030 A 
ATOM     25  C   UNL     1       3.803   1.224  22.737  0.00  0.00    +0.004 A 
ATOM     26  C   UNL     1       4.148  -1.020  23.444  0.00  0.00    +0.111 A 
ATOM     27  C   UNL     1       4.678   0.170  22.973  0.00  0.00    +0.020 A 
ENDBRANCH  22  23
ENDBRANCH  11   4
BRANCH  10   3
ATOM      3  N   UNL     1      -4.389   3.771  25.776  0.00  0.00    -0.309 NA
ATOM     28  H   UNL     1      -3.942   4.203  24.968  0.00  0.00    +0.122 HD
BRANCH   3  15
ATOM     15  C   UNL     1      -3.431   3.718  26.870  0.00  0.00    +0.084 C 
BRANCH  15  14
ATOM     14  C   UNL     1      -2.017   4.003  26.371  0.00  0.00    +0.003 C 
ATOM     16  C   UNL     1      -1.244   2.695  26.155  0.00  0.00    +0.005 C 
ATOM     17  C   UNL     1      -2.055   4.834  25.082  0.00  0.00    +0.005 C 
ATOM     18  C   UNL     1       0.158   2.952  25.605  0.00  0.00    +0.000 C 
ATOM     19  C   UNL     1      -0.652   5.088  24.533  0.00  0.00    +0.000 C 
ATOM     20  C   UNL     1       0.116   3.786  24.328  0.00  0.00    +0.000 C 
ENDBRANCH  15  14
ENDBRANCH   3  15
ENDBRANCH  10   3
TORSDOF 5
ENDMDL
MODEL 4
REMARK VINA RESULT:      -2.4      2.132      4.401
REMARK  Name = 40533380
REMARK  5 active torsions:
REMARK  status: ('A' for Active; 'I' for Inactive)
REMARK    1  A    between atoms: N_3  and  C_10
REMARK    2  A    between atoms: N_3  and  C_15
REMARK    3  A    between atoms: N_4  and  C_11
REMARK    4  A    between atoms: C_14  and  C_15
REMARK    5  A    between atoms: C_22  and  C_23
REMARK                            x       y       z     vdW  Elec       q    Type
REMARK                         _______ _______ _______ _____ _____    ______ ____
ROOT
ATOM      1  O   UNL     1      -4.031  -1.273  23.441  0.00  0.00    -0.370 OA
ATOM      2  O   UNL     1      -2.604  -0.652  26.150  0.00  0.00    -0.370 OA
ATOM      8  C   UNL     1      -3.178   0.175  25.124  0.00  0.00    +0.168 C 
ATOM      9  C   UNL     1      -2.880  -0.483  23.791  0.00  0.00    +0.175 C 
ATOM     10  C   UNL     1      -4.686   0.157  25.217  0.00  0.00    +0.111 C 
ATOM     11  C   UNL     1      -1.693  -1.390  24.070  0.00  0.00    +0.166 C 
ATOM     12  C   UNL     1      -5.044  -1.098  24.442  0.00  0.00    +0.181 C 
ATOM     13  C   UNL     1      -1.901  -1.743  25.539  0.00  0.00    +0.189 C 
ENDROOT
BRANCH  11   4
ATOM      4  N   UNL     1      -0.381  -0.700  23.742  0.00  0.00    -0.243 N 
ATOM      5  N   UNL     1      -0.369   0.545  23.238  0.00  0.00    -0.065 NA
ATOM      6  N   UNL     1       0.902   0.883  23.054  0.00  0.00    -0.128 NA
ATOM     21  C   UNL     1       0.878  -1.191  23.894  0.00  0.00    +0.140 A 
ATOM     22  C   UNL     1       1.679  -0.170  23.450  0.00  0.00    +0.131 A 
BRANCH  22  23
ATOM      7  N   UNL     1       3.689  -1.334  23.829  0.00  0.00    -0.253 NA
ATOM     23  C   UNL     1       3.105  -0.190  23.405  0.00  0.00    +0.092 A 
ATOM     24  C   UNL     1       3.807   0.915  22.950  0.00  0.00    +0.030 A 
ATOM     25  C   UNL     1       5.195   0.842  22.928  0.00  0.00    +0.004 A 
ATOM     26  C   UNL     1       5.040  -1.368  23.794  0.00  0.00    +0.111 A 
ATOM     27  C   UNL     1       5.831  -0.318  23.356  0.00  0.00    +0.020 A 
ENDBRANCH  22  23
ENDBRANCH  11   4
BRANCH  10   3
ATOM      3  N   UNL     1      -5.261   1.331  24.606  0.00  0.00    -0.309 NA
ATOM     28  H   UNL     1      -4.635   1.695  23.888  0.00  0.00    +0.122 HD
BRANCH   3  15
ATOM     15  C   UNL     1      -5.499   2.371  25.595  0.00  0.00    +0.084 C 
BRANCH  15  14
ATOM     14  C   UNL     1      -4.523   3.531  25.410  0.00  0.00    +0.003 C 
ATOM     16  C   UNL     1      -3.458   3.525  26.516  0.00  0.00    +0.005 C 
ATOM     17  C   UNL     1      -3.869   3.474  24.023  0.00  0.00    +0.005 C 
ATOM     18  C   UNL     1      -2.439   4.646  26.323  0.00  0.00    +0.000 C 
ATOM     19  C   UNL     1      -2.849   4.595  23.833  0.00  0.00    +0.000 C 
ATOM     20  C   UNL     1      -1.797   4.591  24.940  0.00  0.00    +0.000 C 
ENDBRANCH  15  14
ENDBRANCH   3  15
ENDBRANCH  10   3
TORSDOF 5
ENDMDL
MODEL 5
REMARK VINA RESULT:      -0.0      1.897      5.344
REMARK  Name = 40533380
REMARK  5 active torsions:
REMARK  status: ('A' for Active; 'I' for Inactive)
REMARK    1  A    between atoms: N_3  and  C_10
REMARK    2  A    between atoms: N_3  and  C_15
REMARK    3  A    between atoms: N_4  and  C_11
REMARK    4  A    between atoms: C_14  and  C_15
REMARK    5  A    between atoms: C_22  and  C_23
REMARK                            x       y       z     vdW  Elec       q    Type
REMARK                         _______ _______ _______ _____ _____    ______ ____
ROOT
ATOM      1  O   UNL     1      -3.160   5.342  23.651  0.00  0.00    -0.370 OA
ATOM      2  O   UNL     1      -3.279   4.403  26.628  0.00  0.00    -0.370 OA
ATOM      8  C   UNL     1      -2.376   4.133  25.543  0.00  0.00    +0.168 C 
ATOM      9  C   UNL     1      -3.203   4.046  24.276  0.00  0.00    +0.175 C 
ATOM     10  C   UNL     1      -1.465   5.317  25.311  0.00  0.00    +0.111 C 
ATOM     11  C   UNL     1      -4.613   3.749  24.759  0.00  0.00    +0.166 C 
ATOM     12  C   UNL     1      -2.312   6.207  24.419  0.00  0.00    +0.181 C 
ATOM     13  C   UNL     1      -4.625   4.414  26.131  0.00  0.00    +0.189 C 
ENDROOT
BRANCH  11   4
ATOM      4  N   UNL     1      -4.896   2.257  24.752  0.00  0.00    -0.243 N 
ATOM      5  N   UNL     1      -6.153   1.798  24.869  0.00  0.00    -0.065 NA
ATOM      6  N   UNL     1      -6.093   0.472  24.830  0.00  0.00    -0.128 NA
ATOM     21  C   UNL     1      -4.000   1.240  24.635  0.00  0.00    +0.140 A 
ATOM     22  C   UNL     1      -4.781   0.114  24.688  0.00  0.00    +0.131 A 
BRANCH  22  23
ATOM      7  N   UNL     1      -3.607  -1.670  25.675  0.00  0.00    -0.253 NA
ATOM     23  C   UNL     1      -4.310  -1.231  24.607  0.00  0.00    +0.092 A 
ATOM     24  C   UNL     1      -4.577  -1.999  23.485  0.00  0.00    +0.030 A 
ATOM     25  C   UNL     1      -4.094  -3.303  23.459  0.00  0.00    +0.004 A 
ATOM     26  C   UNL     1      -3.153  -2.942  25.613  0.00  0.00    +0.111 A 
ATOM     27  C   UNL     1      -3.367  -3.791  24.539  0.00  0.00    +0.020 A 
ENDBRANCH  22  23
ENDBRANCH  11   4
BRANCH  10   3
ATOM      3  N   UNL     1      -0.249   4.917  24.647  0.00  0.00    -0.309 NA
ATOM     28  H   UNL     1      -0.447   4.649  23.683  0.00  0.00    +0.122 HD
BRANCH   3  15
ATOM     15  C   UNL     1       0.374   3.793  25.329  0.00  0.00    +0.084 C 
BRANCH  15  14
ATOM     14  C   UNL     1      -0.227   2.470  24.858  0.00  0.00    +0.003 C 
ATOM     16  C   UNL     1       0.677   1.806  23.811  0.00  0.00    +0.005 C 
ATOM     17  C   UNL     1      -0.468   1.531  26.047  0.00  0.00    +0.005 C 
ATOM     18  C   UNL     1       0.123   0.455  23.363  0.00  0.00    +0.000 C 
ATOM     19  C   UNL     1      -1.020   0.180  25.596  0.00  0.00    +0.000 C 
ATOM     20  C   UNL     1      -0.123  -0.473  24.549  0.00  0.00    +0.000 C 
ENDBRANCH  15  14
ENDBRANCH   3  15
ENDBRANCH  10   3
TORSDOF 5
ENDMDL
