MODEL 1
REMARK VINA RESULT:      -3.5      0.000      0.000
REMARK  Name = 11941842
REMARK  5 active torsions:
REMARK  status: ('A' for Active; 'I' for Inactive)
REMARK    1  A    between atoms: N_5  and  C_12
REMARK    2  A    between atoms: N_6  and  C_13
REMARK    3  A    between atoms: N_7  and  C_18
REMARK    4  A    between atoms: C_18  and  C_22
REMARK    5  A    between atoms: C_19  and  C_23
REMARK                            x       y       z     vdW  Elec       q    Type
REMARK                         _______ _______ _______ _____ _____    ______ ____
ROOT
ATOM      2  O   UNL     1      15.391  -5.155  29.066  0.00  0.00    -0.370 OA
ATOM      3  O   UNL     1      17.037  -6.394  31.409  0.00  0.00    -0.370 OA
ATOM     10  C   UNL     1      16.556  -6.918  30.161  0.00  0.00    +0.171 C 
ATOM     11  C   UNL     1      15.193  -6.301  29.910  0.00  0.00    +0.171 C 
ATOM     12  C   UNL     1      17.405  -6.414  29.018  0.00  0.00    +0.130 C 
ATOM     13  C   UNL     1      14.727  -5.870  31.282  0.00  0.00    +0.131 C 
ATOM     14  C   UNL     1      16.778  -5.069  28.705  0.00  0.00    +0.185 C 
ATOM     15  C   UNL     1      16.034  -5.542  31.981  0.00  0.00    +0.185 C 
ENDROOT
BRANCH  12   5
ATOM      5  N   UNL     1      17.281  -7.301  27.882  0.00  0.00    -0.306 N 
ATOM      8  N   UNL     1      17.263  -5.519  26.355  0.00  0.00    -0.214 NA
ATOM      9  N   UNL     1      17.099  -7.799  25.596  0.00  0.00    -0.223 NA
ATOM     16  C   UNL     1      17.213  -6.860  26.571  0.00  0.00    +0.216 A 
ATOM     19  C   UNL     1      17.194  -5.124  25.066  0.00  0.00    +0.083 A 
ATOM     20  C   UNL     1      17.034  -7.336  24.331  0.00  0.00    +0.116 A 
ATOM     21  C   UNL     1      17.078  -5.996  24.003  0.00  0.00    +0.049 A 
ATOM     32  H   UNL     1      17.295  -8.304  28.028  0.00  0.00    +0.149 HD
BRANCH  19  23
ATOM      1  S   UNL     1      17.343  -3.083  23.272  0.00  0.00    -0.095 S 
ATOM     23  C   UNL     1      17.250  -3.701  24.869  0.00  0.00    +0.038 A 
ATOM     26  C   UNL     1      17.240  -2.688  25.808  0.00  0.00    +0.017 A 
ATOM     29  C   UNL     1      17.310  -1.397  25.209  0.00  0.00    +0.008 A 
ATOM     31  C   UNL     1      17.370  -1.466  23.835  0.00  0.00    +0.046 A 
ENDBRANCH  19  23
ENDBRANCH  12   5
BRANCH  13   6
ATOM      4  O   UNL     1      12.711  -7.604  30.161  0.00  0.00    -0.253 OA
ATOM      6  N   UNL     1      14.026  -6.936  31.955  0.00  0.00    -0.292 N 
ATOM      7  N   UNL     1      12.547  -8.680  32.212  0.00  0.00    -0.295 N 
ATOM     17  C   UNL     1      13.062  -7.728  31.334  0.00  0.00    +0.300 C 
ATOM     33  H   UNL     1      14.292  -7.165  32.908  0.00  0.00    +0.151 HD
ATOM     34  H   UNL     1      12.914  -8.723  33.157  0.00  0.00    +0.151 HD
BRANCH   7  18
ATOM     18  C   UNL     1      11.531  -9.631  31.825  0.00  0.00    +0.141 C 
BRANCH  18  22
ATOM     22  C   UNL     1      10.148  -9.125  32.118  0.00  0.00    -0.030 A 
ATOM     24  C   UNL     1       9.053  -9.955  31.908  0.00  0.00    +0.005 A 
ATOM     25  C   UNL     1       9.976  -7.831  32.597  0.00  0.00    +0.005 A 
ATOM     27  C   UNL     1       7.768  -9.485  32.181  0.00  0.00    +0.000 A 
ATOM     28  C   UNL     1       8.691  -7.361  32.869  0.00  0.00    +0.000 A 
ATOM     30  C   UNL     1       7.587  -8.188  32.660  0.00  0.00    +0.000 A 
ENDBRANCH  18  22
ENDBRANCH   7  18
ENDBRANCH  13   6
TORSDOF 5
ENDMDL
MODEL 2
REMARK VINA RESULT:       0.2     16.269     19.311
REMARK  Name = 11941842
REMARK  5 active torsions:
REMARK  status: ('A' for Active; 'I' for Inactive)
REMARK    1  A    between atoms: N_5  and  C_12
REMARK    2  A    between atoms: N_6  and  C_13
REMARK    3  A    between atoms: N_7  and  C_18
REMARK    4  A    between atoms: C_18  and  C_22
REMARK    5  A    between atoms: C_19  and  C_23
REMARK                            x       y       z     vdW  Elec       q    Type
REMARK                         _______ _______ _______ _____ _____    ______ ____
ROOT
ATOM      2  O   UNL     1      -3.741  -1.342  23.125  0.00  0.00    -0.370 OA
ATOM      3  O   UNL     1      -2.287  -1.526  25.879  0.00  0.00    -0.370 OA
ATOM     10  C   UNL     1      -3.122  -0.526  25.272  0.00  0.00    +0.171 C 
ATOM     11  C   UNL     1      -2.789  -0.499  23.792  0.00  0.00    +0.171 C 
ATOM     12  C   UNL     1      -4.569  -0.954  25.317  0.00  0.00    +0.130 C 
ATOM     13  C   UNL     1      -1.405  -1.105  23.716  0.00  0.00    +0.131 C 
ATOM     14  C   UNL     1      -4.698  -1.824  24.080  0.00  0.00    +0.185 C 
ATOM     15  C   UNL     1      -1.411  -2.076  24.883  0.00  0.00    +0.185 C 
ENDROOT
BRANCH  12   5
ATOM      5  N   UNL     1      -5.431   0.202  25.207  0.00  0.00    -0.306 N 
ATOM      8  N   UNL     1      -3.631   1.698  25.388  0.00  0.00    -0.214 NA
ATOM      9  N   UNL     1      -5.887   2.503  25.125  0.00  0.00    -0.223 NA
ATOM     16  C   UNL     1      -4.969   1.507  25.241  0.00  0.00    +0.216 A 
ATOM     19  C   UNL     1      -3.216   2.981  25.417  0.00  0.00    +0.083 A 
ATOM     20  C   UNL     1      -5.403   3.761  25.162  0.00  0.00    +0.116 A 
ATOM     21  C   UNL     1      -4.065   4.064  25.306  0.00  0.00    +0.049 A 
ATOM     32  H   UNL     1      -6.423   0.071  25.045  0.00  0.00    +0.149 HD
BRANCH  19  23
ATOM      1  S   UNL     1      -1.049   4.554  24.931  0.00  0.00    -0.095 S 
ATOM     23  C   UNL     1      -1.797   3.151  25.573  0.00  0.00    +0.038 A 
ATOM     26  C   UNL     1      -0.881   2.322  26.191  0.00  0.00    +0.017 A 
ATOM     29  C   UNL     1       0.443   2.846  26.136  0.00  0.00    +0.008 A 
ATOM     31  C   UNL     1       0.495   4.055  25.479  0.00  0.00    +0.046 A 
ENDBRANCH  19  23
ENDBRANCH  12   5
BRANCH  13   6
ATOM      4  O   UNL     1       0.978  -0.774  22.123  0.00  0.00    -0.253 OA
ATOM      6  N   UNL     1      -0.385  -0.098  23.878  0.00  0.00    -0.292 N 
ATOM      7  N   UNL     1       1.560   1.050  23.436  0.00  0.00    -0.295 N 
ATOM     17  C   UNL     1       0.740  -0.011  23.059  0.00  0.00    +0.300 C 
ATOM     33  H   UNL     1      -0.521   0.621  24.581  0.00  0.00    +0.151 HD
ATOM     34  H   UNL     1       1.270   1.641  24.209  0.00  0.00    +0.151 HD
BRANCH   7  18
ATOM     18  C   UNL     1       2.793   1.366  22.754  0.00  0.00    +0.141 C 
BRANCH  18  22
ATOM     22  C   UNL     1       3.929   0.500  23.217  0.00  0.00    -0.030 A 
ATOM     24  C   UNL     1       5.180   1.064  23.433  0.00  0.00    +0.005 A 
ATOM     25  C   UNL     1       3.717  -0.857  23.428  0.00  0.00    +0.005 A 
ATOM     27  C   UNL     1       6.236   0.261  23.865  0.00  0.00    +0.000 A 
ATOM     28  C   UNL     1       4.772  -1.662  23.860  0.00  0.00    +0.000 A 
ATOM     30  C   UNL     1       6.031  -1.102  24.077  0.00  0.00    +0.000 A 
ENDBRANCH  18  22
ENDBRANCH   7  18
ENDBRANCH  13   6
TORSDOF 5
ENDMDL
