MODEL 1
REMARK VINA RESULT:       4.0      0.000      0.000
REMARK  Name = 45783819
REMARK  13 active torsions:
REMARK  status: ('A' for Active; 'I' for Inactive)
REMARK    1  A    between atoms: O_2  and  C_20
REMARK    2  A    between atoms: O_2  and  C_28
REMARK    3  A    between atoms: O_3  and  C_21
REMARK    4  A    between atoms: O_3  and  C_29
REMARK    5  A    between atoms: O_4  and  C_22
REMARK    6  A    between atoms: O_4  and  C_30
REMARK    7  A    between atoms: N_5  and  C_14
REMARK    8  A    between atoms: N_9  and  C_27
REMARK    9  A    between atoms: N_9  and  C_31
REMARK   10  A    between atoms: N_9  and  C_32
REMARK   11  A    between atoms: C_10  and  C_15
REMARK   12  A    between atoms: C_14  and  C_16
REMARK   13  A    between atoms: C_19  and  C_23
REMARK                            x       y       z     vdW  Elec       q    Type
REMARK                         _______ _______ _______ _____ _____    ______ ____
ROOT
ATOM      5  N   UNL     1      -4.666   2.574  25.388  0.00  0.00    -0.287 NA
ATOM     10  C   UNL     1      -4.399   3.108  24.038  0.00  0.00    +0.146 C 
ATOM     11  C   UNL     1      -4.265   4.629  24.237  0.00  0.00    +0.030 C 
ATOM     12  C   UNL     1      -4.533   4.860  25.718  0.00  0.00    +0.017 C 
ATOM     13  C   UNL     1      -5.334   3.643  26.130  0.00  0.00    +0.085 C 
ENDROOT
BRANCH  10  15
ATOM      1  O   UNL     1      -3.248   2.231  22.068  0.00  0.00    -0.336 OA
ATOM      6  N   UNL     1      -2.029   2.164  23.945  0.00  0.00    -0.190 NA
ATOM      7  N   UNL     1      -2.013   1.673  21.711  0.00  0.00    -0.056 NA
ATOM     15  C   UNL     1      -3.172   2.492  23.400  0.00  0.00    +0.245 A 
ATOM     19  C   UNL     1      -1.351   1.666  22.871  0.00  0.00    +0.204 A 
BRANCH  19  23
ATOM      8  N   UNL     1       2.217   1.438  23.897  0.00  0.00    -0.240 NA
ATOM     23  C   UNL     1      -0.009   1.171  22.991  0.00  0.00    +0.041 A 
ATOM     24  C   UNL     1       0.382  -0.001  22.355  0.00  0.00    +0.016 A 
ATOM     25  C   UNL     1       0.937   1.848  23.744  0.00  0.00    +0.124 A 
ATOM     26  C   UNL     1       1.690  -0.455  22.489  0.00  0.00    +0.044 A 
ATOM     27  C   UNL     1       2.560   0.294  23.264  0.00  0.00    +0.121 A 
BRANCH  27   9
ATOM      9  N   UNL     1       3.889  -0.182  23.393  0.00  0.00    -0.321 N 
ATOM     31  C   UNL     1       4.137  -1.557  23.765  0.00  0.00    +0.130 C 
ATOM     32  C   UNL     1       5.005   0.708  23.161  0.00  0.00    +0.130 C 
ENDBRANCH  27   9
ENDBRANCH  19  23
ENDBRANCH  10  15
BRANCH   5  14
ATOM     14  C   UNL     1      -5.447   1.344  25.375  0.00  0.00    +0.120 C 
BRANCH  14  16
ATOM     16  C   UNL     1      -4.584   0.135  25.132  0.00  0.00    -0.026 A 
ATOM     17  C   UNL     1      -3.427  -0.060  25.886  0.00  0.00    +0.054 A 
ATOM     18  C   UNL     1      -4.941  -0.792  24.153  0.00  0.00    +0.054 A 
ATOM     20  C   UNL     1      -4.141  -1.912  23.927  0.00  0.00    +0.165 A 
ATOM     21  C   UNL     1      -2.626  -1.180  25.661  0.00  0.00    +0.165 A 
ATOM     22  C   UNL     1      -2.984  -2.106  24.681  0.00  0.00    +0.204 A 
BRANCH  20   2
ATOM      2  O   UNL     1      -4.502  -2.809  22.967  0.00  0.00    -0.491 OA
ATOM     28  C   UNL     1      -5.677  -3.581  23.211  0.00  0.00    +0.277 C 
ENDBRANCH  20   2
BRANCH  21   3
ATOM      3  O   UNL     1      -1.498  -1.357  26.403  0.00  0.00    -0.491 OA
ATOM     29  C   UNL     1      -0.548  -0.293  26.401  0.00  0.00    +0.277 C 
ENDBRANCH  21   3
BRANCH  22   4
ATOM      4  O   UNL     1      -2.202  -3.201  24.460  0.00  0.00    -0.488 OA
ATOM     30  C   UNL     1      -0.952  -2.983  23.810  0.00  0.00    +0.277 C 
ENDBRANCH  22   4
ENDBRANCH  14  16
ENDBRANCH   5  14
TORSDOF 8
ENDMDL
MODEL 2
REMARK VINA RESULT:       4.0      0.091      2.272
REMARK  Name = 45783819
REMARK  13 active torsions:
REMARK  status: ('A' for Active; 'I' for Inactive)
REMARK    1  A    between atoms: O_2  and  C_20
REMARK    2  A    between atoms: O_2  and  C_28
REMARK    3  A    between atoms: O_3  and  C_21
REMARK    4  A    between atoms: O_3  and  C_29
REMARK    5  A    between atoms: O_4  and  C_22
REMARK    6  A    between atoms: O_4  and  C_30
REMARK    7  A    between atoms: N_5  and  C_14
REMARK    8  A    between atoms: N_9  and  C_27
REMARK    9  A    between atoms: N_9  and  C_31
REMARK   10  A    between atoms: N_9  and  C_32
REMARK   11  A    between atoms: C_10  and  C_15
REMARK   12  A    between atoms: C_14  and  C_16
REMARK   13  A    between atoms: C_19  and  C_23
REMARK                            x       y       z     vdW  Elec       q    Type
REMARK                         _______ _______ _______ _____ _____    ______ ____
ROOT
ATOM      5  N   UNL     1      -4.695   2.491  25.413  0.00  0.00    -0.287 NA
ATOM     10  C   UNL     1      -4.445   3.056  24.072  0.00  0.00    +0.146 C 
ATOM     11  C   UNL     1      -4.344   4.576  24.301  0.00  0.00    +0.030 C 
ATOM     12  C   UNL     1      -4.611   4.772  25.786  0.00  0.00    +0.017 C 
ATOM     13  C   UNL     1      -5.384   3.530  26.178  0.00  0.00    +0.085 C 
ENDROOT
BRANCH  10  15
ATOM      1  O   UNL     1      -3.257   2.307  22.072  0.00  0.00    -0.336 OA
ATOM      6  N   UNL     1      -2.074   2.114  23.963  0.00  0.00    -0.190 NA
ATOM      7  N   UNL     1      -2.017   1.770  21.702  0.00  0.00    -0.056 NA
ATOM     15  C   UNL     1      -3.207   2.480  23.419  0.00  0.00    +0.245 A 
ATOM     19  C   UNL     1      -1.377   1.686  22.872  0.00  0.00    +0.204 A 
BRANCH  19  23
ATOM      8  N   UNL     1       2.198   1.437  23.869  0.00  0.00    -0.240 NA
ATOM     23  C   UNL     1      -0.038   1.181  22.984  0.00  0.00    +0.041 A 
ATOM     24  C   UNL     1       0.338   0.000  22.355  0.00  0.00    +0.016 A 
ATOM     25  C   UNL     1       0.920   1.857  23.723  0.00  0.00    +0.124 A 
ATOM     26  C   UNL     1       1.643  -0.463  22.481  0.00  0.00    +0.044 A 
ATOM     27  C   UNL     1       2.526   0.285  23.242  0.00  0.00    +0.121 A 
BRANCH  27   9
ATOM      9  N   UNL     1       3.852  -0.201  23.364  0.00  0.00    -0.321 N 
ATOM     31  C   UNL     1       4.092  -1.567  23.771  0.00  0.00    +0.130 C 
ATOM     32  C   UNL     1       4.973   0.670  23.089  0.00  0.00    +0.130 C 
ENDBRANCH  27   9
ENDBRANCH  19  23
ENDBRANCH  10  15
BRANCH   5  14
ATOM     14  C   UNL     1      -5.448   1.244  25.380  0.00  0.00    +0.120 C 
BRANCH  14  16
ATOM     16  C   UNL     1      -4.557   0.057  25.126  0.00  0.00    -0.026 A 
ATOM     17  C   UNL     1      -4.911  -0.889  24.164  0.00  0.00    +0.054 A 
ATOM     18  C   UNL     1      -3.377  -0.097  25.853  0.00  0.00    +0.054 A 
ATOM     20  C   UNL     1      -2.551  -1.196  25.618  0.00  0.00    +0.165 A 
ATOM     21  C   UNL     1      -4.085  -1.988  23.928  0.00  0.00    +0.165 A 
ATOM     22  C   UNL     1      -2.905  -2.142  24.656  0.00  0.00    +0.204 A 
BRANCH  20   2
ATOM      2  O   UNL     1      -1.401  -1.334  26.335  0.00  0.00    -0.491 OA
ATOM     28  C   UNL     1      -0.565  -0.183  26.448  0.00  0.00    +0.277 C 
ENDBRANCH  20   2
BRANCH  21   3
ATOM      3  O   UNL     1      -4.444  -2.905  22.986  0.00  0.00    -0.491 OA
ATOM     29  C   UNL     1      -5.675  -3.595  23.190  0.00  0.00    +0.277 C 
ENDBRANCH  21   3
BRANCH  22   4
ATOM      4  O   UNL     1      -2.098  -3.217  24.427  0.00  0.00    -0.488 OA
ATOM     30  C   UNL     1      -0.961  -3.006  23.593  0.00  0.00    +0.277 C 
ENDBRANCH  22   4
ENDBRANCH  14  16
ENDBRANCH   5  14
TORSDOF 8
ENDMDL
MODEL 3
REMARK VINA RESULT:       4.5      2.342      5.166
REMARK  Name = 45783819
REMARK  13 active torsions:
REMARK  status: ('A' for Active; 'I' for Inactive)
REMARK    1  A    between atoms: O_2  and  C_20
REMARK    2  A    between atoms: O_2  and  C_28
REMARK    3  A    between atoms: O_3  and  C_21
REMARK    4  A    between atoms: O_3  and  C_29
REMARK    5  A    between atoms: O_4  and  C_22
REMARK    6  A    between atoms: O_4  and  C_30
REMARK    7  A    between atoms: N_5  and  C_14
REMARK    8  A    between atoms: N_9  and  C_27
REMARK    9  A    between atoms: N_9  and  C_31
REMARK   10  A    between atoms: N_9  and  C_32
REMARK   11  A    between atoms: C_10  and  C_15
REMARK   12  A    between atoms: C_14  and  C_16
REMARK   13  A    between atoms: C_19  and  C_23
REMARK                            x       y       z     vdW  Elec       q    Type
REMARK                         _______ _______ _______ _____ _____    ______ ____
ROOT
ATOM      5  N   UNL     1      -3.593  -1.069  24.543  0.00  0.00    -0.287 NA
ATOM     10  C   UNL     1      -2.378  -1.907  24.529  0.00  0.00    +0.146 C 
ATOM     11  C   UNL     1      -2.740  -3.106  23.634  0.00  0.00    +0.030 C 
ATOM     12  C   UNL     1      -4.194  -2.886  23.243  0.00  0.00    +0.017 C 
ATOM     13  C   UNL     1      -4.722  -1.975  24.332  0.00  0.00    +0.085 C 
ENDROOT
BRANCH  10  15
ATOM      1  O   UNL     1      -1.392  -0.034  23.307  0.00  0.00    -0.336 OA
ATOM      6  N   UNL     1       0.110  -1.429  24.208  0.00  0.00    -0.190 NA
ATOM      7  N   UNL     1      -0.133   0.478  22.969  0.00  0.00    -0.056 NA
ATOM     15  C   UNL     1      -1.159  -1.156  24.036  0.00  0.00    +0.245 A 
ATOM     19  C   UNL     1       0.700  -0.400  23.535  0.00  0.00    +0.204 A 
BRANCH  19  23
ATOM      8  N   UNL     1       4.310  -1.245  23.827  0.00  0.00    -0.240 NA
ATOM     23  C   UNL     1       2.127  -0.275  23.450  0.00  0.00    +0.041 A 
ATOM     24  C   UNL     1       2.717   0.874  22.938  0.00  0.00    +0.016 A 
ATOM     25  C   UNL     1       2.960  -1.298  23.878  0.00  0.00    +0.124 A 
ATOM     26  C   UNL     1       4.103   0.965  22.870  0.00  0.00    +0.044 A 
ATOM     27  C   UNL     1       4.847  -0.111  23.323  0.00  0.00    +0.121 A 
BRANCH  27   9
ATOM      9  N   UNL     1       6.259  -0.005  23.245  0.00  0.00    -0.321 N 
ATOM     31  C   UNL     1       6.951   1.039  23.968  0.00  0.00    +0.130 C 
ATOM     32  C   UNL     1       7.014  -0.935  22.436  0.00  0.00    +0.130 C 
ENDBRANCH  27   9
ENDBRANCH  19  23
ENDBRANCH  10  15
BRANCH   5  14
ATOM     14  C   UNL     1      -3.739  -0.288  25.765  0.00  0.00    +0.120 C 
BRANCH  14  16
ATOM     16  C   UNL     1      -3.285   1.135  25.577  0.00  0.00    -0.026 A 
ATOM     17  C   UNL     1      -4.211   2.125  25.248  0.00  0.00    +0.054 A 
ATOM     18  C   UNL     1      -1.938   1.465  25.732  0.00  0.00    +0.054 A 
ATOM     20  C   UNL     1      -1.518   2.784  25.557  0.00  0.00    +0.165 A 
ATOM     21  C   UNL     1      -3.792   3.444  25.074  0.00  0.00    +0.165 A 
ATOM     22  C   UNL     1      -2.444   3.773  25.228  0.00  0.00    +0.204 A 
BRANCH  20   2
ATOM      2  O   UNL     1      -0.200   3.091  25.712  0.00  0.00    -0.491 OA
ATOM     28  C   UNL     1       0.486   2.476  26.801  0.00  0.00    +0.277 C 
ENDBRANCH  20   2
BRANCH  21   3
ATOM      3  O   UNL     1      -4.706   4.401  24.751  0.00  0.00    -0.491 OA
ATOM     29  C   UNL     1      -5.918   4.419  25.503  0.00  0.00    +0.277 C 
ENDBRANCH  21   3
BRANCH  22   4
ATOM      4  O   UNL     1      -2.033   5.062  25.057  0.00  0.00    -0.488 OA
ATOM     30  C   UNL     1      -0.719   5.259  24.543  0.00  0.00    +0.277 C 
ENDBRANCH  22   4
ENDBRANCH  14  16
ENDBRANCH   5  14
TORSDOF 8
ENDMDL
MODEL 4
REMARK VINA RESULT:       4.5      2.341      4.832
REMARK  Name = 45783819
REMARK  13 active torsions:
REMARK  status: ('A' for Active; 'I' for Inactive)
REMARK    1  A    between atoms: O_2  and  C_20
REMARK    2  A    between atoms: O_2  and  C_28
REMARK    3  A    between atoms: O_3  and  C_21
REMARK    4  A    between atoms: O_3  and  C_29
REMARK    5  A    between atoms: O_4  and  C_22
REMARK    6  A    between atoms: O_4  and  C_30
REMARK    7  A    between atoms: N_5  and  C_14
REMARK    8  A    between atoms: N_9  and  C_27
REMARK    9  A    between atoms: N_9  and  C_31
REMARK   10  A    between atoms: N_9  and  C_32
REMARK   11  A    between atoms: C_10  and  C_15
REMARK   12  A    between atoms: C_14  and  C_16
REMARK   13  A    between atoms: C_19  and  C_23
REMARK                            x       y       z     vdW  Elec       q    Type
REMARK                         _______ _______ _______ _____ _____    ______ ____
ROOT
ATOM      5  N   UNL     1      -3.603  -1.064  24.531  0.00  0.00    -0.287 NA
ATOM     10  C   UNL     1      -2.390  -1.904  24.525  0.00  0.00    +0.146 C 
ATOM     11  C   UNL     1      -2.748  -3.103  23.627  0.00  0.00    +0.030 C 
ATOM     12  C   UNL     1      -4.199  -2.879  23.226  0.00  0.00    +0.017 C 
ATOM     13  C   UNL     1      -4.733  -1.967  24.311  0.00  0.00    +0.085 C 
ENDROOT
BRANCH  10  15
ATOM      1  O   UNL     1      -1.391  -0.021  23.329  0.00  0.00    -0.336 OA
ATOM      6  N   UNL     1       0.101  -1.442  24.206  0.00  0.00    -0.190 NA
ATOM      7  N   UNL     1      -0.128   0.486  22.996  0.00  0.00    -0.056 NA
ATOM     15  C   UNL     1      -1.165  -1.156  24.041  0.00  0.00    +0.245 A 
ATOM     19  C   UNL     1       0.699  -0.407  23.548  0.00  0.00    +0.204 A 
BRANCH  19  23
ATOM      8  N   UNL     1       4.303  -1.273  23.848  0.00  0.00    -0.240 NA
ATOM     23  C   UNL     1       2.126  -0.293  23.462  0.00  0.00    +0.041 A 
ATOM     24  C   UNL     1       2.724   0.848  22.939  0.00  0.00    +0.016 A 
ATOM     25  C   UNL     1       2.952  -1.317  23.899  0.00  0.00    +0.124 A 
ATOM     26  C   UNL     1       4.111   0.929  22.870  0.00  0.00    +0.044 A 
ATOM     27  C   UNL     1       4.848  -0.148  23.334  0.00  0.00    +0.121 A 
BRANCH  27   9
ATOM      9  N   UNL     1       6.260  -0.051  23.255  0.00  0.00    -0.321 N 
ATOM     31  C   UNL     1       6.960   0.986  23.979  0.00  0.00    +0.130 C 
ATOM     32  C   UNL     1       7.008  -0.986  22.444  0.00  0.00    +0.130 C 
ENDBRANCH  27   9
ENDBRANCH  19  23
ENDBRANCH  10  15
BRANCH   5  14
ATOM     14  C   UNL     1      -3.755  -0.282  25.752  0.00  0.00    +0.120 C 
BRANCH  14  16
ATOM     16  C   UNL     1      -3.293   1.139  25.568  0.00  0.00    -0.026 A 
ATOM     17  C   UNL     1      -1.950   1.465  25.756  0.00  0.00    +0.054 A 
ATOM     18  C   UNL     1      -4.207   2.130  25.211  0.00  0.00    +0.054 A 
ATOM     20  C   UNL     1      -3.779   3.447  25.041  0.00  0.00    +0.165 A 
ATOM     21  C   UNL     1      -1.520   2.782  25.586  0.00  0.00    +0.165 A 
ATOM     22  C   UNL     1      -2.435   3.772  25.230  0.00  0.00    +0.204 A 
BRANCH  20   2
ATOM      2  O   UNL     1      -4.682   4.404  24.692  0.00  0.00    -0.491 OA
ATOM     28  C   UNL     1      -5.887   4.467  25.453  0.00  0.00    +0.277 C 
ENDBRANCH  20   2
BRANCH  21   3
ATOM      3  O   UNL     1      -0.206   3.087  25.774  0.00  0.00    -0.491 OA
ATOM     29  C   UNL     1       0.463   2.435  26.852  0.00  0.00    +0.277 C 
ENDBRANCH  21   3
BRANCH  22   4
ATOM      4  O   UNL     1      -2.017   5.060  25.064  0.00  0.00    -0.488 OA
ATOM     30  C   UNL     1      -0.735   5.252  24.470  0.00  0.00    +0.277 C 
ENDBRANCH  22   4
ENDBRANCH  14  16
ENDBRANCH   5  14
TORSDOF 8
ENDMDL
MODEL 5
REMARK VINA RESULT:       5.1      2.286      4.875
REMARK  Name = 45783819
REMARK  13 active torsions:
REMARK  status: ('A' for Active; 'I' for Inactive)
REMARK    1  A    between atoms: O_2  and  C_20
REMARK    2  A    between atoms: O_2  and  C_28
REMARK    3  A    between atoms: O_3  and  C_21
REMARK    4  A    between atoms: O_3  and  C_29
REMARK    5  A    between atoms: O_4  and  C_22
REMARK    6  A    between atoms: O_4  and  C_30
REMARK    7  A    between atoms: N_5  and  C_14
REMARK    8  A    between atoms: N_9  and  C_27
REMARK    9  A    between atoms: N_9  and  C_31
REMARK   10  A    between atoms: N_9  and  C_32
REMARK   11  A    between atoms: C_10  and  C_15
REMARK   12  A    between atoms: C_14  and  C_16
REMARK   13  A    between atoms: C_19  and  C_23
REMARK                            x       y       z     vdW  Elec       q    Type
REMARK                         _______ _______ _______ _____ _____    ______ ____
ROOT
ATOM      5  N   UNL     1      -3.283  -1.235  23.706  0.00  0.00    -0.287 NA
ATOM     10  C   UNL     1      -2.168  -0.906  24.615  0.00  0.00    +0.146 C 
ATOM     11  C   UNL     1      -2.091  -2.098  25.587  0.00  0.00    +0.030 C 
ATOM     12  C   UNL     1      -3.239  -3.014  25.184  0.00  0.00    +0.017 C 
ATOM     13  C   UNL     1      -4.198  -2.088  24.464  0.00  0.00    +0.085 C 
ENDROOT
BRANCH  10  15
ATOM      1  O   UNL     1      -0.960  -0.441  22.542  0.00  0.00    -0.336 OA
ATOM      6  N   UNL     1       0.357  -0.647  24.341  0.00  0.00    -0.190 NA
ATOM      7  N   UNL     1       0.351  -0.251  22.088  0.00  0.00    -0.056 NA
ATOM     15  C   UNL     1      -0.867  -0.667  23.878  0.00  0.00    +0.245 A 
ATOM     19  C   UNL     1       1.069  -0.389  23.206  0.00  0.00    +0.204 A 
BRANCH  19  23
ATOM      8  N   UNL     1       4.644  -1.241  23.779  0.00  0.00    -0.240 NA
ATOM     23  C   UNL     1       2.499  -0.271  23.225  0.00  0.00    +0.041 A 
ATOM     24  C   UNL     1       3.131   0.867  22.738  0.00  0.00    +0.016 A 
ATOM     25  C   UNL     1       3.293  -1.289  23.731  0.00  0.00    +0.124 A 
ATOM     26  C   UNL     1       4.519   0.953  22.771  0.00  0.00    +0.044 A 
ATOM     27  C   UNL     1       5.222  -0.119  23.297  0.00  0.00    +0.121 A 
BRANCH  27   9
ATOM      9  N   UNL     1       6.636  -0.018  23.322  0.00  0.00    -0.321 N 
ATOM     31  C   UNL     1       7.278   1.039  24.071  0.00  0.00    +0.130 C 
ATOM     32  C   UNL     1       7.445  -0.968  22.591  0.00  0.00    +0.130 C 
ENDBRANCH  27   9
ENDBRANCH  19  23
ENDBRANCH  10  15
BRANCH   5  14
ATOM     14  C   UNL     1      -3.952  -0.057  23.167  0.00  0.00    +0.120 C 
BRANCH  14  16
ATOM     16  C   UNL     1      -3.601   1.188  23.937  0.00  0.00    -0.026 A 
ATOM     17  C   UNL     1      -2.312   1.717  23.858  0.00  0.00    +0.054 A 
ATOM     18  C   UNL     1      -4.563   1.814  24.729  0.00  0.00    +0.054 A 
ATOM     20  C   UNL     1      -4.237   2.967  25.443  0.00  0.00    +0.165 A 
ATOM     21  C   UNL     1      -1.985   2.871  24.571  0.00  0.00    +0.165 A 
ATOM     22  C   UNL     1      -2.948   3.495  25.364  0.00  0.00    +0.204 A 
BRANCH  20   2
ATOM      2  O   UNL     1      -5.187   3.568  26.213  0.00  0.00    -0.491 OA
ATOM     28  C   UNL     1      -5.958   4.601  25.603  0.00  0.00    +0.277 C 
ENDBRANCH  20   2
BRANCH  21   3
ATOM      3  O   UNL     1      -0.723   3.375  24.486  0.00  0.00    -0.491 OA
ATOM     29  C   UNL     1       0.279   2.752  25.286  0.00  0.00    +0.277 C 
ENDBRANCH  21   3
BRANCH  22   4
ATOM      4  O   UNL     1      -2.630   4.623  26.062  0.00  0.00    -0.488 OA
ATOM     30  C   UNL     1      -2.078   5.708  25.320  0.00  0.00    +0.277 C 
ENDBRANCH  22   4
ENDBRANCH  14  16
ENDBRANCH   5  14
TORSDOF 8
ENDMDL
MODEL 6
REMARK VINA RESULT:       5.2      2.262      4.996
REMARK  Name = 45783819
REMARK  13 active torsions:
REMARK  status: ('A' for Active; 'I' for Inactive)
REMARK    1  A    between atoms: O_2  and  C_20
REMARK    2  A    between atoms: O_2  and  C_28
REMARK    3  A    between atoms: O_3  and  C_21
REMARK    4  A    between atoms: O_3  and  C_29
REMARK    5  A    between atoms: O_4  and  C_22
REMARK    6  A    between atoms: O_4  and  C_30
REMARK    7  A    between atoms: N_5  and  C_14
REMARK    8  A    between atoms: N_9  and  C_27
REMARK    9  A    between atoms: N_9  and  C_31
REMARK   10  A    between atoms: N_9  and  C_32
REMARK   11  A    between atoms: C_10  and  C_15
REMARK   12  A    between atoms: C_14  and  C_16
REMARK   13  A    between atoms: C_19  and  C_23
REMARK                            x       y       z     vdW  Elec       q    Type
REMARK                         _______ _______ _______ _____ _____    ______ ____
ROOT
ATOM      5  N   UNL     1      -3.163  -1.398  23.863  0.00  0.00    -0.287 NA
ATOM     10  C   UNL     1      -2.116  -0.846  24.744  0.00  0.00    +0.146 C 
ATOM     11  C   UNL     1      -1.937  -1.903  25.849  0.00  0.00    +0.030 C 
ATOM     12  C   UNL     1      -2.967  -2.980  25.540  0.00  0.00    +0.017 C 
ATOM     13  C   UNL     1      -4.001  -2.255  24.702  0.00  0.00    +0.085 C 
ENDROOT
BRANCH  10  15
ATOM      1  O   UNL     1      -0.953  -0.093  22.730  0.00  0.00    -0.336 OA
ATOM      6  N   UNL     1       0.410  -0.675  24.409  0.00  0.00    -0.190 NA
ATOM      7  N   UNL     1       0.352   0.105  22.259  0.00  0.00    -0.056 NA
ATOM     15  C   UNL     1      -0.828  -0.551  24.004  0.00  0.00    +0.245 A 
ATOM     19  C   UNL     1       1.097  -0.261  23.306  0.00  0.00    +0.204 A 
BRANCH  19  23
ATOM      8  N   UNL     1       4.635  -1.318  23.756  0.00  0.00    -0.240 NA
ATOM     23  C   UNL     1       2.532  -0.222  23.283  0.00  0.00    +0.041 A 
ATOM     24  C   UNL     1       3.211   0.888  22.796  0.00  0.00    +0.016 A 
ATOM     25  C   UNL     1       3.283  -1.291  23.748  0.00  0.00    +0.124 A 
ATOM     26  C   UNL     1       4.602   0.897  22.788  0.00  0.00    +0.044 A 
ATOM     27  C   UNL     1       5.260  -0.220  23.274  0.00  0.00    +0.121 A 
BRANCH  27   9
ATOM      9  N   UNL     1       6.677  -0.198  23.258  0.00  0.00    -0.321 N 
ATOM     31  C   UNL     1       7.413  -1.206  22.527  0.00  0.00    +0.130 C 
ATOM     32  C   UNL     1       7.396   0.829  23.979  0.00  0.00    +0.130 C 
ENDBRANCH  27   9
ENDBRANCH  19  23
ENDBRANCH  10  15
BRANCH   5  14
ATOM     14  C   UNL     1      -3.941  -0.371  23.180  0.00  0.00    +0.120 C 
BRANCH  14  16
ATOM     16  C   UNL     1      -3.928   0.933  23.932  0.00  0.00    -0.026 A 
ATOM     17  C   UNL     1      -4.930   1.212  24.862  0.00  0.00    +0.054 A 
ATOM     18  C   UNL     1      -2.915   1.863  23.700  0.00  0.00    +0.054 A 
ATOM     20  C   UNL     1      -2.903   3.071  24.397  0.00  0.00    +0.165 A 
ATOM     21  C   UNL     1      -4.919   2.420  25.560  0.00  0.00    +0.165 A 
ATOM     22  C   UNL     1      -3.905   3.350  25.326  0.00  0.00    +0.204 A 
BRANCH  20   2
ATOM      2  O   UNL     1      -1.907   3.970  24.160  0.00  0.00    -0.491 OA
ATOM     28  C   UNL     1      -0.614   3.653  24.672  0.00  0.00    +0.277 C 
ENDBRANCH  20   2
BRANCH  21   3
ATOM      3  O   UNL     1      -5.904   2.681  26.463  0.00  0.00    -0.491 OA
ATOM     29  C   UNL     1      -6.642   1.565  26.957  0.00  0.00    +0.277 C 
ENDBRANCH  21   3
BRANCH  22   4
ATOM      4  O   UNL     1      -3.894   4.532  26.007  0.00  0.00    -0.488 OA
ATOM     30  C   UNL     1      -3.179   4.561  27.239  0.00  0.00    +0.277 C 
ENDBRANCH  22   4
ENDBRANCH  14  16
ENDBRANCH   5  14
TORSDOF 8
ENDMDL
MODEL 7
REMARK VINA RESULT:       7.4      2.084      3.654
REMARK  Name = 45783819
REMARK  13 active torsions:
REMARK  status: ('A' for Active; 'I' for Inactive)
REMARK    1  A    between atoms: O_2  and  C_20
REMARK    2  A    between atoms: O_2  and  C_28
REMARK    3  A    between atoms: O_3  and  C_21
REMARK    4  A    between atoms: O_3  and  C_29
REMARK    5  A    between atoms: O_4  and  C_22
REMARK    6  A    between atoms: O_4  and  C_30
REMARK    7  A    between atoms: N_5  and  C_14
REMARK    8  A    between atoms: N_9  and  C_27
REMARK    9  A    between atoms: N_9  and  C_31
REMARK   10  A    between atoms: N_9  and  C_32
REMARK   11  A    between atoms: C_10  and  C_15
REMARK   12  A    between atoms: C_14  and  C_16
REMARK   13  A    between atoms: C_19  and  C_23
REMARK                            x       y       z     vdW  Elec       q    Type
REMARK                         _______ _______ _______ _____ _____    ______ ____
ROOT
ATOM      5  N   UNL     1      -0.820   3.193  25.563  0.00  0.00    -0.287 NA
ATOM     10  C   UNL     1      -0.981   2.747  24.165  0.00  0.00    +0.146 C 
ATOM     11  C   UNL     1      -0.954   4.043  23.335  0.00  0.00    +0.030 C 
ATOM     12  C   UNL     1      -0.837   5.166  24.356  0.00  0.00    +0.017 C 
ATOM     13  C   UNL     1      -1.371   4.546  25.631  0.00  0.00    +0.085 C 
ENDROOT
BRANCH  10  15
ATOM      1  O   UNL     1      -0.345   0.623  23.135  0.00  0.00    -0.336 OA
ATOM      6  N   UNL     1       1.387   1.834  23.876  0.00  0.00    -0.190 NA
ATOM      7  N   UNL     1       0.805  -0.121  22.842  0.00  0.00    -0.056 NA
ATOM     15  C   UNL     1       0.087   1.760  23.742  0.00  0.00    +0.245 A 
ATOM     19  C   UNL     1       1.784   0.658  23.310  0.00  0.00    +0.204 A 
BRANCH  19  23
ATOM      8  N   UNL     1       5.421   0.876  22.565  0.00  0.00    -0.240 NA
ATOM     23  C   UNL     1       3.169   0.294  23.225  0.00  0.00    +0.041 A 
ATOM     24  C   UNL     1       3.616  -0.938  23.689  0.00  0.00    +0.016 A 
ATOM     25  C   UNL     1       4.103   1.159  22.676  0.00  0.00    +0.124 A 
ATOM     26  C   UNL     1       4.964  -1.264  23.591  0.00  0.00    +0.044 A 
ATOM     27  C   UNL     1       5.817  -0.330  23.027  0.00  0.00    +0.121 A 
BRANCH  27   9
ATOM      9  N   UNL     1       7.189  -0.675  22.936  0.00  0.00    -0.321 N 
ATOM     31  C   UNL     1       8.188   0.132  23.601  0.00  0.00    +0.130 C 
ATOM     32  C   UNL     1       7.599  -1.832  22.172  0.00  0.00    +0.130 C 
ENDBRANCH  27   9
ENDBRANCH  19  23
ENDBRANCH  10  15
BRANCH   5  14
ATOM     14  C   UNL     1      -1.447   2.297  26.527  0.00  0.00    +0.120 C 
BRANCH  14  16
ATOM     16  C   UNL     1      -2.321   1.272  25.855  0.00  0.00    -0.026 A 
ATOM     17  C   UNL     1      -3.587   1.631  25.392  0.00  0.00    +0.054 A 
ATOM     18  C   UNL     1      -1.865  -0.036  25.694  0.00  0.00    +0.054 A 
ATOM     20  C   UNL     1      -2.675  -0.986  25.071  0.00  0.00    +0.165 A 
ATOM     21  C   UNL     1      -4.398   0.682  24.768  0.00  0.00    +0.165 A 
ATOM     22  C   UNL     1      -3.941  -0.627  24.609  0.00  0.00    +0.204 A 
BRANCH  20   2
ATOM      2  O   UNL     1      -2.217  -2.260  24.920  0.00  0.00    -0.491 OA
ATOM     28  C   UNL     1      -0.803  -2.447  24.940  0.00  0.00    +0.277 C 
ENDBRANCH  20   2
BRANCH  21   3
ATOM      3  O   UNL     1      -5.632   1.045  24.322  0.00  0.00    -0.491 OA
ATOM     29  C   UNL     1      -6.318   2.053  25.062  0.00  0.00    +0.277 C 
ENDBRANCH  21   3
BRANCH  22   4
ATOM      4  O   UNL     1      -4.733  -1.555  24.000  0.00  0.00    -0.488 OA
ATOM     30  C   UNL     1      -4.194  -2.866  23.847  0.00  0.00    +0.277 C 
ENDBRANCH  22   4
ENDBRANCH  14  16
ENDBRANCH   5  14
TORSDOF 8
ENDMDL
MODEL 8
REMARK VINA RESULT:       7.4      2.082      3.411
REMARK  Name = 45783819
REMARK  13 active torsions:
REMARK  status: ('A' for Active; 'I' for Inactive)
REMARK    1  A    between atoms: O_2  and  C_20
REMARK    2  A    between atoms: O_2  and  C_28
REMARK    3  A    between atoms: O_3  and  C_21
REMARK    4  A    between atoms: O_3  and  C_29
REMARK    5  A    between atoms: O_4  and  C_22
REMARK    6  A    between atoms: O_4  and  C_30
REMARK    7  A    between atoms: N_5  and  C_14
REMARK    8  A    between atoms: N_9  and  C_27
REMARK    9  A    between atoms: N_9  and  C_31
REMARK   10  A    between atoms: N_9  and  C_32
REMARK   11  A    between atoms: C_10  and  C_15
REMARK   12  A    between atoms: C_14  and  C_16
REMARK   13  A    between atoms: C_19  and  C_23
REMARK                            x       y       z     vdW  Elec       q    Type
REMARK                         _______ _______ _______ _____ _____    ______ ____
ROOT
ATOM      5  N   UNL     1      -0.801   3.112  25.604  0.00  0.00    -0.287 NA
ATOM     10  C   UNL     1      -0.947   2.695  24.195  0.00  0.00    +0.146 C 
ATOM     11  C   UNL     1      -0.915   4.009  23.393  0.00  0.00    +0.030 C 
ATOM     12  C   UNL     1      -0.811   5.111  24.439  0.00  0.00    +0.017 C 
ATOM     13  C   UNL     1      -1.355   4.462  25.696  0.00  0.00    +0.085 C 
ENDROOT
BRANCH  10  15
ATOM      1  O   UNL     1      -0.297   0.588  23.141  0.00  0.00    -0.336 OA
ATOM      6  N   UNL     1       1.427   1.801  23.898  0.00  0.00    -0.190 NA
ATOM      7  N   UNL     1       0.858  -0.145  22.840  0.00  0.00    -0.056 NA
ATOM     15  C   UNL     1       0.128   1.720  23.762  0.00  0.00    +0.245 A 
ATOM     19  C   UNL     1       1.831   0.635  23.318  0.00  0.00    +0.204 A 
BRANCH  19  23
ATOM      8  N   UNL     1       5.469   0.887  22.585  0.00  0.00    -0.240 NA
ATOM     23  C   UNL     1       3.219   0.280  23.230  0.00  0.00    +0.041 A 
ATOM     24  C   UNL     1       3.672  -0.957  23.674  0.00  0.00    +0.016 A 
ATOM     25  C   UNL     1       4.149   1.159  22.698  0.00  0.00    +0.124 A 
ATOM     26  C   UNL     1       5.023  -1.273  23.574  0.00  0.00    +0.044 A 
ATOM     27  C   UNL     1       5.872  -0.325  23.027  0.00  0.00    +0.121 A 
BRANCH  27   9
ATOM      9  N   UNL     1       7.246  -0.660  22.934  0.00  0.00    -0.321 N 
ATOM     31  C   UNL     1       7.664  -1.809  22.161  0.00  0.00    +0.130 C 
ATOM     32  C   UNL     1       8.237   0.140  23.618  0.00  0.00    +0.130 C 
ENDBRANCH  27   9
ENDBRANCH  19  23
ENDBRANCH  10  15
BRANCH   5  14
ATOM     14  C   UNL     1      -1.434   2.195  26.543  0.00  0.00    +0.120 C 
BRANCH  14  16
ATOM     16  C   UNL     1      -2.295   1.179  25.840  0.00  0.00    -0.026 A 
ATOM     17  C   UNL     1      -1.822  -0.117  25.638  0.00  0.00    +0.054 A 
ATOM     18  C   UNL     1      -3.567   1.535  25.391  0.00  0.00    +0.054 A 
ATOM     20  C   UNL     1      -4.365   0.594  24.739  0.00  0.00    +0.165 A 
ATOM     21  C   UNL     1      -2.619  -1.059  24.987  0.00  0.00    +0.165 A 
ATOM     22  C   UNL     1      -3.891  -0.702  24.537  0.00  0.00    +0.204 A 
BRANCH  20   2
ATOM      2  O   UNL     1      -5.605   0.954  24.306  0.00  0.00    -0.491 OA
ATOM     28  C   UNL     1      -6.307   1.924  25.082  0.00  0.00    +0.277 C 
ENDBRANCH  20   2
BRANCH  21   3
ATOM      3  O   UNL     1      -2.144  -2.321  24.795  0.00  0.00    -0.491 OA
ATOM     29  C   UNL     1      -0.744  -2.520  24.976  0.00  0.00    +0.277 C 
ENDBRANCH  21   3
BRANCH  22   4
ATOM      4  O   UNL     1      -4.671  -1.622  23.900  0.00  0.00    -0.488 OA
ATOM     30  C   UNL     1      -4.207  -2.969  23.892  0.00  0.00    +0.277 C 
ENDBRANCH  22   4
ENDBRANCH  14  16
ENDBRANCH   5  14
TORSDOF 8
ENDMDL
