MODEL 1
REMARK VINA RESULT:      -0.3      0.000      0.000
REMARK  Name = 44716170
REMARK  8 active torsions:
REMARK  status: ('A' for Active; 'I' for Inactive)
REMARK    1  A    between atoms: N_4  and  C_15
REMARK    2  A    between atoms: N_7  and  C_23
REMARK    3  A    between atoms: N_7  and  C_24
REMARK    4  A    between atoms: N_7  and  C_25
REMARK    5  A    between atoms: C_9  and  C_16
REMARK    6  A    between atoms: C_10  and  C_15
REMARK    7  A    between atoms: C_22  and  C_23
REMARK    8  A    between atoms: C_24  and  C_26
REMARK                            x       y       z     vdW  Elec       q    Type
REMARK                         _______ _______ _______ _____ _____    ______ ____
ROOT
ATOM     15  C   UNL     1      -2.169   4.641  24.264  0.00  0.00    +0.164 C 
ENDROOT
BRANCH  15  10
ATOM      2  N   UNL     1      -1.790   2.165  24.196  0.00  0.00    -0.297 NA
ATOM      8  C   UNL     1       0.800   2.359  24.372  0.00  0.00    +0.005 C 
ATOM      9  C   UNL     1       0.385   1.302  23.329  0.00  0.00    +0.092 C 
ATOM     10  C   UNL     1      -1.338   3.490  23.691  0.00  0.00    +0.078 C 
ATOM     11  C   UNL     1       0.175   3.698  23.939  0.00  0.00    +0.025 C 
ATOM     12  C   UNL     1       0.173   2.006  25.734  0.00  0.00    +0.020 C 
ATOM     13  C   UNL     1      -1.143   1.108  23.378  0.00  0.00    +0.097 C 
ATOM     14  C   UNL     1      -1.357   1.969  25.598  0.00  0.00    +0.085 C 
BRANCH   9  16
ATOM      1  O   UNL     1       0.490  -1.015  23.870  0.00  0.00    -0.275 OA
ATOM      3  N   UNL     1       2.480   0.038  23.354  0.00  0.00    -0.301 N 
ATOM     16  C   UNL     1       1.111  -0.003  23.543  0.00  0.00    +0.220 C 
ATOM     17  C   UNL     1       3.324  -1.134  23.528  0.00  0.00    +0.108 C 
ATOM     18  C   UNL     1       3.272   1.201  22.963  0.00  0.00    +0.108 C 
ATOM     19  C   UNL     1       4.659  -0.737  22.917  0.00  0.00    +0.020 C 
ATOM     20  C   UNL     1       4.715   0.763  23.174  0.00  0.00    +0.020 C 
ENDBRANCH   9  16
ENDBRANCH  15  10
BRANCH  15   4
ATOM      4  N   UNL     1      -3.526   4.172  24.708  0.00  0.00    -0.250 N 
ATOM      5  N   UNL     1      -4.275   4.923  25.532  0.00  0.00    -0.065 NA
ATOM      6  N   UNL     1      -5.405   4.259  25.751  0.00  0.00    -0.133 NA
ATOM     21  C   UNL     1      -4.153   3.011  24.378  0.00  0.00    +0.135 A 
ATOM     22  C   UNL     1      -5.346   3.086  25.051  0.00  0.00    +0.097 A 
BRANCH  22  23
ATOM     23  C   UNL     1      -6.452   2.120  25.088  0.00  0.00    +0.143 C 
BRANCH  23   7
ATOM      7  N   UNL     1      -6.180   0.958  25.951  0.00  0.00    -0.295 NA
ATOM     25  C   UNL     1      -6.815   1.143  27.252  0.00  0.00    +0.105 C 
BRANCH   7  24
ATOM     24  C   UNL     1      -4.741   0.768  26.097  0.00  0.00    +0.119 C 
BRANCH  24  26
ATOM     26  C   UNL     1      -4.274  -0.503  25.439  0.00  0.00    -0.033 A 
ATOM     27  C   UNL     1      -3.474  -1.402  26.146  0.00  0.00    +0.005 A 
ATOM     28  C   UNL     1      -4.642  -0.783  24.123  0.00  0.00    +0.005 A 
ATOM     29  C   UNL     1      -3.041  -2.579  25.535  0.00  0.00    +0.000 A 
ATOM     30  C   UNL     1      -4.209  -1.960  23.513  0.00  0.00    +0.000 A 
ATOM     31  C   UNL     1      -3.409  -2.858  24.219  0.00  0.00    +0.000 A 
ENDBRANCH  24  26
ENDBRANCH   7  24
ENDBRANCH  23   7
ENDBRANCH  22  23
ENDBRANCH  15   4
TORSDOF 7
ENDMDL
MODEL 2
REMARK VINA RESULT:       0.1      1.761      4.333
REMARK  Name = 44716170
REMARK  8 active torsions:
REMARK  status: ('A' for Active; 'I' for Inactive)
REMARK    1  A    between atoms: N_4  and  C_15
REMARK    2  A    between atoms: N_7  and  C_23
REMARK    3  A    between atoms: N_7  and  C_24
REMARK    4  A    between atoms: N_7  and  C_25
REMARK    5  A    between atoms: C_9  and  C_16
REMARK    6  A    between atoms: C_10  and  C_15
REMARK    7  A    between atoms: C_22  and  C_23
REMARK    8  A    between atoms: C_24  and  C_26
REMARK                            x       y       z     vdW  Elec       q    Type
REMARK                         _______ _______ _______ _____ _____    ______ ____
ROOT
ATOM     15  C   UNL     1      -2.617  -2.358  25.010  0.00  0.00    +0.164 C 
ENDROOT
BRANCH  15  10
ATOM      2  N   UNL     1      -0.248  -1.592  25.295  0.00  0.00    -0.297 NA
ATOM      8  C   UNL     1      -0.473   0.372  23.602  0.00  0.00    +0.005 C 
ATOM      9  C   UNL     1       0.860  -0.379  23.416  0.00  0.00    +0.092 C 
ATOM     10  C   UNL     1      -1.338  -1.874  24.321  0.00  0.00    +0.078 C 
ATOM     11  C   UNL     1      -1.606  -0.654  23.410  0.00  0.00    +0.025 C 
ATOM     12  C   UNL     1      -0.580   0.873  25.054  0.00  0.00    +0.020 C 
ATOM     13  C   UNL     1       1.020  -1.422  24.540  0.00  0.00    +0.097 C 
ATOM     14  C   UNL     1      -0.510  -0.325  26.014  0.00  0.00    +0.085 C 
BRANCH   9  16
ATOM      1  O   UNL     1       1.850   1.781  23.246  0.00  0.00    -0.275 OA
ATOM      3  N   UNL     1       3.279  -0.017  23.498  0.00  0.00    -0.301 N 
ATOM     16  C   UNL     1       2.032   0.570  23.380  0.00  0.00    +0.220 C 
ATOM     17  C   UNL     1       4.508   0.761  23.474  0.00  0.00    +0.108 C 
ATOM     18  C   UNL     1       3.561  -1.439  23.663  0.00  0.00    +0.108 C 
ATOM     19  C   UNL     1       5.580  -0.207  23.953  0.00  0.00    +0.020 C 
ATOM     20  C   UNL     1       5.065  -1.553  23.459  0.00  0.00    +0.020 C 
ENDBRANCH   9  16
ENDBRANCH  15  10
BRANCH  15   4
ATOM      4  N   UNL     1      -3.711  -1.331  24.924  0.00  0.00    -0.250 N 
ATOM      5  N   UNL     1      -4.593  -1.351  23.912  0.00  0.00    -0.065 NA
ATOM      6  N   UNL     1      -5.428  -0.334  24.097  0.00  0.00    -0.133 NA
ATOM     21  C   UNL     1      -3.957  -0.305  25.784  0.00  0.00    +0.135 A 
ATOM     22  C   UNL     1      -5.052   0.316  25.240  0.00  0.00    +0.097 A 
BRANCH  22  23
ATOM     23  C   UNL     1      -5.783   1.496  25.721  0.00  0.00    +0.143 C 
BRANCH  23   7
ATOM      7  N   UNL     1      -5.026   2.750  25.565  0.00  0.00    -0.295 NA
ATOM     25  C   UNL     1      -5.932   3.892  25.629  0.00  0.00    +0.105 C 
BRANCH   7  24
ATOM     24  C   UNL     1      -4.291   2.739  24.305  0.00  0.00    +0.119 C 
BRANCH  24  26
ATOM     26  C   UNL     1      -2.972   3.456  24.419  0.00  0.00    -0.033 A 
ATOM     27  C   UNL     1      -1.995   3.279  23.440  0.00  0.00    +0.005 A 
ATOM     28  C   UNL     1      -2.728   4.298  25.504  0.00  0.00    +0.005 A 
ATOM     29  C   UNL     1      -0.772   3.942  23.547  0.00  0.00    +0.000 A 
ATOM     30  C   UNL     1      -1.506   4.962  25.610  0.00  0.00    +0.000 A 
ATOM     31  C   UNL     1      -0.529   4.785  24.632  0.00  0.00    +0.000 A 
ENDBRANCH  24  26
ENDBRANCH   7  24
ENDBRANCH  23   7
ENDBRANCH  22  23
ENDBRANCH  15   4
TORSDOF 7
ENDMDL
MODEL 3
REMARK VINA RESULT:       0.8      1.519      4.126
REMARK  Name = 44716170
REMARK  8 active torsions:
REMARK  status: ('A' for Active; 'I' for Inactive)
REMARK    1  A    between atoms: N_4  and  C_15
REMARK    2  A    between atoms: N_7  and  C_23
REMARK    3  A    between atoms: N_7  and  C_24
REMARK    4  A    between atoms: N_7  and  C_25
REMARK    5  A    between atoms: C_9  and  C_16
REMARK    6  A    between atoms: C_10  and  C_15
REMARK    7  A    between atoms: C_22  and  C_23
REMARK    8  A    between atoms: C_24  and  C_26
REMARK                            x       y       z     vdW  Elec       q    Type
REMARK                         _______ _______ _______ _____ _____    ______ ____
ROOT
ATOM     15  C   UNL     1      -5.457  -0.489  24.375  0.00  0.00    +0.164 C 
ENDROOT
BRANCH  15  10
ATOM      2  N   UNL     1      -3.478  -1.940  24.886  0.00  0.00    -0.297 NA
ATOM      8  C   UNL     1      -1.761   0.010  24.728  0.00  0.00    +0.005 C 
ATOM      9  C   UNL     1      -1.234  -1.260  24.032  0.00  0.00    +0.092 C 
ATOM     10  C   UNL     1      -4.013  -0.852  24.021  0.00  0.00    +0.078 C 
ATOM     11  C   UNL     1      -3.089   0.388  24.045  0.00  0.00    +0.025 C 
ATOM     12  C   UNL     1      -2.103  -0.315  26.194  0.00  0.00    +0.020 C 
ATOM     13  C   UNL     1      -2.207  -2.426  24.292  0.00  0.00    +0.097 C 
ATOM     14  C   UNL     1      -3.167  -1.422  26.238  0.00  0.00    +0.085 C 
BRANCH   9  16
ATOM      1  O   UNL     1       0.343  -2.362  25.436  0.00  0.00    -0.275 OA
ATOM      3  N   UNL     1       1.185  -1.001  23.771  0.00  0.00    -0.301 N 
ATOM     16  C   UNL     1       0.164  -1.601  24.485  0.00  0.00    +0.220 C 
ATOM     17  C   UNL     1       2.588  -1.222  24.087  0.00  0.00    +0.108 C 
ATOM     18  C   UNL     1       1.040  -0.095  22.635  0.00  0.00    +0.108 C 
ATOM     19  C   UNL     1       3.341  -0.661  22.891  0.00  0.00    +0.020 C 
ATOM     20  C   UNL     1       2.437   0.473  22.423  0.00  0.00    +0.020 C 
ENDBRANCH   9  16
ENDBRANCH  15  10
BRANCH  15   4
ATOM      4  N   UNL     1      -5.542   0.863  25.024  0.00  0.00    -0.250 N 
ATOM      5  N   UNL     1      -6.073   1.004  26.250  0.00  0.00    -0.065 NA
ATOM      6  N   UNL     1      -6.018   2.296  26.556  0.00  0.00    -0.133 NA
ATOM     21  C   UNL     1      -5.134   2.057  24.514  0.00  0.00    +0.135 A 
ATOM     22  C   UNL     1      -5.445   2.954  25.503  0.00  0.00    +0.097 A 
BRANCH  22  23
ATOM     23  C   UNL     1      -5.243   4.408  25.533  0.00  0.00    +0.143 C 
BRANCH  23   7
ATOM      7  N   UNL     1      -3.895   4.816  25.099  0.00  0.00    -0.295 NA
ATOM     25  C   UNL     1      -3.505   4.067  23.909  0.00  0.00    +0.105 C 
BRANCH   7  24
ATOM     24  C   UNL     1      -2.937   4.610  26.180  0.00  0.00    +0.119 C 
BRANCH  24  26
ATOM     26  C   UNL     1      -1.696   3.905  25.703  0.00  0.00    -0.033 A 
ATOM     27  C   UNL     1      -1.051   2.988  26.533  0.00  0.00    +0.005 A 
ATOM     28  C   UNL     1      -1.191   4.167  24.430  0.00  0.00    +0.005 A 
ATOM     29  C   UNL     1       0.100   2.335  26.091  0.00  0.00    +0.000 A 
ATOM     30  C   UNL     1      -0.041   3.514  23.987  0.00  0.00    +0.000 A 
ATOM     31  C   UNL     1       0.604   2.598  24.817  0.00  0.00    +0.000 A 
ENDBRANCH  24  26
ENDBRANCH   7  24
ENDBRANCH  23   7
ENDBRANCH  22  23
ENDBRANCH  15   4
TORSDOF 7
ENDMDL
MODEL 4
REMARK VINA RESULT:       3.4      2.505      7.270
REMARK  Name = 44716170
REMARK  8 active torsions:
REMARK  status: ('A' for Active; 'I' for Inactive)
REMARK    1  A    between atoms: N_4  and  C_15
REMARK    2  A    between atoms: N_7  and  C_23
REMARK    3  A    between atoms: N_7  and  C_24
REMARK    4  A    between atoms: N_7  and  C_25
REMARK    5  A    between atoms: C_9  and  C_16
REMARK    6  A    between atoms: C_10  and  C_15
REMARK    7  A    between atoms: C_22  and  C_23
REMARK    8  A    between atoms: C_24  and  C_26
REMARK                            x       y       z     vdW  Elec       q    Type
REMARK                         _______ _______ _______ _____ _____    ______ ____
ROOT
ATOM     15  C   UNL     1      -3.948  -1.859  25.414  0.00  0.00    +0.164 C 
ENDROOT
BRANCH  15  10
ATOM      2  N   UNL     1      -4.942   0.305  24.630  0.00  0.00    -0.297 NA
ATOM      8  C   UNL     1      -2.865   1.726  25.295  0.00  0.00    +0.005 C 
ATOM      9  C   UNL     1      -4.177   2.434  25.685  0.00  0.00    +0.092 C 
ATOM     10  C   UNL     1      -4.179  -0.375  25.713  0.00  0.00    +0.078 C 
ATOM     11  C   UNL     1      -2.852   0.362  26.010  0.00  0.00    +0.025 C 
ATOM     12  C   UNL     1      -2.875   1.426  23.785  0.00  0.00    +0.020 C 
ATOM     13  C   UNL     1      -5.373   1.636  25.128  0.00  0.00    +0.097 C 
ATOM     14  C   UNL     1      -4.078   0.530  23.449  0.00  0.00    +0.085 C 
BRANCH   9  16
ATOM      1  O   UNL     1      -5.271   4.420  24.956  0.00  0.00    -0.275 OA
ATOM      3  N   UNL     1      -2.964   4.465  25.064  0.00  0.00    -0.301 N 
ATOM     16  C   UNL     1      -4.201   3.863  25.204  0.00  0.00    +0.220 C 
ATOM     17  C   UNL     1      -2.816   5.838  24.604  0.00  0.00    +0.108 C 
ATOM     18  C   UNL     1      -1.664   3.863  25.344  0.00  0.00    +0.108 C 
ATOM     19  C   UNL     1      -1.367   6.187  24.909  0.00  0.00    +0.020 C 
ATOM     20  C   UNL     1      -0.658   4.847  24.763  0.00  0.00    +0.020 C 
ENDBRANCH   9  16
ENDBRANCH  15  10
BRANCH  15   4
ATOM      4  N   UNL     1      -2.605  -2.091  24.782  0.00  0.00    -0.250 N 
ATOM      5  N   UNL     1      -2.412  -3.118  23.939  0.00  0.00    -0.065 NA
ATOM      6  N   UNL     1      -1.143  -3.073  23.548  0.00  0.00    -0.133 NA
ATOM     21  C   UNL     1      -1.468  -1.362  24.954  0.00  0.00    +0.135 A 
ATOM     22  C   UNL     1      -0.551  -2.003  24.161  0.00  0.00    +0.097 A 
BRANCH  22  23
ATOM     23  C   UNL     1       0.863  -1.680  23.933  0.00  0.00    +0.143 C 
BRANCH  23   7
ATOM      7  N   UNL     1       1.079  -0.290  23.497  0.00  0.00    -0.295 NA
ATOM     25  C   UNL     1      -0.177   0.288  23.031  0.00  0.00    +0.105 C 
BRANCH   7  24
ATOM     24  C   UNL     1       2.093  -0.245  22.449  0.00  0.00    +0.119 C 
BRANCH  24  26
ATOM     26  C   UNL     1       3.486  -0.234  23.018  0.00  0.00    -0.033 A 
ATOM     27  C   UNL     1       4.259   0.925  22.948  0.00  0.00    +0.005 A 
ATOM     28  C   UNL     1       4.005  -1.382  23.616  0.00  0.00    +0.005 A 
ATOM     29  C   UNL     1       5.551   0.935  23.474  0.00  0.00    +0.000 A 
ATOM     30  C   UNL     1       5.296  -1.372  24.142  0.00  0.00    +0.000 A 
ATOM     31  C   UNL     1       6.069  -0.214  24.072  0.00  0.00    +0.000 A 
ENDBRANCH  24  26
ENDBRANCH   7  24
ENDBRANCH  23   7
ENDBRANCH  22  23
ENDBRANCH  15   4
TORSDOF 7
ENDMDL
MODEL 5
REMARK VINA RESULT:       3.5      2.301      7.438
REMARK  Name = 44716170
REMARK  8 active torsions:
REMARK  status: ('A' for Active; 'I' for Inactive)
REMARK    1  A    between atoms: N_4  and  C_15
REMARK    2  A    between atoms: N_7  and  C_23
REMARK    3  A    between atoms: N_7  and  C_24
REMARK    4  A    between atoms: N_7  and  C_25
REMARK    5  A    between atoms: C_9  and  C_16
REMARK    6  A    between atoms: C_10  and  C_15
REMARK    7  A    between atoms: C_22  and  C_23
REMARK    8  A    between atoms: C_24  and  C_26
REMARK                            x       y       z     vdW  Elec       q    Type
REMARK                         _______ _______ _______ _____ _____    ______ ____
ROOT
ATOM     15  C   UNL     1      -2.432  -2.679  24.932  0.00  0.00    +0.164 C 
ENDROOT
BRANCH  15  10
ATOM      2  N   UNL     1      -4.419  -1.392  24.112  0.00  0.00    -0.297 NA
ATOM      8  C   UNL     1      -3.633   0.863  25.148  0.00  0.00    +0.005 C 
ATOM      9  C   UNL     1      -5.142   0.640  25.370  0.00  0.00    +0.092 C 
ATOM     10  C   UNL     1      -3.510  -1.644  25.264  0.00  0.00    +0.078 C 
ATOM     11  C   UNL     1      -2.896  -0.327  25.792  0.00  0.00    +0.025 C 
ATOM     12  C   UNL     1      -3.323   0.804  23.641  0.00  0.00    +0.020 C 
ATOM     13  C   UNL     1      -5.590  -0.619  24.602  0.00  0.00    +0.097 C 
ATOM     14  C   UNL     1      -3.741  -0.566  23.087  0.00  0.00    +0.085 C 
BRANCH   9  16
ATOM      1  O   UNL     1      -6.939   1.720  24.240  0.00  0.00    -0.275 OA
ATOM      3  N   UNL     1      -5.487   3.061  25.436  0.00  0.00    -0.301 N 
ATOM     16  C   UNL     1      -5.948   1.847  24.959  0.00  0.00    +0.220 C 
ATOM     17  C   UNL     1      -6.149   4.319  25.125  0.00  0.00    +0.108 C 
ATOM     18  C   UNL     1      -4.325   3.278  26.292  0.00  0.00    +0.108 C 
ATOM     19  C   UNL     1      -5.534   5.321  26.089  0.00  0.00    +0.020 C 
ATOM     20  C   UNL     1      -4.120   4.786  26.277  0.00  0.00    +0.020 C 
ENDBRANCH   9  16
ENDBRANCH  15  10
BRANCH  15   4
ATOM      4  N   UNL     1      -1.154  -2.022  24.492  0.00  0.00    -0.250 N 
ATOM      5  N   UNL     1      -0.076  -2.014  25.293  0.00  0.00    -0.065 NA
ATOM      6  N   UNL     1       0.888  -1.367  24.648  0.00  0.00    -0.133 NA
ATOM     21  C   UNL     1      -0.911  -1.381  23.316  0.00  0.00    +0.135 A 
ATOM     22  C   UNL     1       0.393  -0.973  23.436  0.00  0.00    +0.097 A 
BRANCH  22  23
ATOM     23  C   UNL     1       1.221  -0.226  22.480  0.00  0.00    +0.143 C 
BRANCH  23   7
ATOM      7  N   UNL     1       1.742   1.038  23.028  0.00  0.00    -0.295 NA
ATOM     25  C   UNL     1       3.188   1.105  22.843  0.00  0.00    +0.105 C 
BRANCH   7  24
ATOM     24  C   UNL     1       1.393   1.155  24.439  0.00  0.00    +0.119 C 
BRANCH  24  26
ATOM     26  C   UNL     1       0.451   2.302  24.690  0.00  0.00    -0.033 A 
ATOM     27  C   UNL     1      -0.200   2.415  25.919  0.00  0.00    +0.005 A 
ATOM     28  C   UNL     1       0.229   3.253  23.695  0.00  0.00    +0.005 A 
ATOM     29  C   UNL     1      -1.074   3.477  26.151  0.00  0.00    +0.000 A 
ATOM     30  C   UNL     1      -0.644   4.315  23.926  0.00  0.00    +0.000 A 
ATOM     31  C   UNL     1      -1.294   4.429  25.154  0.00  0.00    +0.000 A 
ENDBRANCH  24  26
ENDBRANCH   7  24
ENDBRANCH  23   7
ENDBRANCH  22  23
ENDBRANCH  15   4
TORSDOF 7
ENDMDL
