MODEL 1
REMARK VINA RESULT:      -0.4      0.000      0.000
REMARK  Name = 38029875
REMARK  8 active torsions:
REMARK  status: ('A' for Active; 'I' for Inactive)
REMARK    1  A    between atoms: C_7  and  C_11
REMARK    2  A    between atoms: C_9  and  C_15
REMARK    3  A    between atoms: C_10  and  C_14
REMARK    4  A    between atoms: C_11  and  C_16
REMARK    5  A    between atoms: C_11  and  C_17
REMARK    6  A    between atoms: C_12  and  C_19
REMARK    7  A    between atoms: C_14  and  C_18
REMARK    8  A    between atoms: C_15  and  C_24
REMARK                            x       y       z     vdW  Elec       q    Type
REMARK                         _______ _______ _______ _____ _____    ______ ____
ROOT
ATOM     14  C   UNL     1      -4.008   0.024  26.146  0.00  0.00    +0.103 C 
ENDROOT
BRANCH  14  18
ATOM      1  O   UNL     1      -3.803  -2.221  25.401  0.00  0.00    -0.276 OA
ATOM      2  N   UNL     1      -2.003  -0.813  24.979  0.00  0.00    -0.298 N 
ATOM      3  N   UNL     1       0.545  -0.256  23.723  0.00  0.00    -0.311 N 
ATOM      5  N   UNL     1       2.795   0.486  23.811  0.00  0.00    -0.237 NA
ATOM      6  N   UNL     1       2.973   0.076  21.043  0.00  0.00    -0.258 NA
ATOM     18  C   UNL     1      -3.272  -1.110  25.476  0.00  0.00    +0.216 C 
ATOM     20  C   UNL     1      -1.224  -1.859  24.322  0.00  0.00    +0.126 C 
ATOM     21  C   UNL     1      -1.377   0.509  25.060  0.00  0.00    +0.126 C 
ATOM     22  C   UNL     1      -0.343  -1.301  23.206  0.00  0.00    +0.125 C 
ATOM     23  C   UNL     1       0.145   0.453  24.941  0.00  0.00    +0.125 C 
ATOM     25  C   UNL     1       1.753   0.027  23.089  0.00  0.00    +0.140 A 
ATOM     26  C   UNL     1       1.841  -0.174  21.730  0.00  0.00    +0.154 A 
ATOM     27  C   UNL     1       3.927   0.736  23.125  0.00  0.00    +0.132 A 
ATOM     28  C   UNL     1       4.015   0.535  21.765  0.00  0.00    +0.130 A 
ENDBRANCH  14  18
BRANCH  14  10
ATOM      7  C   UNL     1      -3.510   2.306  23.934  0.00  0.00    -0.000 C 
ATOM      8  C   UNL     1      -4.330   1.011  23.834  0.00  0.00    +0.012 C 
ATOM      9  C   UNL     1      -4.414   3.488  24.362  0.00  0.00    +0.029 C 
ATOM     10  C   UNL     1      -5.009   0.648  25.168  0.00  0.00    +0.023 C 
ATOM     12  C   UNL     1      -5.704   1.843  25.790  0.00  0.00    -0.073 C 
ATOM     13  C   UNL     1      -5.434   3.104  25.407  0.00  0.00    -0.023 C 
ATOM     19  C   UNL     1      -6.748   1.552  26.831  0.00  0.00    +0.039 C 
BRANCH   7  11
ATOM     11  C   UNL     1      -2.808   2.580  22.600  0.00  0.00    -0.013 C 
ATOM     16  C   UNL     1      -2.343   1.274  21.964  0.00  0.00    +0.007 C 
ATOM     17  C   UNL     1      -3.737   3.340  21.657  0.00  0.00    +0.007 C 
ENDBRANCH   7  11
BRANCH   9  15
ATOM     15  C   UNL     1      -3.579   4.668  24.872  0.00  0.00    +0.126 C 
BRANCH  15  24
ATOM      4  N   UNL     1      -1.258   3.849  25.778  0.00  0.00    -0.197 NA
ATOM     24  C   UNL     1      -2.288   4.207  25.381  0.00  0.00    +0.063 C 
ENDBRANCH  15  24
ENDBRANCH   9  15
ENDBRANCH  14  10
TORSDOF 5
ENDMDL
MODEL 2
REMARK VINA RESULT:       2.5      1.690      2.508
REMARK  Name = 38029875
REMARK  8 active torsions:
REMARK  status: ('A' for Active; 'I' for Inactive)
REMARK    1  A    between atoms: C_7  and  C_11
REMARK    2  A    between atoms: C_9  and  C_15
REMARK    3  A    between atoms: C_10  and  C_14
REMARK    4  A    between atoms: C_11  and  C_16
REMARK    5  A    between atoms: C_11  and  C_17
REMARK    6  A    between atoms: C_12  and  C_19
REMARK    7  A    between atoms: C_14  and  C_18
REMARK    8  A    between atoms: C_15  and  C_24
REMARK                            x       y       z     vdW  Elec       q    Type
REMARK                         _______ _______ _______ _____ _____    ______ ____
ROOT
ATOM     14  C   UNL     1      -3.656   1.431  23.095  0.00  0.00    +0.103 C 
ENDROOT
BRANCH  14  18
ATOM      1  O   UNL     1      -3.525   0.200  25.121  0.00  0.00    -0.276 OA
ATOM      2  N   UNL     1      -1.519   0.627  24.029  0.00  0.00    -0.298 N 
ATOM      3  N   UNL     1       1.332   0.242  23.715  0.00  0.00    -0.311 N 
ATOM      5  N   UNL     1       3.534   1.083  23.458  0.00  0.00    -0.237 NA
ATOM      6  N   UNL     1       4.456  -1.560  23.283  0.00  0.00    -0.258 NA
ATOM     18  C   UNL     1      -2.905   0.694  24.176  0.00  0.00    +0.216 C 
ATOM     20  C   UNL     1      -0.721  -0.064  25.038  0.00  0.00    +0.126 C 
ATOM     21  C   UNL     1      -0.784   1.206  22.902  0.00  0.00    +0.126 C 
ATOM     22  C   UNL     1       0.509  -0.736  24.431  0.00  0.00    +0.125 C 
ATOM     23  C   UNL     1       0.688   1.462  23.224  0.00  0.00    +0.125 C 
ATOM     25  C   UNL     1       2.698   0.028  23.539  0.00  0.00    +0.140 A 
ATOM     26  C   UNL     1       3.151  -1.269  23.454  0.00  0.00    +0.154 A 
ATOM     27  C   UNL     1       4.839   0.793  23.288  0.00  0.00    +0.132 A 
ATOM     28  C   UNL     1       5.292  -0.505  23.202  0.00  0.00    +0.130 A 
ENDBRANCH  14  18
BRANCH  14  10
ATOM      7  C   UNL     1      -2.099   3.691  24.774  0.00  0.00    -0.000 C 
ATOM      8  C   UNL     1      -3.100   3.848  23.620  0.00  0.00    +0.012 C 
ATOM      9  C   UNL     1      -2.831   3.756  26.138  0.00  0.00    +0.029 C 
ATOM     10  C   UNL     1      -4.189   2.760  23.642  0.00  0.00    +0.023 C 
ATOM     12  C   UNL     1      -4.777   2.579  25.027  0.00  0.00    -0.073 C 
ATOM     13  C   UNL     1      -4.162   3.043  26.129  0.00  0.00    -0.023 C 
ATOM     19  C   UNL     1      -6.112   1.892  25.112  0.00  0.00    +0.039 C 
BRANCH   7  11
ATOM     11  C   UNL     1      -1.006   4.758  24.663  0.00  0.00    -0.013 C 
ATOM     16  C   UNL     1      -0.332   4.691  23.296  0.00  0.00    +0.007 C 
ATOM     17  C   UNL     1      -1.592   6.146  24.909  0.00  0.00    +0.007 C 
ENDBRANCH   7  11
BRANCH   9  15
ATOM     15  C   UNL     1      -1.956   3.193  27.264  0.00  0.00    +0.126 C 
BRANCH  15  24
ATOM      4  N   UNL     1       0.428   2.560  26.373  0.00  0.00    -0.197 NA
ATOM     24  C   UNL     1      -0.628   2.843  26.762  0.00  0.00    +0.063 C 
ENDBRANCH  15  24
ENDBRANCH   9  15
ENDBRANCH  14  10
TORSDOF 5
ENDMDL
