MODEL 1
REMARK VINA RESULT:      -5.4      0.000      0.000
REMARK  Name = 11884340
REMARK  5 active torsions:
REMARK  status: ('A' for Active; 'I' for Inactive)
REMARK    1  A    between atoms: O_3  and  C_10
REMARK    2  A    between atoms: O_5  and  C_14
REMARK    3  A    between atoms: O_5  and  C_15
REMARK    4  A    between atoms: N_6  and  C_9
REMARK    5  A    between atoms: C_13  and  C_14
REMARK                            x       y       z     vdW  Elec       q    Type
REMARK                         _______ _______ _______ _____ _____    ______ ____
ROOT
ATOM      1  O   UNL     1      -0.590   0.921  26.229  0.00  0.00    -0.369 OA
ATOM      2  O   UNL     1      -0.551   0.805  23.177  0.00  0.00    -0.369 OA
ATOM      7  C   UNL     1      -1.621   1.091  24.104  0.00  0.00    +0.172 C 
ATOM      8  C   UNL     1      -1.411   0.188  25.303  0.00  0.00    +0.179 C 
ATOM      9  C   UNL     1      -1.461   2.489  24.662  0.00  0.00    +0.130 C 
ATOM     10  C   UNL     1      -0.669  -0.982  24.704  0.00  0.00    +0.171 C 
ATOM     11  C   UNL     1      -0.433   2.268  25.761  0.00  0.00    +0.185 C 
ATOM     12  C   UNL     1       0.206  -0.311  23.670  0.00  0.00    +0.194 C 
ENDROOT
BRANCH   9   6
ATOM      4  O   UNL     1      -3.874   3.296  23.250  0.00  0.00    -0.273 OA
ATOM      6  N   UNL     1      -2.711   2.981  25.240  0.00  0.00    -0.306 N 
ATOM     13  C   UNL     1      -3.811   3.342  24.475  0.00  0.00    +0.239 C 
ATOM     16  H   UNL     1      -2.752   3.106  26.248  0.00  0.00    +0.149 HD
BRANCH  13  14
ATOM     14  C   UNL     1      -4.964   3.814  25.336  0.00  0.00    +0.255 C 
BRANCH  14   5
ATOM      5  O   UNL     1      -5.506   2.741  26.076  0.00  0.00    -0.374 OA
ATOM     15  C   UNL     1      -6.132   1.778  25.235  0.00  0.00    +0.194 C 
ENDBRANCH  14   5
ENDBRANCH  13  14
ENDBRANCH   9   6
BRANCH  10   3
ATOM      3  O   UNL     1       0.086  -1.710  25.646  0.00  0.00    -0.387 OA
ATOM     17  H   UNL     1       0.635  -1.080  26.144  0.00  0.00    +0.210 HD
ENDBRANCH  10   3
TORSDOF 4
ENDMDL
MODEL 2
REMARK VINA RESULT:      -5.0      2.750      6.037
REMARK  Name = 11884340
REMARK  5 active torsions:
REMARK  status: ('A' for Active; 'I' for Inactive)
REMARK    1  A    between atoms: O_3  and  C_10
REMARK    2  A    between atoms: O_5  and  C_14
REMARK    3  A    between atoms: O_5  and  C_15
REMARK    4  A    between atoms: N_6  and  C_9
REMARK    5  A    between atoms: C_13  and  C_14
REMARK                            x       y       z     vdW  Elec       q    Type
REMARK                         _______ _______ _______ _____ _____    ______ ____
ROOT
ATOM      1  O   UNL     1      -0.856   2.140  26.013  0.00  0.00    -0.369 OA
ATOM      2  O   UNL     1      -2.502   1.834  23.458  0.00  0.00    -0.369 OA
ATOM      7  C   UNL     1      -1.109   2.159  23.658  0.00  0.00    +0.172 C 
ATOM      8  C   UNL     1      -1.038   3.029  24.897  0.00  0.00    +0.179 C 
ATOM      9  C   UNL     1      -0.338   0.913  24.037  0.00  0.00    +0.130 C 
ATOM     10  C   UNL     1      -2.401   3.678  24.918  0.00  0.00    +0.171 C 
ATOM     11  C   UNL     1      -0.631   0.809  25.527  0.00  0.00    +0.185 C 
ATOM     12  C   UNL     1      -3.291   2.569  24.406  0.00  0.00    +0.194 C 
ENDROOT
BRANCH   9   6
ATOM      4  O   UNL     1       1.324  -0.366  22.021  0.00  0.00    -0.273 OA
ATOM      6  N   UNL     1       1.098   1.086  23.824  0.00  0.00    -0.306 N 
ATOM     13  C   UNL     1       1.803   0.426  22.827  0.00  0.00    +0.239 C 
ATOM     16  H   UNL     1       1.607   1.685  24.470  0.00  0.00    +0.149 HD
BRANCH  13  14
ATOM     14  C   UNL     1       3.272   0.795  22.838  0.00  0.00    +0.255 C 
BRANCH  14   5
ATOM      5  O   UNL     1       4.066  -0.327  23.155  0.00  0.00    -0.374 OA
ATOM     15  C   UNL     1       5.366   0.050  23.599  0.00  0.00    +0.194 C 
ENDBRANCH  14   5
ENDBRANCH  13  14
ENDBRANCH   9   6
BRANCH  10   3
ATOM      3  O   UNL     1      -2.792   4.124  26.197  0.00  0.00    -0.387 OA
ATOM     17  H   UNL     1      -1.988   4.349  26.696  0.00  0.00    +0.210 HD
ENDBRANCH  10   3
TORSDOF 4
ENDMDL
MODEL 3
REMARK VINA RESULT:      -5.0      2.117      4.933
REMARK  Name = 11884340
REMARK  5 active torsions:
REMARK  status: ('A' for Active; 'I' for Inactive)
REMARK    1  A    between atoms: O_3  and  C_10
REMARK    2  A    between atoms: O_5  and  C_14
REMARK    3  A    between atoms: O_5  and  C_15
REMARK    4  A    between atoms: N_6  and  C_9
REMARK    5  A    between atoms: C_13  and  C_14
REMARK                            x       y       z     vdW  Elec       q    Type
REMARK                         _______ _______ _______ _____ _____    ______ ____
ROOT
ATOM      1  O   UNL     1      -3.832   2.426  23.617  0.00  0.00    -0.369 OA
ATOM      2  O   UNL     1      -1.639   3.152  25.616  0.00  0.00    -0.369 OA
ATOM      7  C   UNL     1      -2.303   1.898  25.347  0.00  0.00    +0.172 C 
ATOM      8  C   UNL     1      -3.749   2.228  25.039  0.00  0.00    +0.179 C 
ATOM      9  C   UNL     1      -1.778   1.302  24.058  0.00  0.00    +0.130 C 
ATOM     10  C   UNL     1      -3.957   3.518  25.795  0.00  0.00    +0.171 C 
ATOM     11  C   UNL     1      -2.581   2.065  23.015  0.00  0.00    +0.185 C 
ATOM     12  C   UNL     1      -2.618   4.202  25.635  0.00  0.00    +0.194 C 
ENDROOT
BRANCH   9   6
ATOM      4  O   UNL     1      -0.559  -0.865  25.570  0.00  0.00    -0.273 OA
ATOM      6  N   UNL     1      -2.076  -0.126  23.968  0.00  0.00    -0.306 N 
ATOM     13  C   UNL     1      -1.434  -1.086  24.739  0.00  0.00    +0.239 C 
ATOM     16  H   UNL     1      -2.754  -0.429  23.273  0.00  0.00    +0.149 HD
BRANCH  13  14
ATOM     14  C   UNL     1      -1.943  -2.481  24.438  0.00  0.00    +0.255 C 
BRANCH  14   5
ATOM      5  O   UNL     1      -3.252  -2.653  24.935  0.00  0.00    -0.374 OA
ATOM     15  C   UNL     1      -4.232  -2.521  23.910  0.00  0.00    +0.194 C 
ENDBRANCH  14   5
ENDBRANCH  13  14
ENDBRANCH   9   6
BRANCH  10   3
ATOM      3  O   UNL     1      -5.015   4.301  25.291  0.00  0.00    -0.387 OA
ATOM     17  H   UNL     1      -5.478   3.782  24.611  0.00  0.00    +0.210 HD
ENDBRANCH  10   3
TORSDOF 4
ENDMDL
MODEL 4
REMARK VINA RESULT:      -4.9      1.578      5.183
REMARK  Name = 11884340
REMARK  5 active torsions:
REMARK  status: ('A' for Active; 'I' for Inactive)
REMARK    1  A    between atoms: O_3  and  C_10
REMARK    2  A    between atoms: O_5  and  C_14
REMARK    3  A    between atoms: O_5  and  C_15
REMARK    4  A    between atoms: N_6  and  C_9
REMARK    5  A    between atoms: C_13  and  C_14
REMARK                            x       y       z     vdW  Elec       q    Type
REMARK                         _______ _______ _______ _____ _____    ______ ____
ROOT
ATOM      1  O   UNL     1      -4.447   2.018  23.450  0.00  0.00    -0.369 OA
ATOM      2  O   UNL     1      -3.448   3.704  25.794  0.00  0.00    -0.369 OA
ATOM      7  C   UNL     1      -3.007   2.426  25.286  0.00  0.00    +0.172 C 
ATOM      8  C   UNL     1      -4.249   1.684  24.835  0.00  0.00    +0.179 C 
ATOM      9  C   UNL     1      -2.212   2.623  24.013  0.00  0.00    +0.130 C 
ATOM     10  C   UNL     1      -5.323   2.282  25.712  0.00  0.00    +0.171 C 
ATOM     11  C   UNL     1      -3.317   2.765  22.977  0.00  0.00    +0.185 C 
ATOM     12  C   UNL     1      -4.884   3.725  25.815  0.00  0.00    +0.194 C 
ENDROOT
BRANCH   9   6
ATOM      4  O   UNL     1       0.490   2.059  24.932  0.00  0.00    -0.273 OA
ATOM      6  N   UNL     1      -1.392   1.452  23.708  0.00  0.00    -0.306 N 
ATOM     13  C   UNL     1      -0.105   1.276  24.199  0.00  0.00    +0.239 C 
ATOM     16  H   UNL     1      -1.770   0.759  23.066  0.00  0.00    +0.149 HD
BRANCH  13  14
ATOM     14  C   UNL     1       0.506  -0.025  23.722  0.00  0.00    +0.255 C 
BRANCH  14   5
ATOM      5  O   UNL     1      -0.394  -1.095  23.904  0.00  0.00    -0.374 OA
ATOM     15  C   UNL     1      -0.543  -1.438  25.278  0.00  0.00    +0.194 C 
ENDBRANCH  14   5
ENDBRANCH  13  14
ENDBRANCH   9   6
BRANCH  10   3
ATOM      3  O   UNL     1      -6.620   2.160  25.175  0.00  0.00    -0.387 OA
ATOM     17  H   UNL     1      -7.124   2.954  25.421  0.00  0.00    +0.210 HD
ENDBRANCH  10   3
TORSDOF 4
ENDMDL
MODEL 5
REMARK VINA RESULT:      -4.8      2.397      3.264
REMARK  Name = 11884340
REMARK  5 active torsions:
REMARK  status: ('A' for Active; 'I' for Inactive)
REMARK    1  A    between atoms: O_3  and  C_10
REMARK    2  A    between atoms: O_5  and  C_14
REMARK    3  A    between atoms: O_5  and  C_15
REMARK    4  A    between atoms: N_6  and  C_9
REMARK    5  A    between atoms: C_13  and  C_14
REMARK                            x       y       z     vdW  Elec       q    Type
REMARK                         _______ _______ _______ _____ _____    ______ ____
ROOT
ATOM      1  O   UNL     1      -1.858  -0.158  23.860  0.00  0.00    -0.369 OA
ATOM      2  O   UNL     1      -4.764  -0.975  24.329  0.00  0.00    -0.369 OA
ATOM      7  C   UNL     1      -3.896  -0.087  25.066  0.00  0.00    +0.172 C 
ATOM      8  C   UNL     1      -2.510  -0.698  25.023  0.00  0.00    +0.179 C 
ATOM      9  C   UNL     1      -3.744   1.223  24.321  0.00  0.00    +0.130 C 
ATOM     10  C   UNL     1      -2.808  -2.169  24.862  0.00  0.00    +0.171 C 
ATOM     11  C   UNL     1      -2.680   0.873  23.292  0.00  0.00    +0.185 C 
ATOM     12  C   UNL     1      -4.028  -2.153  23.970  0.00  0.00    +0.194 C 
ENDROOT
BRANCH   9   6
ATOM      4  O   UNL     1      -3.980   4.097  23.932  0.00  0.00    -0.273 OA
ATOM      6  N   UNL     1      -3.257   2.285  25.200  0.00  0.00    -0.306 N 
ATOM     13  C   UNL     1      -3.421   3.635  24.922  0.00  0.00    +0.239 C 
ATOM     16  H   UNL     1      -2.733   2.015  26.029  0.00  0.00    +0.149 HD
BRANCH  13  14
ATOM     14  C   UNL     1      -2.820   4.509  26.004  0.00  0.00    +0.255 C 
BRANCH  14   5
ATOM      5  O   UNL     1      -1.780   5.306  25.480  0.00  0.00    -0.374 OA
ATOM     15  C   UNL     1      -0.717   4.516  24.956  0.00  0.00    +0.194 C 
ENDBRANCH  14   5
ENDBRANCH  13  14
ENDBRANCH   9   6
BRANCH  10   3
ATOM      3  O   UNL     1      -1.744  -2.899  24.293  0.00  0.00    -0.387 OA
ATOM     17  H   UNL     1      -1.841  -3.830  24.560  0.00  0.00    +0.210 HD
ENDBRANCH  10   3
TORSDOF 4
ENDMDL
MODEL 6
REMARK VINA RESULT:      -4.8      1.683      2.354
REMARK  Name = 11884340
REMARK  5 active torsions:
REMARK  status: ('A' for Active; 'I' for Inactive)
REMARK    1  A    between atoms: O_3  and  C_10
REMARK    2  A    between atoms: O_5  and  C_14
REMARK    3  A    between atoms: O_5  and  C_15
REMARK    4  A    between atoms: N_6  and  C_9
REMARK    5  A    between atoms: C_13  and  C_14
REMARK                            x       y       z     vdW  Elec       q    Type
REMARK                         _______ _______ _______ _____ _____    ______ ____
ROOT
ATOM      1  O   UNL     1      -0.771   0.360  24.606  0.00  0.00    -0.369 OA
ATOM      2  O   UNL     1      -2.937  -1.767  24.265  0.00  0.00    -0.369 OA
ATOM      7  C   UNL     1      -2.902  -0.565  25.066  0.00  0.00    +0.172 C 
ATOM      8  C   UNL     1      -1.483  -0.424  25.579  0.00  0.00    +0.179 C 
ATOM      9  C   UNL     1      -3.098   0.649  24.184  0.00  0.00    +0.130 C 
ATOM     10  C   UNL     1      -1.002  -1.855  25.602  0.00  0.00    +0.171 C 
ATOM     11  C   UNL     1      -1.697   0.858  23.629  0.00  0.00    +0.185 C 
ATOM     12  C   UNL     1      -1.674  -2.439  24.380  0.00  0.00    +0.194 C 
ENDROOT
BRANCH   9   6
ATOM      4  O   UNL     1      -4.023   3.219  23.180  0.00  0.00    -0.273 OA
ATOM      6  N   UNL     1      -3.504   1.818  24.963  0.00  0.00    -0.306 N 
ATOM     13  C   UNL     1      -3.932   3.005  24.385  0.00  0.00    +0.239 C 
ATOM     16  H   UNL     1      -3.421   1.767  25.975  0.00  0.00    +0.149 HD
BRANCH  13  14
ATOM     14  C   UNL     1      -4.289   4.042  25.429  0.00  0.00    +0.255 C 
BRANCH  14   5
ATOM      5  O   UNL     1      -3.184   4.309  26.265  0.00  0.00    -0.374 OA
ATOM     15  C   UNL     1      -2.035   4.696  25.518  0.00  0.00    +0.194 C 
ENDBRANCH  14   5
ENDBRANCH  13  14
ENDBRANCH   9   6
BRANCH  10   3
ATOM      3  O   UNL     1       0.401  -1.977  25.544  0.00  0.00    -0.387 OA
ATOM     17  H   UNL     1       0.743  -1.967  26.455  0.00  0.00    +0.210 HD
ENDBRANCH  10   3
TORSDOF 4
ENDMDL
MODEL 7
REMARK VINA RESULT:      -4.8      2.325      5.728
REMARK  Name = 11884340
REMARK  5 active torsions:
REMARK  status: ('A' for Active; 'I' for Inactive)
REMARK    1  A    between atoms: O_3  and  C_10
REMARK    2  A    between atoms: O_5  and  C_14
REMARK    3  A    between atoms: O_5  and  C_15
REMARK    4  A    between atoms: N_6  and  C_9
REMARK    5  A    between atoms: C_13  and  C_14
REMARK                            x       y       z     vdW  Elec       q    Type
REMARK                         _______ _______ _______ _____ _____    ______ ____
ROOT
ATOM      1  O   UNL     1      -1.390   3.471  24.553  0.00  0.00    -0.369 OA
ATOM      2  O   UNL     1      -2.867   0.852  25.090  0.00  0.00    -0.369 OA
ATOM      7  C   UNL     1      -1.793   1.168  24.178  0.00  0.00    +0.172 C 
ATOM      8  C   UNL     1      -2.059   2.566  23.658  0.00  0.00    +0.179 C 
ATOM      9  C   UNL     1      -0.491   1.299  24.938  0.00  0.00    +0.130 C 
ATOM     10  C   UNL     1      -3.560   2.676  23.774  0.00  0.00    +0.171 C 
ATOM     11  C   UNL     1      -0.587   2.719  25.475  0.00  0.00    +0.185 C 
ATOM     12  C   UNL     1      -3.840   1.905  25.044  0.00  0.00    +0.194 C 
ENDROOT
BRANCH   9   6
ATOM      4  O   UNL     1       0.312  -1.017  23.371  0.00  0.00    -0.273 OA
ATOM      6  N   UNL     1       0.664   1.180  24.049  0.00  0.00    -0.306 N 
ATOM     13  C   UNL     1       0.961   0.023  23.341  0.00  0.00    +0.239 C 
ATOM     16  H   UNL     1       1.301   1.970  23.988  0.00  0.00    +0.149 HD
BRANCH  13  14
ATOM     14  C   UNL     1       2.211   0.184  22.501  0.00  0.00    +0.255 C 
BRANCH  14   5
ATOM      5  O   UNL     1       3.091   1.118  23.089  0.00  0.00    -0.374 OA
ATOM     15  C   UNL     1       4.436   0.652  23.093  0.00  0.00    +0.194 C 
ENDBRANCH  14   5
ENDBRANCH  13  14
ENDBRANCH   9   6
BRANCH  10   3
ATOM      3  O   UNL     1      -4.023   4.005  23.848  0.00  0.00    -0.387 OA
ATOM     17  H   UNL     1      -4.846   4.068  23.333  0.00  0.00    +0.210 HD
ENDBRANCH  10   3
TORSDOF 4
ENDMDL
MODEL 8
REMARK VINA RESULT:      -4.4      1.362      1.760
REMARK  Name = 11884340
REMARK  5 active torsions:
REMARK  status: ('A' for Active; 'I' for Inactive)
REMARK    1  A    between atoms: O_3  and  C_10
REMARK    2  A    between atoms: O_5  and  C_14
REMARK    3  A    between atoms: O_5  and  C_15
REMARK    4  A    between atoms: N_6  and  C_9
REMARK    5  A    between atoms: C_13  and  C_14
REMARK                            x       y       z     vdW  Elec       q    Type
REMARK                         _______ _______ _______ _____ _____    ______ ____
ROOT
ATOM      1  O   UNL     1      -0.638   0.401  24.755  0.00  0.00    -0.369 OA
ATOM      2  O   UNL     1      -2.757  -1.689  24.069  0.00  0.00    -0.369 OA
ATOM      7  C   UNL     1      -2.805  -0.537  24.939  0.00  0.00    +0.172 C 
ATOM      8  C   UNL     1      -1.446  -0.435  25.602  0.00  0.00    +0.179 C 
ATOM      9  C   UNL     1      -2.909   0.728  24.114  0.00  0.00    +0.130 C 
ATOM     10  C   UNL     1      -0.969  -1.867  25.590  0.00  0.00    +0.171 C 
ATOM     11  C   UNL     1      -1.458   0.961  23.719  0.00  0.00    +0.185 C 
ATOM     12  C   UNL     1      -1.512  -2.374  24.274  0.00  0.00    +0.194 C 
ENDROOT
BRANCH   9   6
ATOM      4  O   UNL     1      -4.034   3.235  23.158  0.00  0.00    -0.273 OA
ATOM      6  N   UNL     1      -3.393   1.851  24.914  0.00  0.00    -0.306 N 
ATOM     13  C   UNL     1      -3.916   3.011  24.359  0.00  0.00    +0.239 C 
ATOM     16  H   UNL     1      -3.296   1.793  25.925  0.00  0.00    +0.149 HD
BRANCH  13  14
ATOM     14  C   UNL     1      -4.338   4.003  25.422  0.00  0.00    +0.255 C 
BRANCH  14   5
ATOM      5  O   UNL     1      -5.707   3.852  25.729  0.00  0.00    -0.374 OA
ATOM     15  C   UNL     1      -6.032   2.505  26.061  0.00  0.00    +0.194 C 
ENDBRANCH  14   5
ENDBRANCH  13  14
ENDBRANCH   9   6
BRANCH  10   3
ATOM      3  O   UNL     1       0.432  -1.994  25.670  0.00  0.00    -0.387 OA
ATOM     17  H   UNL     1       0.809  -1.105  25.787  0.00  0.00    +0.210 HD
ENDBRANCH  10   3
TORSDOF 4
ENDMDL
MODEL 9
REMARK VINA RESULT:      -4.0      1.682      2.603
REMARK  Name = 11884340
REMARK  5 active torsions:
REMARK  status: ('A' for Active; 'I' for Inactive)
REMARK    1  A    between atoms: O_3  and  C_10
REMARK    2  A    between atoms: O_5  and  C_14
REMARK    3  A    between atoms: O_5  and  C_15
REMARK    4  A    between atoms: N_6  and  C_9
REMARK    5  A    between atoms: C_13  and  C_14
REMARK                            x       y       z     vdW  Elec       q    Type
REMARK                         _______ _______ _______ _____ _____    ______ ____
ROOT
ATOM      1  O   UNL     1      -1.205   2.322  23.060  0.00  0.00    -0.369 OA
ATOM      2  O   UNL     1      -1.379  -0.553  24.078  0.00  0.00    -0.369 OA
ATOM      7  C   UNL     1      -2.023   0.656  24.532  0.00  0.00    +0.172 C 
ATOM      8  C   UNL     1      -1.012   1.774  24.377  0.00  0.00    +0.179 C 
ATOM      9  C   UNL     1      -3.140   1.034  23.583  0.00  0.00    +0.130 C 
ATOM     10  C   UNL     1       0.303   1.042  24.489  0.00  0.00    +0.171 C 
ATOM     11  C   UNL     1      -2.376   1.740  22.472  0.00  0.00    +0.185 C 
ATOM     12  C   UNL     1      -0.000  -0.267  23.797  0.00  0.00    +0.194 C 
ENDROOT
BRANCH   9   6
ATOM      4  O   UNL     1      -5.073   0.460  25.680  0.00  0.00    -0.273 OA
ATOM      6  N   UNL     1      -4.082   1.962  24.206  0.00  0.00    -0.306 N 
ATOM     13  C   UNL     1      -4.970   1.587  25.205  0.00  0.00    +0.239 C 
ATOM     16  H   UNL     1      -4.116   2.915  23.852  0.00  0.00    +0.149 HD
BRANCH  13  14
ATOM     14  C   UNL     1      -5.824   2.750  25.665  0.00  0.00    +0.255 C 
BRANCH  14   5
ATOM      5  O   UNL     1      -5.146   3.973  25.475  0.00  0.00    -0.374 OA
ATOM     15  C   UNL     1      -3.910   4.011  26.181  0.00  0.00    +0.194 C 
ENDBRANCH  14   5
ENDBRANCH  13  14
ENDBRANCH   9   6
BRANCH  10   3
ATOM      3  O   UNL     1       1.380   1.723  23.886  0.00  0.00    -0.387 OA
ATOM     17  H   UNL     1       1.013   2.399  23.290  0.00  0.00    +0.210 HD
ENDBRANCH  10   3
TORSDOF 4
ENDMDL
MODEL 10
REMARK VINA RESULT:      -3.9      2.169      3.175
REMARK  Name = 11884340
REMARK  5 active torsions:
REMARK  status: ('A' for Active; 'I' for Inactive)
REMARK    1  A    between atoms: O_3  and  C_10
REMARK    2  A    between atoms: O_5  and  C_14
REMARK    3  A    between atoms: O_5  and  C_15
REMARK    4  A    between atoms: N_6  and  C_9
REMARK    5  A    between atoms: C_13  and  C_14
REMARK                            x       y       z     vdW  Elec       q    Type
REMARK                         _______ _______ _______ _____ _____    ______ ____
ROOT
ATOM      1  O   UNL     1      -2.422  -0.634  26.101  0.00  0.00    -0.369 OA
ATOM      2  O   UNL     1      -0.704  -1.694  23.808  0.00  0.00    -0.369 OA
ATOM      7  C   UNL     1      -1.398  -0.439  23.974  0.00  0.00    +0.172 C 
ATOM      8  C   UNL     1      -2.695  -0.750  24.693  0.00  0.00    +0.179 C 
ATOM      9  C   UNL     1      -0.642   0.446  24.942  0.00  0.00    +0.130 C 
ATOM     10  C   UNL     1      -2.955  -2.182  24.291  0.00  0.00    +0.171 C 
ATOM     11  C   UNL     1      -1.103  -0.101  26.285  0.00  0.00    +0.185 C 
ATOM     12  C   UNL     1      -1.559  -2.760  24.247  0.00  0.00    +0.194 C 
ENDROOT
BRANCH   9   6
ATOM      4  O   UNL     1       0.531   2.757  26.264  0.00  0.00    -0.273 OA
ATOM      6  N   UNL     1      -1.041   1.846  24.811  0.00  0.00    -0.306 N 
ATOM     13  C   UNL     1      -0.413   2.881  25.490  0.00  0.00    +0.239 C 
ATOM     16  H   UNL     1      -1.848   2.059  24.230  0.00  0.00    +0.149 HD
BRANCH  13  14
ATOM     14  C   UNL     1      -1.032   4.225  25.165  0.00  0.00    +0.255 C 
BRANCH  14   5
ATOM      5  O   UNL     1      -2.424   4.098  24.971  0.00  0.00    -0.374 OA
ATOM     15  C   UNL     1      -3.134   4.088  26.205  0.00  0.00    +0.194 C 
ENDBRANCH  14   5
ENDBRANCH  13  14
ENDBRANCH   9   6
BRANCH  10   3
ATOM      3  O   UNL     1      -3.789  -2.876  25.192  0.00  0.00    -0.387 OA
ATOM     17  H   UNL     1      -3.268  -3.592  25.594  0.00  0.00    +0.210 HD
ENDBRANCH  10   3
TORSDOF 4
ENDMDL
