MODEL 1
REMARK VINA RESULT:      -1.1      0.000      0.000
REMARK  Name = 25390790
REMARK  9 active torsions:
REMARK  status: ('A' for Active; 'I' for Inactive)
REMARK    1  A    between atoms: O_3  and  C_13
REMARK    2  A    between atoms: O_3  and  C_16
REMARK    3  A    between atoms: O_5  and  C_29
REMARK    4  A    between atoms: O_5  and  C_30
REMARK    5  A    between atoms: N_6  and  C_12
REMARK    6  A    between atoms: N_9  and  C_23
REMARK    7  A    between atoms: N_9  and  C_24
REMARK    8  A    between atoms: C_16  and  C_18
REMARK    9  A    between atoms: C_19  and  C_22
REMARK                            x       y       z     vdW  Elec       q    Type
REMARK                         _______ _______ _______ _____ _____    ______ ____
ROOT
ATOM      6  N   UNL     1      -3.005   4.534  25.753  0.00  0.00    -0.306 N 
ATOM      7  N   UNL     1      -3.668   2.339  25.385  0.00  0.00    -0.214 NA
ATOM      8  N   UNL     1      -5.283   4.085  25.774  0.00  0.00    -0.223 NA
ATOM     17  C   UNL     1      -4.030   3.612  25.631  0.00  0.00    +0.216 A 
ATOM     19  C   UNL     1      -4.692   1.467  25.274  0.00  0.00    +0.076 A 
ATOM     20  C   UNL     1      -6.258   3.160  25.652  0.00  0.00    +0.116 A 
ATOM     21  C   UNL     1      -6.020   1.824  25.400  0.00  0.00    +0.048 A 
ATOM     31  H   UNL     1      -3.268   5.484  25.993  0.00  0.00    +0.149 HD
ENDROOT
BRANCH   6  12
ATOM      1  O   UNL     1      -1.491   1.819  25.690  0.00  0.00    -0.369 OA
ATOM      2  O   UNL     1       0.103   3.788  23.961  0.00  0.00    -0.369 OA
ATOM     10  C   UNL     1      -1.309   3.684  24.237  0.00  0.00    +0.172 C 
ATOM     11  C   UNL     1      -1.634   2.206  24.314  0.00  0.00    +0.180 C 
ATOM     12  C   UNL     1      -1.604   4.195  25.628  0.00  0.00    +0.130 C 
ATOM     13  C   UNL     1      -0.561   1.590  23.447  0.00  0.00    +0.176 C 
ATOM     14  C   UNL     1      -1.274   2.990  26.492  0.00  0.00    +0.185 C 
ATOM     15  C   UNL     1       0.631   2.472  23.741  0.00  0.00    +0.194 C 
BRANCH  13   3
ATOM      3  O   UNL     1      -0.306   0.236  23.744  0.00  0.00    -0.362 OA
BRANCH   3  16
ATOM     16  C   UNL     1       1.087  -0.023  23.899  0.00  0.00    +0.256 C 
BRANCH  16  18
ATOM      4  O   UNL     1       1.078  -0.403  21.560  0.00  0.00    -0.273 OA
ATOM      9  N   UNL     1       3.099   0.289  22.471  0.00  0.00    -0.306 N 
ATOM     18  C   UNL     1       1.751  -0.066  22.539  0.00  0.00    +0.241 C 
ATOM     23  C   UNL     1       3.780   0.272  21.181  0.00  0.00    +0.131 C 
ATOM     24  C   UNL     1       3.923   0.708  23.602  0.00  0.00    +0.131 C 
ENDBRANCH  16  18
ENDBRANCH   3  16
ENDBRANCH  13   3
ENDBRANCH   6  12
BRANCH  19  22
ATOM     22  C   UNL     1      -4.309   0.101  25.011  0.00  0.00    +0.001 A 
ATOM     25  C   UNL     1      -4.643  -0.495  23.795  0.00  0.00    +0.013 A 
ATOM     26  C   UNL     1      -3.605  -0.624  25.973  0.00  0.00    +0.013 A 
ATOM     27  C   UNL     1      -4.275  -1.816  23.540  0.00  0.00    +0.046 A 
ATOM     28  C   UNL     1      -3.236  -1.944  25.718  0.00  0.00    +0.046 A 
ATOM     29  C   UNL     1      -3.571  -2.541  24.502  0.00  0.00    +0.120 A 
BRANCH  29   5
ATOM      5  O   UNL     1      -3.211  -3.830  24.254  0.00  0.00    -0.495 OA
ATOM     30  C   UNL     1      -2.068  -4.037  23.425  0.00  0.00    +0.277 C 
ENDBRANCH  29   5
ENDBRANCH  19  22
TORSDOF 6
ENDMDL
MODEL 2
REMARK VINA RESULT:      -0.8      1.434      1.791
REMARK  Name = 25390790
REMARK  9 active torsions:
REMARK  status: ('A' for Active; 'I' for Inactive)
REMARK    1  A    between atoms: O_3  and  C_13
REMARK    2  A    between atoms: O_3  and  C_16
REMARK    3  A    between atoms: O_5  and  C_29
REMARK    4  A    between atoms: O_5  and  C_30
REMARK    5  A    between atoms: N_6  and  C_12
REMARK    6  A    between atoms: N_9  and  C_23
REMARK    7  A    between atoms: N_9  and  C_24
REMARK    8  A    between atoms: C_16  and  C_18
REMARK    9  A    between atoms: C_19  and  C_22
REMARK                            x       y       z     vdW  Elec       q    Type
REMARK                         _______ _______ _______ _____ _____    ______ ____
ROOT
ATOM      6  N   UNL     1      -4.392   4.472  25.735  0.00  0.00    -0.306 N 
ATOM      7  N   UNL     1      -4.026   2.203  25.396  0.00  0.00    -0.214 NA
ATOM      8  N   UNL     1      -6.232   3.156  25.214  0.00  0.00    -0.223 NA
ATOM     17  C   UNL     1      -4.905   3.223  25.434  0.00  0.00    +0.216 A 
ATOM     19  C   UNL     1      -4.561   1.000  25.103  0.00  0.00    +0.076 A 
ATOM     20  C   UNL     1      -6.701   1.924  24.927  0.00  0.00    +0.116 A 
ATOM     21  C   UNL     1      -5.905   0.798  24.856  0.00  0.00    +0.048 A 
ATOM     31  H   UNL     1      -5.056   5.234  25.818  0.00  0.00    +0.149 HD
ENDROOT
BRANCH   6  12
ATOM      1  O   UNL     1      -1.908   2.605  25.856  0.00  0.00    -0.369 OA
ATOM      2  O   UNL     1      -0.937   5.347  24.881  0.00  0.00    -0.369 OA
ATOM     10  C   UNL     1      -2.196   4.663  24.714  0.00  0.00    +0.172 C 
ATOM     11  C   UNL     1      -1.878   3.191  24.544  0.00  0.00    +0.180 C 
ATOM     12  C   UNL     1      -2.990   4.720  25.998  0.00  0.00    +0.130 C 
ATOM     13  C   UNL     1      -0.478   3.223  23.978  0.00  0.00    +0.176 C 
ATOM     14  C   UNL     1      -2.394   3.574  26.798  0.00  0.00    +0.185 C 
ATOM     15  C   UNL     1       0.130   4.405  24.698  0.00  0.00    +0.194 C 
BRANCH  13   3
ATOM      3  O   UNL     1       0.246   2.034  24.203  0.00  0.00    -0.362 OA
BRANCH   3  16
ATOM     16  C   UNL     1       1.266   1.839  23.227  0.00  0.00    +0.256 C 
BRANCH  16  18
ATOM      4  O   UNL     1       0.831  -0.487  23.357  0.00  0.00    -0.273 OA
ATOM      9  N   UNL     1       3.052   0.117  23.049  0.00  0.00    -0.306 N 
ATOM     18  C   UNL     1       1.693   0.386  23.220  0.00  0.00    +0.241 C 
ATOM     23  C   UNL     1       3.510  -1.267  23.027  0.00  0.00    +0.131 C 
ATOM     24  C   UNL     1       4.098   1.120  22.868  0.00  0.00    +0.131 C 
ENDBRANCH  16  18
ENDBRANCH   3  16
ENDBRANCH  13   3
ENDBRANCH   6  12
BRANCH  19  22
ATOM     22  C   UNL     1      -3.622  -0.095  25.061  0.00  0.00    +0.001 A 
ATOM     25  C   UNL     1      -2.398   0.011  25.722  0.00  0.00    +0.013 A 
ATOM     26  C   UNL     1      -3.937  -1.257  24.357  0.00  0.00    +0.013 A 
ATOM     27  C   UNL     1      -1.489  -1.046  25.680  0.00  0.00    +0.046 A 
ATOM     28  C   UNL     1      -3.028  -2.314  24.316  0.00  0.00    +0.046 A 
ATOM     29  C   UNL     1      -1.804  -2.209  24.976  0.00  0.00    +0.120 A 
BRANCH  29   5
ATOM      5  O   UNL     1      -0.917  -3.240  24.935  0.00  0.00    -0.495 OA
ATOM     30  C   UNL     1       0.377  -3.007  25.491  0.00  0.00    +0.277 C 
ENDBRANCH  29   5
ENDBRANCH  19  22
TORSDOF 6
ENDMDL
MODEL 3
REMARK VINA RESULT:      -0.4      2.590      5.820
REMARK  Name = 25390790
REMARK  9 active torsions:
REMARK  status: ('A' for Active; 'I' for Inactive)
REMARK    1  A    between atoms: O_3  and  C_13
REMARK    2  A    between atoms: O_3  and  C_16
REMARK    3  A    between atoms: O_5  and  C_29
REMARK    4  A    between atoms: O_5  and  C_30
REMARK    5  A    between atoms: N_6  and  C_12
REMARK    6  A    between atoms: N_9  and  C_23
REMARK    7  A    between atoms: N_9  and  C_24
REMARK    8  A    between atoms: C_16  and  C_18
REMARK    9  A    between atoms: C_19  and  C_22
REMARK                            x       y       z     vdW  Elec       q    Type
REMARK                         _______ _______ _______ _____ _____    ______ ____
ROOT
ATOM      6  N   UNL     1      -4.858  -0.900  24.431  0.00  0.00    -0.306 N 
ATOM      7  N   UNL     1      -2.550  -0.755  24.219  0.00  0.00    -0.214 NA
ATOM      8  N   UNL     1      -3.600  -2.713  25.153  0.00  0.00    -0.223 NA
ATOM     17  C   UNL     1      -3.615  -1.482  24.608  0.00  0.00    +0.216 A 
ATOM     19  C   UNL     1      -1.354  -1.352  24.408  0.00  0.00    +0.076 A 
ATOM     20  C   UNL     1      -2.372  -3.250  25.314  0.00  0.00    +0.116 A 
ATOM     21  C   UNL     1      -1.203  -2.609  24.956  0.00  0.00    +0.048 A 
ATOM     31  H   UNL     1      -5.660  -1.419  24.772  0.00  0.00    +0.149 HD
ENDROOT
BRANCH   6  12
ATOM      1  O   UNL     1      -5.318   1.901  25.701  0.00  0.00    -0.369 OA
ATOM      2  O   UNL     1      -3.813   2.335  23.063  0.00  0.00    -0.369 OA
ATOM     10  C   UNL     1      -3.797   1.242  24.006  0.00  0.00    +0.172 C 
ATOM     11  C   UNL     1      -3.917   1.852  25.388  0.00  0.00    +0.180 C 
ATOM     12  C   UNL     1      -5.054   0.415  23.860  0.00  0.00    +0.130 C 
ATOM     13  C   UNL     1      -3.341   3.234  25.186  0.00  0.00    +0.176 C 
ATOM     14  C   UNL     1      -6.056   1.205  24.685  0.00  0.00    +0.185 C 
ATOM     15  C   UNL     1      -3.808   3.573  23.789  0.00  0.00    +0.194 C 
BRANCH  13   3
ATOM      3  O   UNL     1      -3.787   4.173  26.138  0.00  0.00    -0.362 OA
BRANCH   3  16
ATOM     16  C   UNL     1      -2.740   5.043  26.560  0.00  0.00    +0.256 C 
BRANCH  16  18
ATOM      4  O   UNL     1      -2.024   6.298  24.681  0.00  0.00    -0.273 OA
ATOM      9  N   UNL     1      -0.739   4.438  25.213  0.00  0.00    -0.306 N 
ATOM     18  C   UNL     1      -1.807   5.317  25.399  0.00  0.00    +0.241 C 
ATOM     23  C   UNL     1       0.193   4.666  24.114  0.00  0.00    +0.131 C 
ATOM     24  C   UNL     1      -0.440   3.278  26.049  0.00  0.00    +0.131 C 
ENDBRANCH  16  18
ENDBRANCH   3  16
ENDBRANCH  13   3
ENDBRANCH   6  12
BRANCH  19  22
ATOM     22  C   UNL     1      -0.210  -0.576  23.992  0.00  0.00    +0.001 A 
ATOM     25  C   UNL     1       0.795  -1.170  23.228  0.00  0.00    +0.013 A 
ATOM     26  C   UNL     1      -0.108   0.766  24.357  0.00  0.00    +0.013 A 
ATOM     27  C   UNL     1       1.902  -0.422  22.828  0.00  0.00    +0.046 A 
ATOM     28  C   UNL     1       0.999   1.515  23.957  0.00  0.00    +0.046 A 
ATOM     29  C   UNL     1       2.004   0.921  23.193  0.00  0.00    +0.120 A 
BRANCH  29   5
ATOM      5  O   UNL     1       3.084   1.652  22.803  0.00  0.00    -0.495 OA
ATOM     30  C   UNL     1       4.336   0.971  22.728  0.00  0.00    +0.277 C 
ENDBRANCH  29   5
ENDBRANCH  19  22
TORSDOF 6
ENDMDL
MODEL 4
REMARK VINA RESULT:      -0.3      2.415      4.798
REMARK  Name = 25390790
REMARK  9 active torsions:
REMARK  status: ('A' for Active; 'I' for Inactive)
REMARK    1  A    between atoms: O_3  and  C_13
REMARK    2  A    between atoms: O_3  and  C_16
REMARK    3  A    between atoms: O_5  and  C_29
REMARK    4  A    between atoms: O_5  and  C_30
REMARK    5  A    between atoms: N_6  and  C_12
REMARK    6  A    between atoms: N_9  and  C_23
REMARK    7  A    between atoms: N_9  and  C_24
REMARK    8  A    between atoms: C_16  and  C_18
REMARK    9  A    between atoms: C_19  and  C_22
REMARK                            x       y       z     vdW  Elec       q    Type
REMARK                         _______ _______ _______ _____ _____    ______ ____
ROOT
ATOM      6  N   UNL     1      -1.574  -2.375  24.866  0.00  0.00    -0.306 N 
ATOM      7  N   UNL     1      -3.210  -0.727  24.890  0.00  0.00    -0.214 NA
ATOM      8  N   UNL     1      -3.641  -2.903  23.950  0.00  0.00    -0.223 NA
ATOM     17  C   UNL     1      -2.865  -1.985  24.556  0.00  0.00    +0.216 A 
ATOM     19  C   UNL     1      -4.474  -0.379  24.571  0.00  0.00    +0.076 A 
ATOM     20  C   UNL     1      -4.891  -2.490  23.658  0.00  0.00    +0.116 A 
ATOM     21  C   UNL     1      -5.368  -1.227  23.948  0.00  0.00    +0.048 A 
ATOM     31  H   UNL     1      -1.290  -3.302  24.569  0.00  0.00    +0.149 HD
ENDROOT
BRANCH   6  12
ATOM      1  O   UNL     1       0.961  -0.894  23.841  0.00  0.00    -0.369 OA
ATOM      2  O   UNL     1      -0.236   0.807  26.096  0.00  0.00    -0.369 OA
ATOM     10  C   UNL     1      -0.851  -0.072  25.131  0.00  0.00    +0.172 C 
ATOM     11  C   UNL     1      -0.083   0.093  23.835  0.00  0.00    +0.180 C 
ATOM     12  C   UNL     1      -0.610  -1.513  25.517  0.00  0.00    +0.130 C 
ATOM     13  C   UNL     1       0.470   1.493  23.958  0.00  0.00    +0.176 C 
ATOM     14  C   UNL     1       0.782  -1.767  24.966  0.00  0.00    +0.185 C 
ATOM     15  C   UNL     1       0.773   1.586  25.437  0.00  0.00    +0.194 C 
BRANCH  13   3
ATOM      3  O   UNL     1       1.615   1.717  23.166  0.00  0.00    -0.362 OA
BRANCH   3  16
ATOM     16  C   UNL     1       2.319   0.508  22.892  0.00  0.00    +0.256 C 
BRANCH  16  18
ATOM      4  O   UNL     1       4.208   1.871  22.457  0.00  0.00    -0.273 OA
ATOM      9  N   UNL     1       4.651  -0.229  23.344  0.00  0.00    -0.306 N 
ATOM     18  C   UNL     1       3.808   0.780  22.874  0.00  0.00    +0.241 C 
ATOM     23  C   UNL     1       6.092  -0.010  23.355  0.00  0.00    +0.131 C 
ATOM     24  C   UNL     1       4.215  -1.524  23.860  0.00  0.00    +0.131 C 
ENDBRANCH  16  18
ENDBRANCH   3  16
ENDBRANCH  13   3
ENDBRANCH   6  12
BRANCH  19  22
ATOM     22  C   UNL     1      -4.848   0.968  24.927  0.00  0.00    +0.001 A 
ATOM     25  C   UNL     1      -4.080   2.045  24.485  0.00  0.00    +0.013 A 
ATOM     26  C   UNL     1      -5.976   1.193  25.716  0.00  0.00    +0.013 A 
ATOM     27  C   UNL     1      -4.439   3.348  24.831  0.00  0.00    +0.046 A 
ATOM     28  C   UNL     1      -6.335   2.496  26.062  0.00  0.00    +0.046 A 
ATOM     29  C   UNL     1      -5.567   3.573  25.620  0.00  0.00    +0.120 A 
BRANCH  29   5
ATOM      5  O   UNL     1      -5.918   4.844  25.958  0.00  0.00    -0.495 OA
ATOM     30  C   UNL     1      -6.520   5.643  24.941  0.00  0.00    +0.277 C 
ENDBRANCH  29   5
ENDBRANCH  19  22
TORSDOF 6
ENDMDL
MODEL 5
REMARK VINA RESULT:      -0.1      2.063      6.928
REMARK  Name = 25390790
REMARK  9 active torsions:
REMARK  status: ('A' for Active; 'I' for Inactive)
REMARK    1  A    between atoms: O_3  and  C_13
REMARK    2  A    between atoms: O_3  and  C_16
REMARK    3  A    between atoms: O_5  and  C_29
REMARK    4  A    between atoms: O_5  and  C_30
REMARK    5  A    between atoms: N_6  and  C_12
REMARK    6  A    between atoms: N_9  and  C_23
REMARK    7  A    between atoms: N_9  and  C_24
REMARK    8  A    between atoms: C_16  and  C_18
REMARK    9  A    between atoms: C_19  and  C_22
REMARK                            x       y       z     vdW  Elec       q    Type
REMARK                         _______ _______ _______ _____ _____    ______ ____
ROOT
ATOM      6  N   UNL     1       0.511  -1.961  24.314  0.00  0.00    -0.306 N 
ATOM      7  N   UNL     1       0.182   0.336  24.431  0.00  0.00    -0.214 NA
ATOM      8  N   UNL     1       2.038  -0.602  23.212  0.00  0.00    -0.223 NA
ATOM     17  C   UNL     1       0.928  -0.686  23.970  0.00  0.00    +0.216 A 
ATOM     19  C   UNL     1       0.619   1.563  24.078  0.00  0.00    +0.076 A 
ATOM     20  C   UNL     1       2.419   0.654  22.898  0.00  0.00    +0.116 A 
ATOM     21  C   UNL     1       1.742   1.785  23.306  0.00  0.00    +0.048 A 
ATOM     31  H   UNL     1       1.097  -2.732  24.017  0.00  0.00    +0.149 HD
ENDROOT
BRANCH   6  12
ATOM      1  O   UNL     1      -2.077  -0.332  24.883  0.00  0.00    -0.369 OA
ATOM      2  O   UNL     1      -2.826  -3.304  25.015  0.00  0.00    -0.369 OA
ATOM     10  C   UNL     1      -1.831  -2.601  24.242  0.00  0.00    +0.172 C 
ATOM     11  C   UNL     1      -2.436  -1.267  23.854  0.00  0.00    +0.180 C 
ATOM     12  C   UNL     1      -0.660  -2.229  25.122  0.00  0.00    +0.130 C 
ATOM     13  C   UNL     1      -3.917  -1.566  23.862  0.00  0.00    +0.176 C 
ATOM     14  C   UNL     1      -1.148  -0.952  25.785  0.00  0.00    +0.185 C 
ATOM     15  C   UNL     1      -4.039  -2.537  25.015  0.00  0.00    +0.194 C 
BRANCH  13   3
ATOM      3  O   UNL     1      -4.720  -0.422  24.045  0.00  0.00    -0.362 OA
BRANCH   3  16
ATOM     16  C   UNL     1      -4.246   0.398  25.110  0.00  0.00    +0.256 C 
BRANCH  16  18
ATOM      4  O   UNL     1      -5.496   2.341  25.638  0.00  0.00    -0.273 OA
ATOM      9  N   UNL     1      -4.085   2.507  23.802  0.00  0.00    -0.306 N 
ATOM     18  C   UNL     1      -4.669   1.833  24.875  0.00  0.00    +0.241 C 
ATOM     23  C   UNL     1      -4.453   3.894  23.541  0.00  0.00    +0.131 C 
ATOM     24  C   UNL     1      -3.092   1.947  22.888  0.00  0.00    +0.131 C 
ENDBRANCH  16  18
ENDBRANCH   3  16
ENDBRANCH  13   3
ENDBRANCH   6  12
BRANCH  19  22
ATOM     22  C   UNL     1      -0.177   2.662  24.570  0.00  0.00    +0.001 A 
ATOM     25  C   UNL     1      -0.971   2.495  25.705  0.00  0.00    +0.013 A 
ATOM     26  C   UNL     1      -0.155   3.890  23.909  0.00  0.00    +0.013 A 
ATOM     27  C   UNL     1      -1.743   3.555  26.179  0.00  0.00    +0.046 A 
ATOM     28  C   UNL     1      -0.926   4.950  24.384  0.00  0.00    +0.046 A 
ATOM     29  C   UNL     1      -1.720   4.783  25.518  0.00  0.00    +0.120 A 
BRANCH  29   5
ATOM      5  O   UNL     1      -2.473   5.819  25.981  0.00  0.00    -0.495 OA
ATOM     30  C   UNL     1      -3.728   5.493  26.579  0.00  0.00    +0.277 C 
ENDBRANCH  29   5
ENDBRANCH  19  22
TORSDOF 6
ENDMDL
MODEL 6
REMARK VINA RESULT:      -0.0      2.408      3.797
REMARK  Name = 25390790
REMARK  9 active torsions:
REMARK  status: ('A' for Active; 'I' for Inactive)
REMARK    1  A    between atoms: O_3  and  C_13
REMARK    2  A    between atoms: O_3  and  C_16
REMARK    3  A    between atoms: O_5  and  C_29
REMARK    4  A    between atoms: O_5  and  C_30
REMARK    5  A    between atoms: N_6  and  C_12
REMARK    6  A    between atoms: N_9  and  C_23
REMARK    7  A    between atoms: N_9  and  C_24
REMARK    8  A    between atoms: C_16  and  C_18
REMARK    9  A    between atoms: C_19  and  C_22
REMARK                            x       y       z     vdW  Elec       q    Type
REMARK                         _______ _______ _______ _____ _____    ______ ____
ROOT
ATOM      6  N   UNL     1      -3.613   4.530  24.767  0.00  0.00    -0.306 N 
ATOM      7  N   UNL     1      -4.003   2.243  24.900  0.00  0.00    -0.214 NA
ATOM      8  N   UNL     1      -5.604   3.836  25.739  0.00  0.00    -0.223 NA
ATOM     17  C   UNL     1      -4.443   3.491  25.151  0.00  0.00    +0.216 A 
ATOM     19  C   UNL     1      -4.836   1.256  25.290  0.00  0.00    +0.076 A 
ATOM     20  C   UNL     1      -6.388   2.801  26.105  0.00  0.00    +0.116 A 
ATOM     21  C   UNL     1      -6.052   1.477  25.903  0.00  0.00    +0.048 A 
ATOM     31  H   UNL     1      -3.914   5.469  25.002  0.00  0.00    +0.149 HD
ENDROOT
BRANCH   6  12
ATOM      1  O   UNL     1      -0.694   4.528  25.839  0.00  0.00    -0.369 OA
ATOM      2  O   UNL     1      -0.792   2.587  23.465  0.00  0.00    -0.369 OA
ATOM     10  C   UNL     1      -1.790   2.960  24.438  0.00  0.00    +0.172 C 
ATOM     11  C   UNL     1      -1.070   3.143  25.758  0.00  0.00    +0.180 C 
ATOM     12  C   UNL     1      -2.332   4.335  24.122  0.00  0.00    +0.130 C 
ATOM     13  C   UNL     1       0.135   2.246  25.601  0.00  0.00    +0.176 C 
ATOM     14  C   UNL     1      -1.285   5.244  24.744  0.00  0.00    +0.185 C 
ATOM     15  C   UNL     1       0.465   2.410  24.134  0.00  0.00    +0.194 C 
BRANCH  13   3
ATOM      3  O   UNL     1       1.216   2.605  26.432  0.00  0.00    -0.362 OA
BRANCH   3  16
ATOM     16  C   UNL     1       0.791   2.913  27.756  0.00  0.00    +0.256 C 
BRANCH  16  18
ATOM      4  O   UNL     1       2.990   2.250  28.337  0.00  0.00    -0.273 OA
ATOM      9  N   UNL     1       1.459   2.335  30.081  0.00  0.00    -0.306 N 
ATOM     18  C   UNL     1       1.846   2.467  28.747  0.00  0.00    +0.241 C 
ATOM     23  C   UNL     1       2.443   1.917  31.073  0.00  0.00    +0.131 C 
ATOM     24  C   UNL     1       0.122   2.598  30.606  0.00  0.00    +0.131 C 
ENDBRANCH  16  18
ENDBRANCH   3  16
ENDBRANCH  13   3
ENDBRANCH   6  12
BRANCH  19  22
ATOM     22  C   UNL     1      -4.367  -0.082  25.022  0.00  0.00    +0.001 A 
ATOM     25  C   UNL     1      -3.509  -0.714  25.923  0.00  0.00    +0.013 A 
ATOM     26  C   UNL     1      -4.769  -0.743  23.862  0.00  0.00    +0.013 A 
ATOM     27  C   UNL     1      -3.054  -2.007  25.664  0.00  0.00    +0.046 A 
ATOM     28  C   UNL     1      -4.314  -2.035  23.603  0.00  0.00    +0.046 A 
ATOM     29  C   UNL     1      -3.456  -2.668  24.503  0.00  0.00    +0.120 A 
BRANCH  29   5
ATOM      5  O   UNL     1      -3.012  -3.929  24.250  0.00  0.00    -0.495 OA
ATOM     30  C   UNL     1      -1.942  -4.065  23.316  0.00  0.00    +0.277 C 
ENDBRANCH  29   5
ENDBRANCH  19  22
TORSDOF 6
ENDMDL
MODEL 7
REMARK VINA RESULT:       0.0      1.664      4.985
REMARK  Name = 25390790
REMARK  9 active torsions:
REMARK  status: ('A' for Active; 'I' for Inactive)
REMARK    1  A    between atoms: O_3  and  C_13
REMARK    2  A    between atoms: O_3  and  C_16
REMARK    3  A    between atoms: O_5  and  C_29
REMARK    4  A    between atoms: O_5  and  C_30
REMARK    5  A    between atoms: N_6  and  C_12
REMARK    6  A    between atoms: N_9  and  C_23
REMARK    7  A    between atoms: N_9  and  C_24
REMARK    8  A    between atoms: C_16  and  C_18
REMARK    9  A    between atoms: C_19  and  C_22
REMARK                            x       y       z     vdW  Elec       q    Type
REMARK                         _______ _______ _______ _____ _____    ______ ____
ROOT
ATOM      6  N   UNL     1      -5.462  -0.424  24.771  0.00  0.00    -0.306 N 
ATOM      7  N   UNL     1      -4.176   1.511  24.794  0.00  0.00    -0.214 NA
ATOM      8  N   UNL     1      -6.315   1.418  25.900  0.00  0.00    -0.223 NA
ATOM     17  C   UNL     1      -5.310   0.892  25.173  0.00  0.00    +0.216 A 
ATOM     19  C   UNL     1      -4.063   2.792  25.201  0.00  0.00    +0.076 A 
ATOM     20  C   UNL     1      -6.137   2.702  26.273  0.00  0.00    +0.116 A 
ATOM     21  C   UNL     1      -5.021   3.447  25.949  0.00  0.00    +0.048 A 
ATOM     31  H   UNL     1      -6.337  -0.878  25.007  0.00  0.00    +0.149 HD
ENDROOT
BRANCH   6  12
ATOM      1  O   UNL     1      -2.443   0.070  24.215  0.00  0.00    -0.369 OA
ATOM      2  O   UNL     1      -2.896  -2.964  24.144  0.00  0.00    -0.369 OA
ATOM     10  C   UNL     1      -3.550  -1.916  24.890  0.00  0.00    +0.172 C 
ATOM     11  C   UNL     1      -2.480  -0.910  25.265  0.00  0.00    +0.180 C 
ATOM     12  C   UNL     1      -4.480  -1.140  23.986  0.00  0.00    +0.130 C 
ATOM     13  C   UNL     1      -1.229  -1.756  25.284  0.00  0.00    +0.176 C 
ATOM     14  C   UNL     1      -3.532  -0.163  23.309  0.00  0.00    +0.185 C 
ATOM     15  C   UNL     1      -1.481  -2.724  24.150  0.00  0.00    +0.194 C 
BRANCH  13   3
ATOM      3  O   UNL     1      -0.045  -1.014  25.096  0.00  0.00    -0.362 OA
BRANCH   3  16
ATOM     16  C   UNL     1      -0.027  -0.351  23.834  0.00  0.00    +0.256 C 
BRANCH  16  18
ATOM      4  O   UNL     1       1.165   1.547  24.605  0.00  0.00    -0.273 OA
ATOM      9  N   UNL     1       2.112   0.408  22.816  0.00  0.00    -0.306 N 
ATOM     18  C   UNL     1       1.133   0.622  23.788  0.00  0.00    +0.241 C 
ATOM     23  C   UNL     1       3.253   1.313  22.738  0.00  0.00    +0.131 C 
ATOM     24  C   UNL     1       2.116  -0.682  21.844  0.00  0.00    +0.131 C 
ENDBRANCH  16  18
ENDBRANCH   3  16
ENDBRANCH  13   3
ENDBRANCH   6  12
BRANCH  19  22
ATOM     22  C   UNL     1      -2.849   3.459  24.796  0.00  0.00    +0.001 A 
ATOM     25  C   UNL     1      -2.432   4.614  25.458  0.00  0.00    +0.013 A 
ATOM     26  C   UNL     1      -2.093   2.950  23.740  0.00  0.00    +0.013 A 
ATOM     27  C   UNL     1      -1.260   5.259  25.066  0.00  0.00    +0.046 A 
ATOM     28  C   UNL     1      -0.920   3.595  23.347  0.00  0.00    +0.046 A 
ATOM     29  C   UNL     1      -0.504   4.750  24.010  0.00  0.00    +0.120 A 
BRANCH  29   5
ATOM      5  O   UNL     1       0.640   5.380  23.627  0.00  0.00    -0.495 OA
ATOM     30  C   UNL     1       0.862   5.528  22.225  0.00  0.00    +0.277 C 
ENDBRANCH  29   5
ENDBRANCH  19  22
TORSDOF 6
ENDMDL
MODEL 8
REMARK VINA RESULT:       0.4      2.575      5.392
REMARK  Name = 25390790
REMARK  9 active torsions:
REMARK  status: ('A' for Active; 'I' for Inactive)
REMARK    1  A    between atoms: O_3  and  C_13
REMARK    2  A    between atoms: O_3  and  C_16
REMARK    3  A    between atoms: O_5  and  C_29
REMARK    4  A    between atoms: O_5  and  C_30
REMARK    5  A    between atoms: N_6  and  C_12
REMARK    6  A    between atoms: N_9  and  C_23
REMARK    7  A    between atoms: N_9  and  C_24
REMARK    8  A    between atoms: C_16  and  C_18
REMARK    9  A    between atoms: C_19  and  C_22
REMARK                            x       y       z     vdW  Elec       q    Type
REMARK                         _______ _______ _______ _____ _____    ______ ____
ROOT
ATOM      6  N   UNL     1      -5.008   0.238  24.548  0.00  0.00    -0.306 N 
ATOM      7  N   UNL     1      -2.745  -0.085  24.129  0.00  0.00    -0.214 NA
ATOM      8  N   UNL     1      -4.222  -1.947  24.529  0.00  0.00    -0.223 NA
ATOM     17  C   UNL     1      -3.945  -0.636  24.395  0.00  0.00    +0.216 A 
ATOM     19  C   UNL     1      -1.733  -0.966  23.989  0.00  0.00    +0.076 A 
ATOM     20  C   UNL     1      -3.165  -2.771  24.377  0.00  0.00    +0.116 A 
ATOM     21  C   UNL     1      -1.885  -2.333  24.103  0.00  0.00    +0.048 A 
ATOM     31  H   UNL     1      -5.902  -0.166  24.801  0.00  0.00    +0.149 HD
ENDROOT
BRANCH   6  12
ATOM      1  O   UNL     1      -3.792   2.402  26.421  0.00  0.00    -0.369 OA
ATOM      2  O   UNL     1      -3.424   3.385  23.538  0.00  0.00    -0.369 OA
ATOM     10  C   UNL     1      -3.461   2.056  24.099  0.00  0.00    +0.172 C 
ATOM     11  C   UNL     1      -2.773   2.128  25.447  0.00  0.00    +0.180 C 
ATOM     12  C   UNL     1      -4.885   1.676  24.435  0.00  0.00    +0.130 C 
ATOM     13  C   UNL     1      -1.836   3.301  25.273  0.00  0.00    +0.176 C 
ATOM     14  C   UNL     1      -5.081   2.330  25.793  0.00  0.00    +0.185 C 
ATOM     15  C   UNL     1      -2.649   4.231  24.400  0.00  0.00    +0.194 C 
BRANCH  13   3
ATOM      3  O   UNL     1      -1.461   3.906  26.489  0.00  0.00    -0.362 OA
BRANCH   3  16
ATOM     16  C   UNL     1      -0.969   2.955  27.429  0.00  0.00    +0.256 C 
BRANCH  16  18
ATOM      4  O   UNL     1       1.104   3.061  26.284  0.00  0.00    -0.273 OA
ATOM      9  N   UNL     1       1.225   2.748  28.582  0.00  0.00    -0.306 N 
ATOM     18  C   UNL     1       0.545   2.924  27.377  0.00  0.00    +0.241 C 
ATOM     23  C   UNL     1       2.683   2.721  28.584  0.00  0.00    +0.131 C 
ATOM     24  C   UNL     1       0.601   2.598  29.894  0.00  0.00    +0.131 C 
ENDBRANCH  16  18
ENDBRANCH   3  16
ENDBRANCH  13   3
ENDBRANCH   6  12
BRANCH  19  22
ATOM     22  C   UNL     1      -0.446  -0.379  23.705  0.00  0.00    +0.001 A 
ATOM     25  C   UNL     1      -0.113   0.866  24.240  0.00  0.00    +0.013 A 
ATOM     26  C   UNL     1       0.465  -1.055  22.893  0.00  0.00    +0.013 A 
ATOM     27  C   UNL     1       1.130   1.435  23.964  0.00  0.00    +0.046 A 
ATOM     28  C   UNL     1       1.708  -0.486  22.617  0.00  0.00    +0.046 A 
ATOM     29  C   UNL     1       2.041   0.758  23.152  0.00  0.00    +0.120 A 
BRANCH  29   5
ATOM      5  O   UNL     1       3.254   1.313  22.882  0.00  0.00    -0.495 OA
ATOM     30  C   UNL     1       4.397   0.466  23.002  0.00  0.00    +0.277 C 
ENDBRANCH  29   5
ENDBRANCH  19  22
TORSDOF 6
ENDMDL
MODEL 9
REMARK VINA RESULT:       1.4      1.799      4.747
REMARK  Name = 25390790
REMARK  9 active torsions:
REMARK  status: ('A' for Active; 'I' for Inactive)
REMARK    1  A    between atoms: O_3  and  C_13
REMARK    2  A    between atoms: O_3  and  C_16
REMARK    3  A    between atoms: O_5  and  C_29
REMARK    4  A    between atoms: O_5  and  C_30
REMARK    5  A    between atoms: N_6  and  C_12
REMARK    6  A    between atoms: N_9  and  C_23
REMARK    7  A    between atoms: N_9  and  C_24
REMARK    8  A    between atoms: C_16  and  C_18
REMARK    9  A    between atoms: C_19  and  C_22
REMARK                            x       y       z     vdW  Elec       q    Type
REMARK                         _______ _______ _______ _____ _____    ______ ____
ROOT
ATOM      6  N   UNL     1      -4.426  -1.137  25.609  0.00  0.00    -0.306 N 
ATOM      7  N   UNL     1      -3.624   0.993  25.140  0.00  0.00    -0.214 NA
ATOM      8  N   UNL     1      -5.988   0.554  25.306  0.00  0.00    -0.223 NA
ATOM     17  C   UNL     1      -4.690   0.195  25.341  0.00  0.00    +0.216 A 
ATOM     19  C   UNL     1      -3.919   2.283  24.879  0.00  0.00    +0.076 A 
ATOM     20  C   UNL     1      -6.211   1.858  25.039  0.00  0.00    +0.116 A 
ATOM     21  C   UNL     1      -5.207   2.778  24.815  0.00  0.00    +0.048 A 
ATOM     31  H   UNL     1      -5.224  -1.753  25.706  0.00  0.00    +0.149 HD
ENDROOT
BRANCH   6  12
ATOM      1  O   UNL     1      -2.153  -1.444  23.508  0.00  0.00    -0.369 OA
ATOM      2  O   UNL     1      -0.817  -1.073  26.245  0.00  0.00    -0.369 OA
ATOM     10  C   UNL     1      -2.064  -0.579  25.714  0.00  0.00    +0.172 C 
ATOM     11  C   UNL     1      -1.824  -0.260  24.252  0.00  0.00    +0.180 C 
ATOM     12  C   UNL     1      -3.090  -1.689  25.683  0.00  0.00    +0.130 C 
ATOM     13  C   UNL     1      -0.342   0.027  24.220  0.00  0.00    +0.176 C 
ATOM     14  C   UNL     1      -2.745  -2.410  24.390  0.00  0.00    +0.185 C 
ATOM     15  C   UNL     1       0.195  -0.957  25.235  0.00  0.00    +0.194 C 
BRANCH  13   3
ATOM      3  O   UNL     1       0.238  -0.153  22.947  0.00  0.00    -0.362 OA
BRANCH   3  16
ATOM     16  C   UNL     1       1.485  -0.838  23.022  0.00  0.00    +0.256 C 
BRANCH  16  18
ATOM      4  O   UNL     1       2.369   1.345  22.756  0.00  0.00    -0.273 OA
ATOM      9  N   UNL     1       3.891  -0.303  23.361  0.00  0.00    -0.306 N 
ATOM     18  C   UNL     1       2.618   0.167  23.031  0.00  0.00    +0.241 C 
ATOM     23  C   UNL     1       5.011   0.630  23.392  0.00  0.00    +0.131 C 
ATOM     24  C   UNL     1       4.221  -1.682  23.707  0.00  0.00    +0.131 C 
ENDBRANCH  16  18
ENDBRANCH   3  16
ENDBRANCH  13   3
ENDBRANCH   6  12
BRANCH  19  22
ATOM     22  C   UNL     1      -2.779   3.141  24.664  0.00  0.00    +0.001 A 
ATOM     25  C   UNL     1      -1.817   2.797  23.713  0.00  0.00    +0.013 A 
ATOM     26  C   UNL     1      -2.637   4.313  25.407  0.00  0.00    +0.013 A 
ATOM     27  C   UNL     1      -0.714   3.625  23.506  0.00  0.00    +0.046 A 
ATOM     28  C   UNL     1      -1.534   5.140  25.200  0.00  0.00    +0.046 A 
ATOM     29  C   UNL     1      -0.572   4.796  24.250  0.00  0.00    +0.120 A 
BRANCH  29   5
ATOM      5  O   UNL     1       0.505   5.604  24.048  0.00  0.00    -0.495 OA
ATOM     30  C   UNL     1       0.986   5.722  22.710  0.00  0.00    +0.277 C 
ENDBRANCH  29   5
ENDBRANCH  19  22
TORSDOF 6
ENDMDL
MODEL 10
REMARK VINA RESULT:       1.6      2.086      5.136
REMARK  Name = 25390790
REMARK  9 active torsions:
REMARK  status: ('A' for Active; 'I' for Inactive)
REMARK    1  A    between atoms: O_3  and  C_13
REMARK    2  A    between atoms: O_3  and  C_16
REMARK    3  A    between atoms: O_5  and  C_29
REMARK    4  A    between atoms: O_5  and  C_30
REMARK    5  A    between atoms: N_6  and  C_12
REMARK    6  A    between atoms: N_9  and  C_23
REMARK    7  A    between atoms: N_9  and  C_24
REMARK    8  A    between atoms: C_16  and  C_18
REMARK    9  A    between atoms: C_19  and  C_22
REMARK                            x       y       z     vdW  Elec       q    Type
REMARK                         _______ _______ _______ _____ _____    ______ ____
ROOT
ATOM      6  N   UNL     1      -3.958   4.026  24.328  0.00  0.00    -0.306 N 
ATOM      7  N   UNL     1      -1.821   3.148  24.085  0.00  0.00    -0.214 NA
ATOM      8  N   UNL     1      -2.172   5.357  24.982  0.00  0.00    -0.223 NA
ATOM     17  C   UNL     1      -2.590   4.183  24.472  0.00  0.00    +0.216 A 
ATOM     19  C   UNL     1      -0.493   3.337  24.238  0.00  0.00    +0.076 A 
ATOM     20  C   UNL     1      -0.834   5.479  25.107  0.00  0.00    +0.116 A 
ATOM     21  C   UNL     1       0.063   4.493  24.748  0.00  0.00    +0.048 A 
ATOM     31  H   UNL     1      -4.539   4.821  24.566  0.00  0.00    +0.149 HD
ENDROOT
BRANCH   6  12
ATOM      1  O   UNL     1      -3.079   1.043  24.285  0.00  0.00    -0.369 OA
ATOM      2  O   UNL     1      -6.145   1.086  24.393  0.00  0.00    -0.369 OA
ATOM     10  C   UNL     1      -5.156   1.997  24.916  0.00  0.00    +0.172 C 
ATOM     11  C   UNL     1      -3.989   1.154  25.391  0.00  0.00    +0.180 C 
ATOM     12  C   UNL     1      -4.575   2.829  23.797  0.00  0.00    +0.130 C 
ATOM     13  C   UNL     1      -4.648  -0.168  25.707  0.00  0.00    +0.176 C 
ATOM     14  C   UNL     1      -3.517   1.902  23.221  0.00  0.00    +0.185 C 
ATOM     15  C   UNL     1      -5.708  -0.260  24.633  0.00  0.00    +0.194 C 
BRANCH  13   3
ATOM      3  O   UNL     1      -3.760  -1.261  25.672  0.00  0.00    -0.362 OA
BRANCH   3  16
ATOM     16  C   UNL     1      -3.240  -1.485  24.364  0.00  0.00    +0.256 C 
BRANCH  16  18
ATOM      4  O   UNL     1      -1.855  -3.297  23.721  0.00  0.00    -0.273 OA
ATOM      9  N   UNL     1      -0.999  -1.895  25.363  0.00  0.00    -0.306 N 
ATOM     18  C   UNL     1      -1.973  -2.310  24.453  0.00  0.00    +0.241 C 
ATOM     23  C   UNL     1       0.242  -2.652  25.478  0.00  0.00    +0.131 C 
ATOM     24  C   UNL     1      -1.096  -0.725  26.233  0.00  0.00    +0.131 C 
ENDBRANCH  16  18
ENDBRANCH   3  16
ENDBRANCH  13   3
ENDBRANCH   6  12
BRANCH  19  22
ATOM     22  C   UNL     1       0.335   2.230  23.824  0.00  0.00    +0.001 A 
ATOM     25  C   UNL     1      -0.253   1.021  23.449  0.00  0.00    +0.013 A 
ATOM     26  C   UNL     1       1.723   2.367  23.802  0.00  0.00    +0.013 A 
ATOM     27  C   UNL     1       0.547  -0.050  23.051  0.00  0.00    +0.046 A 
ATOM     28  C   UNL     1       2.522   1.296  23.404  0.00  0.00    +0.046 A 
ATOM     29  C   UNL     1       1.935   0.088  23.029  0.00  0.00    +0.120 A 
BRANCH  29   5
ATOM      5  O   UNL     1       2.716  -0.958  22.641  0.00  0.00    -0.495 OA
ATOM     30  C   UNL     1       3.914  -1.184  23.383  0.00  0.00    +0.277 C 
ENDBRANCH  29   5
ENDBRANCH  19  22
TORSDOF 6
ENDMDL
