MODEL 1
REMARK VINA RESULT:      -1.2      0.000      0.000
REMARK  Name = 28963061
REMARK  12 active torsions:
REMARK  status: ('A' for Active; 'I' for Inactive)
REMARK    1  A    between atoms: O_1  and  C_10
REMARK    2  A    between atoms: N_4  and  C_14
REMARK    3  A    between atoms: N_5  and  C_23
REMARK    4  A    between atoms: C_7  and  C_17
REMARK    5  A    between atoms: C_9  and  C_19
REMARK    6  A    between atoms: C_12  and  C_18
REMARK    7  A    between atoms: C_18  and  C_20
REMARK    8  A    between atoms: C_18  and  C_21
REMARK    9  A    between atoms: C_22  and  C_24
REMARK   10  A    between atoms: C_23  and  C_25
REMARK   11  A    between atoms: C_23  and  C_26
REMARK   12  A    between atoms: C_23  and  C_27
REMARK                            x       y       z     vdW  Elec       q    Type
REMARK                         _______ _______ _______ _____ _____    ______ ____
ROOT
ATOM      7  C   UNL     1      -2.915  -1.279  24.886  0.00  0.00    -0.027 C 
ATOM      8  C   UNL     1      -2.543   0.063  24.172  0.00  0.00    +0.028 C 
ATOM      9  C   UNL     1      -0.999   0.337  24.264  0.00  0.00    +0.012 C 
ATOM     10  C   UNL     1      -3.458   1.228  24.650  0.00  0.00    +0.122 C 
ATOM     11  C   UNL     1      -4.420  -1.574  24.679  0.00  0.00    +0.007 C 
ATOM     12  C   UNL     1      -4.963   0.887  24.539  0.00  0.00    +0.029 C 
ATOM     13  C   UNL     1      -2.116  -2.433  24.237  0.00  0.00    +0.009 C 
ATOM     14  C   UNL     1      -0.204  -0.864  23.677  0.00  0.00    +0.076 C 
ATOM     15  C   UNL     1      -5.319  -0.453  25.182  0.00  0.00    +0.007 C 
ATOM     16  C   UNL     1      -0.611  -2.212  24.272  0.00  0.00    +0.023 C 
ATOM     17  C   UNL     1      -2.619  -1.245  26.406  0.00  0.00    +0.011 C 
ATOM     19  C   UNL     1      -0.559   1.629  23.557  0.00  0.00    +0.010 C 
ENDROOT
BRANCH  14   4
ATOM      3  O   UNL     1       1.714  -0.262  21.626  0.00  0.00    -0.269 OA
ATOM      4  N   UNL     1       1.223  -0.697  23.851  0.00  0.00    -0.307 N 
ATOM     22  C   UNL     1       2.069  -0.408  22.794  0.00  0.00    +0.263 C 
ATOM     32  H   UNL     1       1.620  -0.858  24.773  0.00  0.00    +0.149 HD
BRANCH  22  24
ATOM      6  N   UNL     1       4.069  -1.389  23.695  0.00  0.00    -0.250 NA
ATOM     24  C   UNL     1       3.511  -0.294  23.133  0.00  0.00    +0.125 A 
ATOM     28  C   UNL     1       4.200   0.879  22.870  0.00  0.00    +0.033 A 
ATOM     29  C   UNL     1       5.548   0.931  23.205  0.00  0.00    +0.004 A 
ATOM     30  C   UNL     1       5.381  -1.302  24.008  0.00  0.00    +0.111 A 
ATOM     31  C   UNL     1       6.158  -0.176  23.785  0.00  0.00    +0.020 A 
ENDBRANCH  22  24
ENDBRANCH  14   4
BRANCH  10   1
ATOM      1  O   UNL     1      -3.238   2.375  23.829  0.00  0.00    -0.391 OA
ATOM     33  H   UNL     1      -3.827   2.313  23.058  0.00  0.00    +0.210 HD
ENDBRANCH  10   1
BRANCH  12  18
ATOM     18  C   UNL     1      -5.842   1.992  25.135  0.00  0.00    +0.077 C 
ATOM     20  C   UNL     1      -7.027   2.273  24.217  0.00  0.00    +0.017 C 
BRANCH  18  21
ATOM      2  O   UNL     1      -5.401   4.371  25.058  0.00  0.00    -0.275 OA
ATOM      5  N   UNL     1      -3.786   2.973  25.961  0.00  0.00    -0.310 N 
ATOM     21  C   UNL     1      -5.010   3.249  25.369  0.00  0.00    +0.217 C 
ATOM     34  H   UNL     1      -3.546   2.007  26.168  0.00  0.00    +0.149 HD
BRANCH   5  23
ATOM     23  C   UNL     1      -2.823   4.001  26.280  0.00  0.00    +0.026 C 
ATOM     25  C   UNL     1      -2.713   4.975  25.100  0.00  0.00    +0.031 C 
ATOM     26  C   UNL     1      -3.289   4.753  27.531  0.00  0.00    +0.031 C 
ATOM     27  C   UNL     1      -1.458   3.354  26.542  0.00  0.00    +0.031 C 
ENDBRANCH   5  23
ENDBRANCH  18  21
ENDBRANCH  12  18
TORSDOF 6
ENDMDL
