MODEL 1
REMARK VINA RESULT:      -2.5      0.000      0.000
REMARK  Name = 11886097
REMARK  8 active torsions:
REMARK  status: ('A' for Active; 'I' for Inactive)
REMARK    1  A    between atoms: O_3  and  C_14
REMARK    2  A    between atoms: O_3  and  C_19
REMARK    3  A    between atoms: N_5  and  C_13
REMARK    4  A    between atoms: N_9  and  C_22
REMARK    5  A    between atoms: C_17  and  C_18
REMARK    6  A    between atoms: C_18  and  C_20
REMARK    7  A    between atoms: C_18  and  C_21
REMARK    8  A    between atoms: C_25  and  C_28
REMARK                            x       y       z     vdW  Elec       q    Type
REMARK                         _______ _______ _______ _____ _____    ______ ____
ROOT
ATOM      1  O   UNL     1      13.809  -7.494  28.958  0.00  0.00    -0.368 OA
ATOM      2  O   UNL     1      15.331  -8.967  31.209  0.00  0.00    -0.368 OA
ATOM     11  C   UNL     1      14.614  -7.713  31.183  0.00  0.00    +0.177 C 
ATOM     12  C   UNL     1      14.876  -7.087  29.828  0.00  0.00    +0.192 C 
ATOM     13  C   UNL     1      13.121  -7.983  31.194  0.00  0.00    +0.168 C 
ATOM     14  C   UNL     1      16.193  -7.708  29.425  0.00  0.00    +0.235 C 
ATOM     15  C   UNL     1      12.806  -8.185  29.716  0.00  0.00    +0.190 C 
ATOM     16  C   UNL     1      16.071  -9.104  29.988  0.00  0.00    +0.207 C 
ENDROOT
BRANCH  13   5
ATOM      5  N   UNL     1      12.364  -6.919  31.858  0.00  0.00    -0.221 N 
ATOM      6  N   UNL     1      12.916  -5.721  32.078  0.00  0.00    -0.043 NA
ATOM      7  N   UNL     1      10.824  -5.769  32.847  0.00  0.00    -0.113 NA
ATOM      8  N   UNL     1      11.967  -5.018  32.684  0.00  0.00    -0.023 NA
ATOM     17  C   UNL     1      11.094  -6.943  32.326  0.00  0.00    +0.154 A 
BRANCH  17  18
ATOM     18  C   UNL     1      10.210  -8.117  32.239  0.00  0.00    +0.052 C 
ATOM     20  C   UNL     1       8.805  -7.872  32.847  0.00  0.00    +0.015 C 
ATOM     21  C   UNL     1      10.819  -9.393  32.872  0.00  0.00    +0.015 C 
ENDBRANCH  17  18
ENDBRANCH  13   5
BRANCH  14   3
ATOM      3  O   UNL     1      16.410  -7.714  28.031  0.00  0.00    -0.442 OA
BRANCH   3  19
ATOM      4  O   UNL     1      17.121  -5.542  28.096  0.00  0.00    -0.226 OA
ATOM      9  N   UNL     1      16.596  -6.604  26.077  0.00  0.00    -0.251 N 
ATOM     19  C   UNL     1      16.748  -6.510  27.447  0.00  0.00    +0.405 C 
ATOM     29  H   UNL     1      16.273  -7.500  25.721  0.00  0.00    +0.158 HD
BRANCH   9  22
ATOM     22  C   UNL     1      16.834  -5.604  25.106  0.00  0.00    +0.038 A 
ATOM     23  C   UNL     1      16.730  -4.270  25.465  0.00  0.00    +0.042 A 
ATOM     24  C   UNL     1      17.167  -5.978  23.814  0.00  0.00    +0.023 A 
ATOM     25  C   UNL     1      16.965  -3.284  24.507  0.00  0.00    +0.054 A 
ATOM     26  C   UNL     1      17.403  -4.993  22.856  0.00  0.00    +0.003 A 
ATOM     27  C   UNL     1      17.301  -3.645  23.202  0.00  0.00    +0.019 A 
BRANCH  25  28
ATOM     10  N   UNL     1      16.777  -0.781  25.148  0.00  0.00    -0.191 NA
ATOM     28  C   UNL     1      16.862  -1.903  24.861  0.00  0.00    +0.099 C 
ENDBRANCH  25  28
ENDBRANCH   9  22
ENDBRANCH   3  19
ENDBRANCH  14   3
TORSDOF 6
ENDMDL
MODEL 2
REMARK VINA RESULT:      -2.4      1.887      2.392
REMARK  Name = 11886097
REMARK  8 active torsions:
REMARK  status: ('A' for Active; 'I' for Inactive)
REMARK    1  A    between atoms: O_3  and  C_14
REMARK    2  A    between atoms: O_3  and  C_19
REMARK    3  A    between atoms: N_5  and  C_13
REMARK    4  A    between atoms: N_9  and  C_22
REMARK    5  A    between atoms: C_17  and  C_18
REMARK    6  A    between atoms: C_18  and  C_20
REMARK    7  A    between atoms: C_18  and  C_21
REMARK    8  A    between atoms: C_25  and  C_28
REMARK                            x       y       z     vdW  Elec       q    Type
REMARK                         _______ _______ _______ _____ _____    ______ ____
ROOT
ATOM      1  O   UNL     1      13.079  -9.671  29.581  0.00  0.00    -0.368 OA
ATOM      2  O   UNL     1      14.326 -10.524  32.277  0.00  0.00    -0.368 OA
ATOM     11  C   UNL     1      13.506  -9.395  31.902  0.00  0.00    +0.177 C 
ATOM     12  C   UNL     1      13.936  -8.986  30.507  0.00  0.00    +0.192 C 
ATOM     13  C   UNL     1      12.066  -9.846  31.739  0.00  0.00    +0.168 C 
ATOM     14  C   UNL     1      15.356  -9.496  30.435  0.00  0.00    +0.235 C 
ATOM     15  C   UNL     1      12.031 -10.340  30.297  0.00  0.00    +0.190 C 
ATOM     16  C   UNL     1      15.275 -10.776  31.232  0.00  0.00    +0.207 C 
ENDROOT
BRANCH  13   5
ATOM      5  N   UNL     1      11.107  -8.787  32.063  0.00  0.00    -0.221 N 
ATOM      6  N   UNL     1      11.526  -7.597  32.506  0.00  0.00    -0.043 NA
ATOM      7  N   UNL     1       9.301  -7.642  32.373  0.00  0.00    -0.113 NA
ATOM      8  N   UNL     1      10.413  -6.897  32.694  0.00  0.00    -0.023 NA
ATOM     17  C   UNL     1       9.756  -8.810  31.984  0.00  0.00    +0.154 A 
BRANCH  17  18
ATOM     18  C   UNL     1       8.980  -9.976  31.530  0.00  0.00    +0.052 C 
ATOM     20  C   UNL     1       7.880  -9.616  30.499  0.00  0.00    +0.015 C 
ATOM     21  C   UNL     1       8.342 -10.779  32.691  0.00  0.00    +0.015 C 
ENDBRANCH  17  18
ENDBRANCH  13   5
BRANCH  14   3
ATOM      3  O   UNL     1      15.809  -9.717  29.118  0.00  0.00    -0.442 OA
BRANCH   3  19
ATOM      4  O   UNL     1      17.405  -8.079  29.085  0.00  0.00    -0.226 OA
ATOM      9  N   UNL     1      16.030  -8.495  27.236  0.00  0.00    -0.251 N 
ATOM     19  C   UNL     1      16.507  -8.689  28.517  0.00  0.00    +0.405 C 
ATOM     29  H   UNL     1      15.274  -9.107  26.940  0.00  0.00    +0.158 HD
BRANCH   9  22
ATOM     22  C   UNL     1      16.465  -7.548  26.281  0.00  0.00    +0.038 A 
ATOM     23  C   UNL     1      16.640  -6.228  26.664  0.00  0.00    +0.042 A 
ATOM     24  C   UNL     1      16.707  -7.957  24.980  0.00  0.00    +0.023 A 
ATOM     25  C   UNL     1      17.069  -5.293  25.722  0.00  0.00    +0.054 A 
ATOM     26  C   UNL     1      17.137  -7.023  24.037  0.00  0.00    +0.003 A 
ATOM     27  C   UNL     1      17.317  -5.690  24.408  0.00  0.00    +0.019 A 
BRANCH  25  28
ATOM     10  N   UNL     1      17.405  -2.818  26.410  0.00  0.00    -0.191 NA
ATOM     28  C   UNL     1      17.254  -3.928  26.102  0.00  0.00    +0.099 C 
ENDBRANCH  25  28
ENDBRANCH   9  22
ENDBRANCH   3  19
ENDBRANCH  14   3
TORSDOF 6
ENDMDL
MODEL 3
REMARK VINA RESULT:      -1.8     16.357     18.301
REMARK  Name = 11886097
REMARK  8 active torsions:
REMARK  status: ('A' for Active; 'I' for Inactive)
REMARK    1  A    between atoms: O_3  and  C_14
REMARK    2  A    between atoms: O_3  and  C_19
REMARK    3  A    between atoms: N_5  and  C_13
REMARK    4  A    between atoms: N_9  and  C_22
REMARK    5  A    between atoms: C_17  and  C_18
REMARK    6  A    between atoms: C_18  and  C_20
REMARK    7  A    between atoms: C_18  and  C_21
REMARK    8  A    between atoms: C_25  and  C_28
REMARK                            x       y       z     vdW  Elec       q    Type
REMARK                         _______ _______ _______ _____ _____    ______ ____
ROOT
ATOM      1  O   UNL     1      -2.015   0.419  23.966  0.00  0.00    -0.368 OA
ATOM      2  O   UNL     1      -4.885  -0.697  24.225  0.00  0.00    -0.368 OA
ATOM     11  C   UNL     1      -4.140   0.255  25.016  0.00  0.00    +0.177 C 
ATOM     12  C   UNL     1      -2.704  -0.229  25.046  0.00  0.00    +0.192 C 
ATOM     13  C   UNL     1      -4.078   1.583  24.285  0.00  0.00    +0.168 C 
ATOM     14  C   UNL     1      -2.849  -1.713  24.804  0.00  0.00    +0.235 C 
ATOM     15  C   UNL     1      -2.869   1.407  23.372  0.00  0.00    +0.190 C 
ATOM     16  C   UNL     1      -4.010  -1.765  23.839  0.00  0.00    +0.207 C 
ENDROOT
BRANCH  13   5
ATOM      5  N   UNL     1      -4.013   2.725  25.200  0.00  0.00    -0.221 N 
ATOM      6  N   UNL     1      -5.116   3.185  25.799  0.00  0.00    -0.043 NA
ATOM      7  N   UNL     1      -3.338   4.383  26.411  0.00  0.00    -0.113 NA
ATOM      8  N   UNL     1      -4.697   4.202  26.542  0.00  0.00    -0.023 NA
ATOM     17  C   UNL     1      -2.936   3.455  25.575  0.00  0.00    +0.154 A 
BRANCH  17  18
ATOM     18  C   UNL     1      -1.567   3.205  25.093  0.00  0.00    +0.052 C 
ATOM     20  C   UNL     1      -0.657   2.536  26.154  0.00  0.00    +0.015 C 
ATOM     21  C   UNL     1      -0.865   4.475  24.552  0.00  0.00    +0.015 C 
ENDBRANCH  17  18
ENDBRANCH  13   5
BRANCH  14   3
ATOM      3  O   UNL     1      -1.689  -2.314  24.273  0.00  0.00    -0.442 OA
BRANCH   3  19
ATOM      4  O   UNL     1       0.010  -1.783  25.709  0.00  0.00    -0.226 OA
ATOM      9  N   UNL     1       0.034  -1.100  23.470  0.00  0.00    -0.251 N 
ATOM     19  C   UNL     1      -0.481  -1.725  24.589  0.00  0.00    +0.405 C 
ATOM     29  H   UNL     1      -0.525  -1.163  22.622  0.00  0.00    +0.158 HD
BRANCH   9  22
ATOM     22  C   UNL     1       1.246  -0.381  23.356  0.00  0.00    +0.038 A 
ATOM     23  C   UNL     1       2.448  -1.041  23.555  0.00  0.00    +0.042 A 
ATOM     24  C   UNL     1       1.208   0.969  23.047  0.00  0.00    +0.023 A 
ATOM     25  C   UNL     1       3.644  -0.331  23.442  0.00  0.00    +0.054 A 
ATOM     26  C   UNL     1       2.403   1.679  22.933  0.00  0.00    +0.003 A 
ATOM     27  C   UNL     1       3.622   1.028  23.132  0.00  0.00    +0.019 A 
BRANCH  25  28
ATOM     10  N   UNL     1       5.907  -1.538  23.811  0.00  0.00    -0.191 NA
ATOM     28  C   UNL     1       4.892  -0.997  23.645  0.00  0.00    +0.099 C 
ENDBRANCH  25  28
ENDBRANCH   9  22
ENDBRANCH   3  19
ENDBRANCH  14   3
TORSDOF 6
ENDMDL
MODEL 4
REMARK VINA RESULT:      -0.8     16.251     18.930
REMARK  Name = 11886097
REMARK  8 active torsions:
REMARK  status: ('A' for Active; 'I' for Inactive)
REMARK    1  A    between atoms: O_3  and  C_14
REMARK    2  A    between atoms: O_3  and  C_19
REMARK    3  A    between atoms: N_5  and  C_13
REMARK    4  A    between atoms: N_9  and  C_22
REMARK    5  A    between atoms: C_17  and  C_18
REMARK    6  A    between atoms: C_18  and  C_20
REMARK    7  A    between atoms: C_18  and  C_21
REMARK    8  A    between atoms: C_25  and  C_28
REMARK                            x       y       z     vdW  Elec       q    Type
REMARK                         _______ _______ _______ _____ _____    ______ ____
ROOT
ATOM      1  O   UNL     1      -1.523  -0.214  23.746  0.00  0.00    -0.368 OA
ATOM      2  O   UNL     1       0.098  -2.146  25.532  0.00  0.00    -0.368 OA
ATOM     11  C   UNL     1       0.209  -1.793  24.135  0.00  0.00    +0.177 C 
ATOM     12  C   UNL     1      -1.203  -1.607  23.617  0.00  0.00    +0.192 C 
ATOM     13  C   UNL     1       0.844  -0.421  24.009  0.00  0.00    +0.168 C 
ATOM     14  C   UNL     1      -2.018  -2.456  24.564  0.00  0.00    +0.235 C 
ATOM     15  C   UNL     1      -0.352   0.515  24.142  0.00  0.00    +0.190 C 
ATOM     16  C   UNL     1      -1.290  -2.261  25.873  0.00  0.00    +0.207 C 
ENDROOT
BRANCH  13   5
ATOM      5  N   UNL     1       1.622  -0.274  22.776  0.00  0.00    -0.221 N 
ATOM      6  N   UNL     1       1.013  -0.203  21.588  0.00  0.00    -0.043 NA
ATOM      7  N   UNL     1       3.224  -0.067  21.341  0.00  0.00    -0.113 NA
ATOM      8  N   UNL     1       2.001  -0.075  20.710  0.00  0.00    -0.023 NA
ATOM     17  C   UNL     1       2.964  -0.191  22.621  0.00  0.00    +0.154 A 
BRANCH  17  18
ATOM     18  C   UNL     1       3.923  -0.238  23.738  0.00  0.00    +0.052 C 
ATOM     20  C   UNL     1       5.102   0.755  23.574  0.00  0.00    +0.015 C 
ATOM     21  C   UNL     1       4.487  -1.655  24.004  0.00  0.00    +0.015 C 
ENDBRANCH  17  18
ENDBRANCH  13   5
BRANCH  14   3
ATOM      3  O   UNL     1      -3.371  -2.069  24.645  0.00  0.00    -0.442 OA
BRANCH   3  19
ATOM      4  O   UNL     1      -3.689  -0.955  26.617  0.00  0.00    -0.226 OA
ATOM      9  N   UNL     1      -3.876   0.127  24.549  0.00  0.00    -0.251 N 
ATOM     19  C   UNL     1      -3.654  -0.944  25.393  0.00  0.00    +0.405 C 
ATOM     29  H   UNL     1      -3.801  -0.063  23.553  0.00  0.00    +0.158 HD
BRANCH   9  22
ATOM     22  C   UNL     1      -4.194   1.459  24.900  0.00  0.00    +0.038 A 
ATOM     23  C   UNL     1      -3.197   2.421  24.892  0.00  0.00    +0.042 A 
ATOM     24  C   UNL     1      -5.498   1.777  25.244  0.00  0.00    +0.023 A 
ATOM     25  C   UNL     1      -3.511   3.735  25.238  0.00  0.00    +0.054 A 
ATOM     26  C   UNL     1      -5.813   3.091  25.590  0.00  0.00    +0.003 A 
ATOM     27  C   UNL     1      -4.819   4.070  25.587  0.00  0.00    +0.019 A 
BRANCH  25  28
ATOM     10  N   UNL     1      -1.666   5.553  25.233  0.00  0.00    -0.191 NA
ATOM     28  C   UNL     1      -2.493   4.738  25.236  0.00  0.00    +0.099 C 
ENDBRANCH  25  28
ENDBRANCH   9  22
ENDBRANCH   3  19
ENDBRANCH  14   3
TORSDOF 6
ENDMDL
MODEL 5
REMARK VINA RESULT:       0.3     16.528     18.432
REMARK  Name = 11886097
REMARK  8 active torsions:
REMARK  status: ('A' for Active; 'I' for Inactive)
REMARK    1  A    between atoms: O_3  and  C_14
REMARK    2  A    between atoms: O_3  and  C_19
REMARK    3  A    between atoms: N_5  and  C_13
REMARK    4  A    between atoms: N_9  and  C_22
REMARK    5  A    between atoms: C_17  and  C_18
REMARK    6  A    between atoms: C_18  and  C_20
REMARK    7  A    between atoms: C_18  and  C_21
REMARK    8  A    between atoms: C_25  and  C_28
REMARK                            x       y       z     vdW  Elec       q    Type
REMARK                         _______ _______ _______ _____ _____    ______ ____
ROOT
ATOM      1  O   UNL     1      -1.885   0.349  23.860  0.00  0.00    -0.368 OA
ATOM      2  O   UNL     1      -4.687  -0.888  24.272  0.00  0.00    -0.368 OA
ATOM     11  C   UNL     1      -3.955   0.120  25.004  0.00  0.00    +0.177 C 
ATOM     12  C   UNL     1      -2.498  -0.298  24.986  0.00  0.00    +0.192 C 
ATOM     13  C   UNL     1      -3.985   1.427  24.235  0.00  0.00    +0.168 C 
ATOM     14  C   UNL     1      -2.584  -1.793  24.791  0.00  0.00    +0.235 C 
ATOM     15  C   UNL     1      -2.808   1.279  23.276  0.00  0.00    +0.190 C 
ATOM     16  C   UNL     1      -3.779  -1.927  23.878  0.00  0.00    +0.207 C 
ENDROOT
BRANCH  13   5
ATOM      5  N   UNL     1      -3.935   2.597  25.114  0.00  0.00    -0.221 N 
ATOM      6  N   UNL     1      -2.804   3.295  25.260  0.00  0.00    -0.043 NA
ATOM      7  N   UNL     1      -4.433   4.180  26.499  0.00  0.00    -0.113 NA
ATOM      8  N   UNL     1      -3.115   4.267  26.110  0.00  0.00    -0.023 NA
ATOM     17  C   UNL     1      -4.921   3.138  25.868  0.00  0.00    +0.154 A 
BRANCH  17  18
ATOM     18  C   UNL     1      -6.292   2.604  25.931  0.00  0.00    +0.052 C 
ATOM     20  C   UNL     1      -6.499   1.580  27.076  0.00  0.00    +0.015 C 
ATOM     21  C   UNL     1      -6.767   1.975  24.598  0.00  0.00    +0.015 C 
ENDBRANCH  17  18
ENDBRANCH  13   5
BRANCH  14   3
ATOM      3  O   UNL     1      -1.420  -2.356  24.228  0.00  0.00    -0.442 OA
BRANCH   3  19
ATOM      4  O   UNL     1       0.267  -1.797  25.669  0.00  0.00    -0.226 OA
ATOM      9  N   UNL     1       0.296  -1.133  23.424  0.00  0.00    -0.251 N 
ATOM     19  C   UNL     1      -0.219  -1.754  24.546  0.00  0.00    +0.405 C 
ATOM     29  H   UNL     1      -0.258  -1.208  22.575  0.00  0.00    +0.158 HD
BRANCH   9  22
ATOM     22  C   UNL     1       1.502  -0.404  23.311  0.00  0.00    +0.038 A 
ATOM     23  C   UNL     1       2.706  -1.037  23.573  0.00  0.00    +0.042 A 
ATOM     24  C   UNL     1       1.457   0.930  22.939  0.00  0.00    +0.023 A 
ATOM     25  C   UNL     1       3.896  -0.318  23.461  0.00  0.00    +0.054 A 
ATOM     26  C   UNL     1       2.646   1.650  22.826  0.00  0.00    +0.003 A 
ATOM     27  C   UNL     1       3.866   1.026  23.087  0.00  0.00    +0.019 A 
BRANCH  25  28
ATOM     10  N   UNL     1       6.162  -1.475  23.946  0.00  0.00    -0.191 NA
ATOM     28  C   UNL     1       5.146  -0.956  23.729  0.00  0.00    +0.099 C 
ENDBRANCH  25  28
ENDBRANCH   9  22
ENDBRANCH   3  19
ENDBRANCH  14   3
TORSDOF 6
ENDMDL
MODEL 6
REMARK VINA RESULT:       0.3     17.172     19.242
REMARK  Name = 11886097
REMARK  8 active torsions:
REMARK  status: ('A' for Active; 'I' for Inactive)
REMARK    1  A    between atoms: O_3  and  C_14
REMARK    2  A    between atoms: O_3  and  C_19
REMARK    3  A    between atoms: N_5  and  C_13
REMARK    4  A    between atoms: N_9  and  C_22
REMARK    5  A    between atoms: C_17  and  C_18
REMARK    6  A    between atoms: C_18  and  C_20
REMARK    7  A    between atoms: C_18  and  C_21
REMARK    8  A    between atoms: C_25  and  C_28
REMARK                            x       y       z     vdW  Elec       q    Type
REMARK                         _______ _______ _______ _____ _____    ______ ____
ROOT
ATOM      1  O   UNL     1      -2.530  -0.216  24.677  0.00  0.00    -0.368 OA
ATOM      2  O   UNL     1      -5.006  -1.830  23.773  0.00  0.00    -0.368 OA
ATOM     11  C   UNL     1      -4.802  -0.889  24.850  0.00  0.00    +0.177 C 
ATOM     12  C   UNL     1      -3.399  -1.120  25.375  0.00  0.00    +0.192 C 
ATOM     13  C   UNL     1      -4.771   0.521  24.291  0.00  0.00    +0.168 C 
ATOM     14  C   UNL     1      -3.134  -2.557  24.990  0.00  0.00    +0.235 C 
ATOM     15  C   UNL     1      -3.311   0.687  23.881  0.00  0.00    +0.190 C 
ATOM     16  C   UNL     1      -3.846  -2.667  23.663  0.00  0.00    +0.207 C 
ENDROOT
BRANCH  13   5
ATOM      5  N   UNL     1      -5.272   1.514  25.245  0.00  0.00    -0.221 N 
ATOM      6  N   UNL     1      -6.392   1.291  25.939  0.00  0.00    -0.043 NA
ATOM      7  N   UNL     1      -5.528   3.275  26.471  0.00  0.00    -0.113 NA
ATOM      8  N   UNL     1      -6.545   2.374  26.691  0.00  0.00    -0.023 NA
ATOM     17  C   UNL     1      -4.750   2.720  25.571  0.00  0.00    +0.154 A 
BRANCH  17  18
ATOM     18  C   UNL     1      -3.516   3.266  24.983  0.00  0.00    +0.052 C 
ATOM     20  C   UNL     1      -2.627   4.013  26.010  0.00  0.00    +0.015 C 
ATOM     21  C   UNL     1      -3.771   4.191  23.768  0.00  0.00    +0.015 C 
ENDBRANCH  17  18
ENDBRANCH  13   5
BRANCH  14   3
ATOM      3  O   UNL     1      -1.763  -2.869  24.885  0.00  0.00    -0.442 OA
BRANCH   3  19
ATOM      4  O   UNL     1      -0.462  -1.551  26.228  0.00  0.00    -0.226 OA
ATOM      9  N   UNL     1      -0.547  -1.239  23.909  0.00  0.00    -0.251 N 
ATOM     19  C   UNL     1      -0.871  -1.840  25.110  0.00  0.00    +0.405 C 
ATOM     29  H   UNL     1      -0.992  -1.625  23.080  0.00  0.00    +0.158 HD
BRANCH   9  22
ATOM     22  C   UNL     1       0.329  -0.152  23.689  0.00  0.00    +0.038 A 
ATOM     23  C   UNL     1      -0.098   1.134  23.981  0.00  0.00    +0.042 A 
ATOM     24  C   UNL     1       1.597  -0.392  23.185  0.00  0.00    +0.023 A 
ATOM     25  C   UNL     1       0.767   2.207  23.764  0.00  0.00    +0.054 A 
ATOM     26  C   UNL     1       2.462   0.680  22.969  0.00  0.00    +0.003 A 
ATOM     27  C   UNL     1       2.047   1.980  23.258  0.00  0.00    +0.019 A 
BRANCH  25  28
ATOM     10  N   UNL     1      -0.004   4.621  24.301  0.00  0.00    -0.191 NA
ATOM     28  C   UNL     1       0.342   3.539  24.060  0.00  0.00    +0.099 C 
ENDBRANCH  25  28
ENDBRANCH   9  22
ENDBRANCH   3  19
ENDBRANCH  14   3
TORSDOF 6
ENDMDL
MODEL 7
REMARK VINA RESULT:       0.7     17.086     19.735
REMARK  Name = 11886097
REMARK  8 active torsions:
REMARK  status: ('A' for Active; 'I' for Inactive)
REMARK    1  A    between atoms: O_3  and  C_14
REMARK    2  A    between atoms: O_3  and  C_19
REMARK    3  A    between atoms: N_5  and  C_13
REMARK    4  A    between atoms: N_9  and  C_22
REMARK    5  A    between atoms: C_17  and  C_18
REMARK    6  A    between atoms: C_18  and  C_20
REMARK    7  A    between atoms: C_18  and  C_21
REMARK    8  A    between atoms: C_25  and  C_28
REMARK                            x       y       z     vdW  Elec       q    Type
REMARK                         _______ _______ _______ _____ _____    ______ ____
ROOT
ATOM      1  O   UNL     1      -2.017  -0.503  25.497  0.00  0.00    -0.368 OA
ATOM      2  O   UNL     1      -1.708  -3.144  23.922  0.00  0.00    -0.368 OA
ATOM     11  C   UNL     1      -1.267  -1.795  23.650  0.00  0.00    +0.177 C 
ATOM     12  C   UNL     1      -2.357  -0.868  24.151  0.00  0.00    +0.192 C 
ATOM     13  C   UNL     1      -0.065  -1.470  24.516  0.00  0.00    +0.168 C 
ATOM     14  C   UNL     1      -3.585  -1.746  24.105  0.00  0.00    +0.235 C 
ATOM     15  C   UNL     1      -0.705  -0.990  25.813  0.00  0.00    +0.190 C 
ATOM     16  C   UNL     1      -3.026  -3.096  24.486  0.00  0.00    +0.207 C 
ENDROOT
BRANCH  13   5
ATOM      5  N   UNL     1       0.847  -0.518  23.876  0.00  0.00    -0.221 N 
ATOM      6  N   UNL     1       1.918  -0.946  23.200  0.00  0.00    -0.043 NA
ATOM      7  N   UNL     1       1.809   1.280  23.161  0.00  0.00    -0.113 NA
ATOM      8  N   UNL     1       2.505   0.162  22.762  0.00  0.00    -0.023 NA
ATOM     17  C   UNL     1       0.784   0.834  23.849  0.00  0.00    +0.154 A 
BRANCH  17  18
ATOM     18  C   UNL     1      -0.277   1.619  24.501  0.00  0.00    +0.052 C 
ATOM     20  C   UNL     1      -1.066   2.519  23.516  0.00  0.00    +0.015 C 
ATOM     21  C   UNL     1       0.234   2.484  25.679  0.00  0.00    +0.015 C 
ENDBRANCH  17  18
ENDBRANCH  13   5
BRANCH  14   3
ATOM      3  O   UNL     1      -4.609  -1.329  24.981  0.00  0.00    -0.442 OA
BRANCH   3  19
ATOM      4  O   UNL     1      -6.150   0.177  24.215  0.00  0.00    -0.226 OA
ATOM      9  N   UNL     1      -4.238   0.859  25.379  0.00  0.00    -0.251 N 
ATOM     19  C   UNL     1      -5.101  -0.052  24.803  0.00  0.00    +0.405 C 
ATOM     29  H   UNL     1      -3.410   0.473  25.826  0.00  0.00    +0.158 HD
BRANCH   9  22
ATOM     22  C   UNL     1      -4.362   2.267  25.424  0.00  0.00    +0.038 A 
ATOM     23  C   UNL     1      -3.230   3.054  25.290  0.00  0.00    +0.042 A 
ATOM     24  C   UNL     1      -5.615   2.832  25.602  0.00  0.00    +0.023 A 
ATOM     25  C   UNL     1      -3.353   4.443  25.334  0.00  0.00    +0.054 A 
ATOM     26  C   UNL     1      -5.739   4.221  25.646  0.00  0.00    +0.003 A 
ATOM     27  C   UNL     1      -4.608   5.026  25.512  0.00  0.00    +0.019 A 
BRANCH  25  28
ATOM     10  N   UNL     1      -1.253   5.939  25.085  0.00  0.00    -0.191 NA
ATOM     28  C   UNL     1      -2.195   5.268  25.197  0.00  0.00    +0.099 C 
ENDBRANCH  25  28
ENDBRANCH   9  22
ENDBRANCH   3  19
ENDBRANCH  14   3
TORSDOF 6
ENDMDL
