MODEL 1
REMARK VINA RESULT:      -4.4      0.000      0.000
REMARK  Name = 26744351
REMARK  6 active torsions:
REMARK  status: ('A' for Active; 'I' for Inactive)
REMARK    1  A    between atoms: O_1  and  C_13
REMARK    2  A    between atoms: N_5  and  C_15
REMARK    3  A    between atoms: N_10  and  C_24
REMARK    4  A    between atoms: C_11  and  C_16
REMARK    5  A    between atoms: C_15  and  C_17
REMARK    6  A    between atoms: C_18  and  C_19
REMARK                            x       y       z     vdW  Elec       q    Type
REMARK                         _______ _______ _______ _____ _____    ______ ____
ROOT
ATOM      5  N   UNL     1      -9.393  -8.701  10.156  0.00  0.00    -0.282 NA
ATOM     11  C   UNL     1      -8.496  -8.815   8.987  0.00  0.00    +0.149 C 
ATOM     12  C   UNL     1      -8.691  -7.499   8.212  0.00  0.00    +0.061 C 
ATOM     13  C   UNL     1      -9.746  -6.731   8.997  0.00  0.00    +0.130 C 
ATOM     14  C   UNL     1     -10.485  -7.818   9.755  0.00  0.00    +0.117 C 
ENDROOT
BRANCH  11  16
ATOM      2  O   UNL     1      -6.120  -8.851   8.414  0.00  0.00    -0.336 OA
ATOM      6  N   UNL     1      -6.559  -9.439  10.530  0.00  0.00    -0.190 NA
ATOM      9  N   UNL     1      -4.882  -9.133   9.005  0.00  0.00    -0.056 NA
ATOM     16  C   UNL     1      -7.054  -9.056   9.380  0.00  0.00    +0.245 A 
ATOM     18  C   UNL     1      -5.224  -9.473  10.251  0.00  0.00    +0.202 A 
BRANCH  18  19
ATOM     19  C   UNL     1      -4.257  -9.849  11.241  0.00  0.00    +0.025 A 
ATOM     22  C   UNL     1      -4.652 -10.045  12.565  0.00  0.00    +0.044 A 
ATOM     23  C   UNL     1      -2.920 -10.019  10.880  0.00  0.00    +0.012 A 
ATOM     24  C   UNL     1      -3.711 -10.412  13.527  0.00  0.00    +0.127 A 
ATOM     25  C   UNL     1      -1.979 -10.385  11.843  0.00  0.00    +0.003 A 
ATOM     26  C   UNL     1      -2.375 -10.583  13.166  0.00  0.00    +0.033 A 
BRANCH  24  10
ATOM      3  O   UNL     1      -3.234 -10.671  15.769  0.00  0.00    -0.126 OA
ATOM      4  O   UNL     1      -5.335 -10.726  15.134  0.00  0.00    -0.126 OA
ATOM     10  N   UNL     1      -4.113 -10.613  14.875  0.00  0.00    +0.056 N 
ENDBRANCH  24  10
ENDBRANCH  18  19
ENDBRANCH  11  16
BRANCH  13   1
ATOM      1  O   UNL     1     -10.605  -6.023   8.124  0.00  0.00    -0.390 OA
ATOM     27  H   UNL     1     -11.468  -6.471   8.134  0.00  0.00    +0.210 HD
ENDBRANCH  13   1
BRANCH   5  15
ATOM     15  C   UNL     1      -9.876  -9.989  10.637  0.00  0.00    +0.159 C 
BRANCH  15  17
ATOM      7  N   UNL     1      -8.576  -9.880  12.777  0.00  0.00    -0.347 N 
ATOM      8  N   UNL     1     -10.720 -10.425  12.975  0.00  0.00    -0.239 NA
ATOM     17  C   UNL     1      -9.762 -10.106  12.134  0.00  0.00    +0.121 A 
ATOM     20  C   UNL     1      -8.793 -10.065  14.113  0.00  0.00    +0.104 A 
ATOM     21  C   UNL     1     -10.123 -10.400  14.211  0.00  0.00    +0.130 A 
ATOM     28  H   UNL     1      -7.699  -9.620  12.345  0.00  0.00    +0.167 HD
ENDBRANCH  15  17
ENDBRANCH   5  15
TORSDOF 6
ENDMDL
MODEL 2
REMARK VINA RESULT:      -4.0      1.423      1.784
REMARK  Name = 26744351
REMARK  6 active torsions:
REMARK  status: ('A' for Active; 'I' for Inactive)
REMARK    1  A    between atoms: O_1  and  C_13
REMARK    2  A    between atoms: N_5  and  C_15
REMARK    3  A    between atoms: N_10  and  C_24
REMARK    4  A    between atoms: C_11  and  C_16
REMARK    5  A    between atoms: C_15  and  C_17
REMARK    6  A    between atoms: C_18  and  C_19
REMARK                            x       y       z     vdW  Elec       q    Type
REMARK                         _______ _______ _______ _____ _____    ______ ____
ROOT
ATOM      5  N   UNL     1      -8.572  -9.698  10.658  0.00  0.00    -0.282 NA
ATOM     11  C   UNL     1      -7.864 -10.154   9.443  0.00  0.00    +0.149 C 
ATOM     12  C   UNL     1      -8.283  -9.156   8.348  0.00  0.00    +0.061 C 
ATOM     13  C   UNL     1      -9.259  -8.207   9.031  0.00  0.00    +0.130 C 
ATOM     14  C   UNL     1      -9.780  -9.016  10.202  0.00  0.00    +0.117 C 
ENDROOT
BRANCH  11  16
ATOM      2  O   UNL     1      -5.641 -10.688   8.581  0.00  0.00    -0.336 OA
ATOM      6  N   UNL     1      -5.643  -9.893  10.675  0.00  0.00    -0.190 NA
ATOM      9  N   UNL     1      -4.301 -10.659   8.988  0.00  0.00    -0.056 NA
ATOM     16  C   UNL     1      -6.364 -10.221   9.633  0.00  0.00    +0.245 A 
ATOM     18  C   UNL     1      -4.384 -10.179  10.233  0.00  0.00    +0.202 A 
BRANCH  18  19
ATOM     19  C   UNL     1      -3.230  -9.972  11.059  0.00  0.00    +0.025 A 
ATOM     22  C   UNL     1      -3.266 -10.321  12.409  0.00  0.00    +0.044 A 
ATOM     23  C   UNL     1      -2.071  -9.421  10.511  0.00  0.00    +0.012 A 
ATOM     24  C   UNL     1      -2.143 -10.121  13.212  0.00  0.00    +0.127 A 
ATOM     25  C   UNL     1      -0.948  -9.219  11.314  0.00  0.00    +0.003 A 
ATOM     26  C   UNL     1      -0.984  -9.570  12.664  0.00  0.00    +0.033 A 
BRANCH  24  10
ATOM      3  O   UNL     1      -3.290 -10.644  15.143  0.00  0.00    -0.126 OA
ATOM      4  O   UNL     1      -1.095 -10.613  15.206  0.00  0.00    -0.126 OA
ATOM     10  N   UNL     1      -2.178 -10.476  14.586  0.00  0.00    +0.056 N 
ENDBRANCH  24  10
ENDBRANCH  18  19
ENDBRANCH  11  16
BRANCH  13   1
ATOM      1  O   UNL     1     -10.297  -7.833   8.146  0.00  0.00    -0.390 OA
ATOM     27  H   UNL     1     -10.028  -7.006   7.711  0.00  0.00    +0.210 HD
ENDBRANCH  13   1
BRANCH   5  15
ATOM     15  C   UNL     1      -8.870 -10.780  11.589  0.00  0.00    +0.159 C 
BRANCH  15  17
ATOM      7  N   UNL     1      -6.974 -10.531  13.209  0.00  0.00    -0.347 N 
ATOM      8  N   UNL     1      -9.008 -10.222  14.045  0.00  0.00    -0.239 NA
ATOM     17  C   UNL     1      -8.319 -10.504  12.963  0.00  0.00    +0.121 A 
ATOM     20  C   UNL     1      -6.795 -10.246  14.533  0.00  0.00    +0.104 A 
ATOM     21  C   UNL     1      -8.063 -10.059  15.028  0.00  0.00    +0.130 A 
ATOM     28  H   UNL     1      -6.244 -10.723  12.535  0.00  0.00    +0.167 HD
ENDBRANCH  15  17
ENDBRANCH   5  15
TORSDOF 6
ENDMDL
MODEL 3
REMARK VINA RESULT:      -2.9     16.052     17.558
REMARK  Name = 26744351
REMARK  6 active torsions:
REMARK  status: ('A' for Active; 'I' for Inactive)
REMARK    1  A    between atoms: O_1  and  C_13
REMARK    2  A    between atoms: N_5  and  C_15
REMARK    3  A    between atoms: N_10  and  C_24
REMARK    4  A    between atoms: C_11  and  C_16
REMARK    5  A    between atoms: C_15  and  C_17
REMARK    6  A    between atoms: C_18  and  C_19
REMARK                            x       y       z     vdW  Elec       q    Type
REMARK                         _______ _______ _______ _____ _____    ______ ____
ROOT
ATOM      5  N   UNL     1      -4.645   1.366  25.265  0.00  0.00    -0.282 NA
ATOM     11  C   UNL     1      -3.917   2.143  24.241  0.00  0.00    +0.149 C 
ATOM     12  C   UNL     1      -4.187   3.616  24.600  0.00  0.00    +0.061 C 
ATOM     13  C   UNL     1      -5.110   3.564  25.810  0.00  0.00    +0.130 C 
ATOM     14  C   UNL     1      -5.762   2.199  25.701  0.00  0.00    +0.117 C 
ENDROOT
BRANCH  11  16
ATOM      2  O   UNL     1      -1.705   2.178  25.280  0.00  0.00    -0.336 OA
ATOM      6  N   UNL     1      -1.750   1.215  23.258  0.00  0.00    -0.190 NA
ATOM      9  N   UNL     1      -0.391   1.773  25.012  0.00  0.00    -0.056 NA
ATOM     16  C   UNL     1      -2.440   1.812  24.197  0.00  0.00    +0.245 A 
ATOM     18  C   UNL     1      -0.499   1.215  23.802  0.00  0.00    +0.202 A 
BRANCH  18  19
ATOM     19  C   UNL     1       0.622   0.646  23.112  0.00  0.00    +0.025 A 
ATOM     22  C   UNL     1       1.917   0.867  23.582  0.00  0.00    +0.044 A 
ATOM     23  C   UNL     1       0.417  -0.129  21.970  0.00  0.00    +0.012 A 
ATOM     24  C   UNL     1       3.007   0.313  22.911  0.00  0.00    +0.127 A 
ATOM     25  C   UNL     1       1.508  -0.682  21.298  0.00  0.00    +0.003 A 
ATOM     26  C   UNL     1       2.802  -0.462  21.769  0.00  0.00    +0.033 A 
BRANCH  24  10
ATOM      3  O   UNL     1       4.990  -0.436  23.820  0.00  0.00    -0.126 OA
ATOM      4  O   UNL     1       4.791   1.702  23.365  0.00  0.00    -0.126 OA
ATOM     10  N   UNL     1       4.326   0.537  23.388  0.00  0.00    +0.056 N 
ENDBRANCH  24  10
ENDBRANCH  18  19
ENDBRANCH  11  16
BRANCH  13   1
ATOM      1  O   UNL     1      -6.063   4.608  25.759  0.00  0.00    -0.390 OA
ATOM     27  H   UNL     1      -5.581   5.449  25.834  0.00  0.00    +0.210 HD
ENDBRANCH  13   1
BRANCH   5  15
ATOM     15  C   UNL     1      -5.086   0.061  24.790  0.00  0.00    +0.159 C 
BRANCH  15  17
ATOM      7  N   UNL     1      -2.917  -0.854  25.651  0.00  0.00    -0.347 N 
ATOM      8  N   UNL     1      -3.826  -1.959  23.952  0.00  0.00    -0.239 NA
ATOM     17  C   UNL     1      -3.959  -0.938  24.768  0.00  0.00    +0.121 A 
ATOM     20  C   UNL     1      -2.068  -1.889  25.380  0.00  0.00    +0.104 A 
ATOM     21  C   UNL     1      -2.649  -2.557  24.329  0.00  0.00    +0.130 A 
ATOM     28  H   UNL     1      -2.798  -0.157  26.374  0.00  0.00    +0.167 HD
ENDBRANCH  15  17
ENDBRANCH   5  15
TORSDOF 6
ENDMDL
MODEL 4
REMARK VINA RESULT:      -2.0      2.491      2.938
REMARK  Name = 26744351
REMARK  6 active torsions:
REMARK  status: ('A' for Active; 'I' for Inactive)
REMARK    1  A    between atoms: O_1  and  C_13
REMARK    2  A    between atoms: N_5  and  C_15
REMARK    3  A    between atoms: N_10  and  C_24
REMARK    4  A    between atoms: C_11  and  C_16
REMARK    5  A    between atoms: C_15  and  C_17
REMARK    6  A    between atoms: C_18  and  C_19
REMARK                            x       y       z     vdW  Elec       q    Type
REMARK                         _______ _______ _______ _____ _____    ______ ____
ROOT
ATOM      5  N   UNL     1      -8.731  -9.793  11.522  0.00  0.00    -0.282 NA
ATOM     11  C   UNL     1      -8.074 -10.391  10.341  0.00  0.00    +0.149 C 
ATOM     12  C   UNL     1      -8.620  -9.594   9.142  0.00  0.00    +0.061 C 
ATOM     13  C   UNL     1      -9.607  -8.602   9.744  0.00  0.00    +0.130 C 
ATOM     14  C   UNL     1     -10.004  -9.249  11.057  0.00  0.00    +0.117 C 
ENDROOT
BRANCH  11  16
ATOM      2  O   UNL     1      -5.884 -10.454   9.259  0.00  0.00    -0.336 OA
ATOM      6  N   UNL     1      -5.798 -10.237  11.487  0.00  0.00    -0.190 NA
ATOM      9  N   UNL     1      -4.525 -10.396   9.592  0.00  0.00    -0.056 NA
ATOM     16  C   UNL     1      -6.564 -10.353  10.431  0.00  0.00    +0.245 A 
ATOM     18  C   UNL     1      -4.556 -10.269  10.922  0.00  0.00    +0.202 A 
BRANCH  18  19
ATOM     19  C   UNL     1      -3.365 -10.168  11.716  0.00  0.00    +0.025 A 
ATOM     22  C   UNL     1      -2.263  -9.461  11.235  0.00  0.00    +0.044 A 
ATOM     23  C   UNL     1      -3.310 -10.778  12.970  0.00  0.00    +0.012 A 
ATOM     24  C   UNL     1      -1.106  -9.363  12.008  0.00  0.00    +0.127 A 
ATOM     25  C   UNL     1      -2.153 -10.681  13.742  0.00  0.00    +0.003 A 
ATOM     26  C   UNL     1      -1.051  -9.972  13.262  0.00  0.00    +0.033 A 
BRANCH  24  10
ATOM      3  O   UNL     1       0.248  -7.496  11.974  0.00  0.00    -0.126 OA
ATOM      4  O   UNL     1       0.748  -9.174  10.650  0.00  0.00    -0.126 OA
ATOM     10  N   UNL     1       0.017  -8.643  11.521  0.00  0.00    +0.056 N 
ENDBRANCH  24  10
ENDBRANCH  18  19
ENDBRANCH  11  16
BRANCH  13   1
ATOM      1  O   UNL     1     -10.720  -8.419   8.890  0.00  0.00    -0.390 OA
ATOM     27  H   UNL     1     -11.489  -8.221   9.450  0.00  0.00    +0.210 HD
ENDBRANCH  13   1
BRANCH   5  15
ATOM     15  C   UNL     1      -8.904 -10.734  12.621  0.00  0.00    +0.159 C 
BRANCH  15  17
ATOM      7  N   UNL     1      -9.327 -10.576  15.086  0.00  0.00    -0.347 N 
ATOM      8  N   UNL     1     -10.295  -9.016  13.836  0.00  0.00    -0.239 NA
ATOM     17  C   UNL     1      -9.525 -10.081  13.826  0.00  0.00    +0.121 A 
ATOM     20  C   UNL     1     -10.014  -9.775  15.953  0.00  0.00    +0.104 A 
ATOM     21  C   UNL     1     -10.603  -8.819  15.159  0.00  0.00    +0.130 A 
ATOM     28  H   UNL     1      -8.772 -11.385  15.332  0.00  0.00    +0.167 HD
ENDBRANCH  15  17
ENDBRANCH   5  15
TORSDOF 6
ENDMDL
MODEL 5
REMARK VINA RESULT:      -1.6     16.175     18.653
REMARK  Name = 26744351
REMARK  6 active torsions:
REMARK  status: ('A' for Active; 'I' for Inactive)
REMARK    1  A    between atoms: O_1  and  C_13
REMARK    2  A    between atoms: N_5  and  C_15
REMARK    3  A    between atoms: N_10  and  C_24
REMARK    4  A    between atoms: C_11  and  C_16
REMARK    5  A    between atoms: C_15  and  C_17
REMARK    6  A    between atoms: C_18  and  C_19
REMARK                            x       y       z     vdW  Elec       q    Type
REMARK                         _______ _______ _______ _____ _____    ______ ____
ROOT
ATOM      5  N   UNL     1       0.402  -0.576  23.669  0.00  0.00    -0.282 NA
ATOM     11  C   UNL     1       1.033   0.612  24.281  0.00  0.00    +0.149 C 
ATOM     12  C   UNL     1       1.937   1.190  23.176  0.00  0.00    +0.061 C 
ATOM     13  C   UNL     1       1.781   0.235  21.999  0.00  0.00    +0.130 C 
ATOM     14  C   UNL     1       1.330  -1.059  22.649  0.00  0.00    +0.117 C 
ENDROOT
BRANCH  11  16
ATOM      2  O   UNL     1       0.493   2.596  25.602  0.00  0.00    -0.336 OA
ATOM      6  N   UNL     1      -1.270   1.678  24.568  0.00  0.00    -0.190 NA
ATOM      9  N   UNL     1      -0.613   3.386  25.942  0.00  0.00    -0.056 NA
ATOM     16  C   UNL     1       0.019   1.613  24.792  0.00  0.00    +0.245 A 
ATOM     18  C   UNL     1      -1.614   2.781  25.294  0.00  0.00    +0.202 A 
BRANCH  18  19
ATOM     19  C   UNL     1      -2.967   3.253  25.351  0.00  0.00    +0.025 A 
ATOM     22  C   UNL     1      -4.021   2.343  25.436  0.00  0.00    +0.044 A 
ATOM     23  C   UNL     1      -3.228   4.623  25.323  0.00  0.00    +0.012 A 
ATOM     24  C   UNL     1      -5.337   2.803  25.493  0.00  0.00    +0.127 A 
ATOM     25  C   UNL     1      -4.544   5.083  25.378  0.00  0.00    +0.003 A 
ATOM     26  C   UNL     1      -5.598   4.174  25.464  0.00  0.00    +0.033 A 
BRANCH  24  10
ATOM      3  O   UNL     1      -6.745   1.437  26.705  0.00  0.00    -0.126 OA
ATOM      4  O   UNL     1      -6.998   1.528  24.526  0.00  0.00    -0.126 OA
ATOM     10  N   UNL     1      -6.412   1.879  25.579  0.00  0.00    +0.056 N 
ENDBRANCH  24  10
ENDBRANCH  18  19
ENDBRANCH  11  16
BRANCH  13   1
ATOM      1  O   UNL     1       3.008   0.079  21.314  0.00  0.00    -0.390 OA
ATOM     27  H   UNL     1       3.668   0.632  21.766  0.00  0.00    +0.210 HD
ENDBRANCH  13   1
BRANCH   5  15
ATOM     15  C   UNL     1       0.064  -1.610  24.638  0.00  0.00    +0.159 C 
BRANCH  15  17
ATOM      7  N   UNL     1      -2.129  -0.949  25.657  0.00  0.00    -0.347 N 
ATOM      8  N   UNL     1      -2.205  -2.624  24.200  0.00  0.00    -0.239 NA
ATOM     17  C   UNL     1      -1.425  -1.756  24.805  0.00  0.00    +0.121 A 
ATOM     20  C   UNL     1      -3.440  -1.326  25.588  0.00  0.00    +0.104 A 
ATOM     21  C   UNL     1      -3.463  -2.360  24.683  0.00  0.00    +0.130 A 
ATOM     28  H   UNL     1      -1.750  -0.207  26.231  0.00  0.00    +0.167 HD
ENDBRANCH  15  17
ENDBRANCH   5  15
TORSDOF 6
ENDMDL
MODEL 6
REMARK VINA RESULT:      -1.2     16.459     18.333
REMARK  Name = 26744351
REMARK  6 active torsions:
REMARK  status: ('A' for Active; 'I' for Inactive)
REMARK    1  A    between atoms: O_1  and  C_13
REMARK    2  A    between atoms: N_5  and  C_15
REMARK    3  A    between atoms: N_10  and  C_24
REMARK    4  A    between atoms: C_11  and  C_16
REMARK    5  A    between atoms: C_15  and  C_17
REMARK    6  A    between atoms: C_18  and  C_19
REMARK                            x       y       z     vdW  Elec       q    Type
REMARK                         _______ _______ _______ _____ _____    ______ ____
ROOT
ATOM      5  N   UNL     1      -3.772   2.616  25.277  0.00  0.00    -0.282 NA
ATOM     11  C   UNL     1      -3.677   1.206  25.709  0.00  0.00    +0.149 C 
ATOM     12  C   UNL     1      -4.965   0.546  25.184  0.00  0.00    +0.061 C 
ATOM     13  C   UNL     1      -5.739   1.671  24.511  0.00  0.00    +0.130 C 
ATOM     14  C   UNL     1      -5.197   2.922  25.176  0.00  0.00    +0.117 C 
ENDROOT
BRANCH  11  16
ATOM      2  O   UNL     1      -2.027  -0.590  25.876  0.00  0.00    -0.336 OA
ATOM      6  N   UNL     1      -1.644   0.853  24.205  0.00  0.00    -0.190 NA
ATOM      9  N   UNL     1      -0.863  -1.035  25.237  0.00  0.00    -0.056 NA
ATOM     16  C   UNL     1      -2.422   0.525  25.206  0.00  0.00    +0.245 A 
ATOM     18  C   UNL     1      -0.701  -0.133  24.264  0.00  0.00    +0.202 A 
BRANCH  18  19
ATOM     19  C   UNL     1       0.389  -0.188  23.333  0.00  0.00    +0.025 A 
ATOM     22  C   UNL     1       1.698  -0.000  23.779  0.00  0.00    +0.044 A 
ATOM     23  C   UNL     1       0.140  -0.431  21.982  0.00  0.00    +0.012 A 
ATOM     24  C   UNL     1       2.758  -0.056  22.874  0.00  0.00    +0.127 A 
ATOM     25  C   UNL     1       1.200  -0.485  21.077  0.00  0.00    +0.003 A 
ATOM     26  C   UNL     1       2.509  -0.298  21.523  0.00  0.00    +0.033 A 
BRANCH  24  10
ATOM      3  O   UNL     1       4.599   1.280  23.256  0.00  0.00    -0.126 OA
ATOM      4  O   UNL     1       4.724  -0.847  23.783  0.00  0.00    -0.126 OA
ATOM     10  N   UNL     1       4.091   0.135  23.326  0.00  0.00    +0.056 N 
ENDBRANCH  24  10
ENDBRANCH  18  19
ENDBRANCH  11  16
BRANCH  13   1
ATOM      1  O   UNL     1      -7.129   1.523  24.725  0.00  0.00    -0.390 OA
ATOM     27  H   UNL     1      -7.269   0.658  25.148  0.00  0.00    +0.210 HD
ENDBRANCH  13   1
BRANCH   5  15
ATOM     15  C   UNL     1      -3.074   3.537  26.164  0.00  0.00    +0.159 C 
BRANCH  15  17
ATOM      7  N   UNL     1      -0.862   3.550  24.987  0.00  0.00    -0.347 N 
ATOM      8  N   UNL     1      -1.838   5.529  25.231  0.00  0.00    -0.239 NA
ATOM     17  C   UNL     1      -1.942   4.240  25.463  0.00  0.00    +0.121 A 
ATOM     20  C   UNL     1      -0.017   4.457  24.412  0.00  0.00    +0.104 A 
ATOM     21  C   UNL     1      -0.641   5.671  24.574  0.00  0.00    +0.130 A 
ATOM     28  H   UNL     1      -0.714   2.550  25.045  0.00  0.00    +0.167 HD
ENDBRANCH  15  17
ENDBRANCH   5  15
TORSDOF 6
ENDMDL
