MODEL 1
REMARK VINA RESULT:      -4.5      0.000      0.000
REMARK  Name = 25390234
REMARK  9 active torsions:
REMARK  status: ('A' for Active; 'I' for Inactive)
REMARK    1  A    between atoms: S_1  and  N_9
REMARK    2  A    between atoms: S_1  and  C_23
REMARK    3  A    between atoms: O_3  and  C_11
REMARK    4  A    between atoms: O_4  and  C_12
REMARK    5  A    between atoms: N_9  and  C_20
REMARK    6  A    between atoms: C_10  and  C_14
REMARK    7  A    between atoms: C_13  and  C_20
REMARK    8  A    between atoms: C_14  and  C_21
REMARK    9  A    between atoms: C_15  and  C_22
REMARK                            x       y       z     vdW  Elec       q    Type
REMARK                         _______ _______ _______ _____ _____    ______ ____
ROOT
ATOM      2  O   UNL     1      -2.839  -0.129  23.670  0.00  0.00    -0.366 OA
ATOM     10  C   UNL     1      -1.906  -1.223  23.720  0.00  0.00    +0.158 C 
ATOM     11  C   UNL     1      -2.482  -2.207  24.725  0.00  0.00    +0.175 C 
ATOM     12  C   UNL     1      -3.968  -2.062  24.474  0.00  0.00    +0.175 C 
ATOM     13  C   UNL     1      -4.102  -0.564  24.221  0.00  0.00    +0.165 C 
ENDROOT
BRANCH  11   3
ATOM      3  O   UNL     1      -2.005  -3.518  24.515  0.00  0.00    -0.387 OA
ATOM     24  H   UNL     1      -2.727  -4.031  24.114  0.00  0.00    +0.210 HD
ENDBRANCH  11   3
BRANCH  12   4
ATOM      4  O   UNL     1      -4.338  -2.747  23.279  0.00  0.00    -0.387 OA
ATOM     25  H   UNL     1      -5.137  -2.316  22.932  0.00  0.00    +0.210 HD
ENDBRANCH  12   4
BRANCH  10  14
ATOM     14  C   UNL     1      -0.531  -0.706  24.104  0.00  0.00    +0.130 C 
BRANCH  14  21
ATOM      5  O   UNL     1      -0.984  -0.501  26.421  0.00  0.00    -0.276 OA
ATOM      8  N   UNL     1      -0.266   1.421  25.332  0.00  0.00    -0.301 N 
ATOM     15  C   UNL     1      -0.707   4.281  25.129  0.00  0.00    -0.011 C 
ATOM     16  C   UNL     1      -0.679   3.376  23.888  0.00  0.00    +0.022 C 
ATOM     17  C   UNL     1      -1.149   3.478  26.361  0.00  0.00    +0.022 C 
ATOM     18  C   UNL     1       0.175   2.132  24.127  0.00  0.00    +0.108 C 
ATOM     19  C   UNL     1      -0.284   2.234  26.550  0.00  0.00    +0.108 C 
ATOM     21  C   UNL     1      -0.615   0.073  25.394  0.00  0.00    +0.218 C 
ATOM     22  C   UNL     1      -1.624   5.482  24.904  0.00  0.00    +0.007 C 
ENDBRANCH  14  21
ENDBRANCH  10  14
BRANCH  13  20
ATOM     20  C   UNL     1      -4.355   0.235  25.493  0.00  0.00    +0.139 C 
BRANCH  20   9
ATOM      9  N   UNL     1      -3.733   1.525  25.426  0.00  0.00    -0.192 NA
ATOM     26  H   UNL     1      -2.743   1.504  25.148  0.00  0.00    +0.148 HD
BRANCH   9   1
ATOM      1  S   UNL     1      -4.625   2.899  24.881  0.00  0.00    +0.027 S 
ATOM      6  O   UNL     1      -4.243   3.198  23.515  0.00  0.00    -0.158 OA
ATOM      7  O   UNL     1      -4.607   3.931  25.900  0.00  0.00    -0.158 OA
ATOM     23  C   UNL     1      -6.266   2.212  24.851  0.00  0.00    +0.214 C 
ENDBRANCH   9   1
ENDBRANCH  20   9
ENDBRANCH  13  20
TORSDOF 7
ENDMDL
MODEL 2
REMARK VINA RESULT:      -4.2      2.407      4.626
REMARK  Name = 25390234
REMARK  9 active torsions:
REMARK  status: ('A' for Active; 'I' for Inactive)
REMARK    1  A    between atoms: S_1  and  N_9
REMARK    2  A    between atoms: S_1  and  C_23
REMARK    3  A    between atoms: O_3  and  C_11
REMARK    4  A    between atoms: O_4  and  C_12
REMARK    5  A    between atoms: N_9  and  C_20
REMARK    6  A    between atoms: C_10  and  C_14
REMARK    7  A    between atoms: C_13  and  C_20
REMARK    8  A    between atoms: C_14  and  C_21
REMARK    9  A    between atoms: C_15  and  C_22
REMARK                            x       y       z     vdW  Elec       q    Type
REMARK                         _______ _______ _______ _____ _____    ______ ____
ROOT
ATOM      2  O   UNL     1      -1.364   1.340  23.845  0.00  0.00    -0.366 OA
ATOM     10  C   UNL     1      -0.207   2.139  23.545  0.00  0.00    +0.158 C 
ATOM     11  C   UNL     1       0.977   1.377  24.115  0.00  0.00    +0.175 C 
ATOM     12  C   UNL     1       0.560  -0.059  23.873  0.00  0.00    +0.175 C 
ATOM     13  C   UNL     1      -0.937  -0.005  24.158  0.00  0.00    +0.165 C 
ENDROOT
BRANCH  11   3
ATOM      3  O   UNL     1       2.188   1.722  23.477  0.00  0.00    -0.387 OA
ATOM     24  H   UNL     1       2.491   2.562  23.861  0.00  0.00    +0.210 HD
ENDBRANCH  11   3
BRANCH  12   4
ATOM      4  O   UNL     1       0.737  -0.400  22.500  0.00  0.00    -0.387 OA
ATOM     25  H   UNL     1       1.094  -1.305  22.469  0.00  0.00    +0.210 HD
ENDBRANCH  12   4
BRANCH  10  14
ATOM     14  C   UNL     1      -0.373   3.526  24.141  0.00  0.00    +0.130 C 
BRANCH  14  21
ATOM      5  O   UNL     1      -0.621   3.197  26.474  0.00  0.00    -0.276 OA
ATOM      8  N   UNL     1      -2.559   3.665  25.283  0.00  0.00    -0.301 N 
ATOM     15  C   UNL     1      -5.358   2.949  25.018  0.00  0.00    -0.011 C 
ATOM     16  C   UNL     1      -4.413   2.986  23.806  0.00  0.00    +0.022 C 
ATOM     17  C   UNL     1      -4.564   2.659  26.300  0.00  0.00    +0.022 C 
ATOM     18  C   UNL     1      -3.262   3.966  24.030  0.00  0.00    +0.108 C 
ATOM     19  C   UNL     1      -3.412   3.645  26.473  0.00  0.00    +0.108 C 
ATOM     21  C   UNL     1      -1.188   3.448  25.408  0.00  0.00    +0.218 C 
ATOM     22  C   UNL     1      -6.461   1.913  24.814  0.00  0.00    +0.007 C 
ENDBRANCH  14  21
ENDBRANCH  10  14
BRANCH  13  20
ATOM     20  C   UNL     1      -1.276  -0.274  25.618  0.00  0.00    +0.139 C 
BRANCH  20   9
ATOM      9  N   UNL     1      -2.568  -0.882  25.747  0.00  0.00    -0.192 NA
ATOM     26  H   UNL     1      -3.338  -0.216  25.885  0.00  0.00    +0.148 HD
BRANCH   9   1
ATOM      1  S   UNL     1      -2.965  -2.292  24.831  0.00  0.00    +0.027 S 
ATOM      6  O   UNL     1      -3.588  -3.264  25.708  0.00  0.00    -0.158 OA
ATOM      7  O   UNL     1      -1.842  -2.662  23.992  0.00  0.00    -0.158 OA
ATOM     23  C   UNL     1      -4.225  -1.627  23.768  0.00  0.00    +0.214 C 
ENDBRANCH   9   1
ENDBRANCH  20   9
ENDBRANCH  13  20
TORSDOF 7
ENDMDL
MODEL 3
REMARK VINA RESULT:      -3.9      1.977      4.841
REMARK  Name = 25390234
REMARK  9 active torsions:
REMARK  status: ('A' for Active; 'I' for Inactive)
REMARK    1  A    between atoms: S_1  and  N_9
REMARK    2  A    between atoms: S_1  and  C_23
REMARK    3  A    between atoms: O_3  and  C_11
REMARK    4  A    between atoms: O_4  and  C_12
REMARK    5  A    between atoms: N_9  and  C_20
REMARK    6  A    between atoms: C_10  and  C_14
REMARK    7  A    between atoms: C_13  and  C_20
REMARK    8  A    between atoms: C_14  and  C_21
REMARK    9  A    between atoms: C_15  and  C_22
REMARK                            x       y       z     vdW  Elec       q    Type
REMARK                         _______ _______ _______ _____ _____    ______ ____
ROOT
ATOM      2  O   UNL     1      -3.787   1.857  26.054  0.00  0.00    -0.366 OA
ATOM     10  C   UNL     1      -4.312   3.160  26.365  0.00  0.00    +0.158 C 
ATOM     11  C   UNL     1      -5.310   3.474  25.264  0.00  0.00    +0.175 C 
ATOM     12  C   UNL     1      -5.899   2.106  24.989  0.00  0.00    +0.175 C 
ATOM     13  C   UNL     1      -4.678   1.203  25.123  0.00  0.00    +0.165 C 
ENDROOT
BRANCH  11   3
ATOM      3  O   UNL     1      -6.270   4.424  25.674  0.00  0.00    -0.387 OA
ATOM     24  H   UNL     1      -6.857   3.988  26.316  0.00  0.00    +0.210 HD
ENDBRANCH  11   3
BRANCH  12   4
ATOM      4  O   UNL     1      -6.827   1.751  26.012  0.00  0.00    -0.387 OA
ATOM     25  H   UNL     1      -6.316   1.580  26.822  0.00  0.00    +0.210 HD
ENDBRANCH  12   4
BRANCH  10  14
ATOM     14  C   UNL     1      -3.175   4.162  26.452  0.00  0.00    +0.130 C 
BRANCH  14  21
ATOM      5  O   UNL     1      -2.883   4.902  24.220  0.00  0.00    -0.276 OA
ATOM      8  N   UNL     1      -1.264   3.460  25.054  0.00  0.00    -0.301 N 
ATOM     15  C   UNL     1       0.388   1.175  24.373  0.00  0.00    -0.011 C 
ATOM     16  C   UNL     1      -0.471   1.202  25.646  0.00  0.00    +0.022 C 
ATOM     17  C   UNL     1      -0.231   2.078  23.296  0.00  0.00    +0.022 C 
ATOM     18  C   UNL     1      -0.704   2.633  26.129  0.00  0.00    +0.108 C 
ATOM     19  C   UNL     1      -0.467   3.490  23.826  0.00  0.00    +0.108 C 
ATOM     21  C   UNL     1      -2.433   4.214  25.140  0.00  0.00    +0.218 C 
ATOM     22  C   UNL     1       0.551  -0.254  23.858  0.00  0.00    +0.007 C 
ENDBRANCH  14  21
ENDBRANCH  10  14
BRANCH  13  20
ATOM     20  C   UNL     1      -3.927   1.017  23.811  0.00  0.00    +0.139 C 
BRANCH  20   9
ATOM      9  N   UNL     1      -2.989  -0.064  23.900  0.00  0.00    -0.192 NA
ATOM     26  H   UNL     1      -2.022   0.229  24.088  0.00  0.00    +0.148 HD
BRANCH   9   1
ATOM      1  S   UNL     1      -3.456  -1.570  24.603  0.00  0.00    +0.027 S 
ATOM      6  O   UNL     1      -4.532  -2.144  23.819  0.00  0.00    -0.158 OA
ATOM      7  O   UNL     1      -3.583  -1.421  26.040  0.00  0.00    -0.158 OA
ATOM     23  C   UNL     1      -1.987  -2.525  24.297  0.00  0.00    +0.214 C 
ENDBRANCH   9   1
ENDBRANCH  20   9
ENDBRANCH  13  20
TORSDOF 7
ENDMDL
MODEL 4
REMARK VINA RESULT:      -3.9      2.715      4.804
REMARK  Name = 25390234
REMARK  9 active torsions:
REMARK  status: ('A' for Active; 'I' for Inactive)
REMARK    1  A    between atoms: S_1  and  N_9
REMARK    2  A    between atoms: S_1  and  C_23
REMARK    3  A    between atoms: O_3  and  C_11
REMARK    4  A    between atoms: O_4  and  C_12
REMARK    5  A    between atoms: N_9  and  C_20
REMARK    6  A    between atoms: C_10  and  C_14
REMARK    7  A    between atoms: C_13  and  C_20
REMARK    8  A    between atoms: C_14  and  C_21
REMARK    9  A    between atoms: C_15  and  C_22
REMARK                            x       y       z     vdW  Elec       q    Type
REMARK                         _______ _______ _______ _____ _____    ______ ____
ROOT
ATOM      2  O   UNL     1      -1.575   0.103  25.718  0.00  0.00    -0.366 OA
ATOM     10  C   UNL     1      -2.585  -0.917  25.631  0.00  0.00    +0.158 C 
ATOM     11  C   UNL     1      -2.169  -1.806  24.470  0.00  0.00    +0.175 C 
ATOM     12  C   UNL     1      -0.660  -1.784  24.595  0.00  0.00    +0.175 C 
ATOM     13  C   UNL     1      -0.398  -0.338  25.004  0.00  0.00    +0.165 C 
ENDROOT
BRANCH  11   3
ATOM      3  O   UNL     1      -2.720  -3.102  24.572  0.00  0.00    -0.387 OA
ATOM     24  H   UNL     1      -1.996  -3.710  24.801  0.00  0.00    +0.210 HD
ENDBRANCH  11   3
BRANCH  12   4
ATOM      4  O   UNL     1      -0.239  -2.630  25.664  0.00  0.00    -0.387 OA
ATOM     25  H   UNL     1       0.231  -2.073  26.307  0.00  0.00    +0.210 HD
ENDBRANCH  12   4
BRANCH  10  14
ATOM     14  C   UNL     1      -3.947  -0.275  25.439  0.00  0.00    +0.130 C 
BRANCH  14  21
ATOM      5  O   UNL     1      -3.959   0.198  23.118  0.00  0.00    -0.276 OA
ATOM      8  N   UNL     1      -3.824   2.025  24.546  0.00  0.00    -0.301 N 
ATOM     15  C   UNL     1      -2.521   4.589  24.927  0.00  0.00    -0.011 C 
ATOM     16  C   UNL     1      -2.552   3.523  26.033  0.00  0.00    +0.022 C 
ATOM     17  C   UNL     1      -2.611   3.922  23.546  0.00  0.00    +0.022 C 
ATOM     18  C   UNL     1      -3.767   2.609  25.890  0.00  0.00    +0.108 C 
ATOM     19  C   UNL     1      -3.826   3.001  23.454  0.00  0.00    +0.108 C 
ATOM     21  C   UNL     1      -3.912   0.663  24.259  0.00  0.00    +0.218 C 
ATOM     22  C   UNL     1      -1.264   5.448  25.035  0.00  0.00    +0.007 C 
ENDBRANCH  14  21
ENDBRANCH  10  14
BRANCH  13  20
ATOM     20  C   UNL     1      -0.199   0.591  23.815  0.00  0.00    +0.139 C 
BRANCH  20   9
ATOM      9  N   UNL     1       1.175   0.977  23.683  0.00  0.00    -0.192 NA
ATOM     26  H   UNL     1       1.572   1.423  24.520  0.00  0.00    +0.148 HD
BRANCH   9   1
ATOM      1  S   UNL     1       2.273   0.003  22.773  0.00  0.00    +0.027 S 
ATOM      6  O   UNL     1       1.719  -0.225  21.453  0.00  0.00    -0.158 OA
ATOM      7  O   UNL     1       2.732  -1.107  23.587  0.00  0.00    -0.158 OA
ATOM     23  C   UNL     1       3.632   1.137  22.608  0.00  0.00    +0.214 C 
ENDBRANCH   9   1
ENDBRANCH  20   9
ENDBRANCH  13  20
TORSDOF 7
ENDMDL
MODEL 5
REMARK VINA RESULT:      -3.6      2.180      3.973
REMARK  Name = 25390234
REMARK  9 active torsions:
REMARK  status: ('A' for Active; 'I' for Inactive)
REMARK    1  A    between atoms: S_1  and  N_9
REMARK    2  A    between atoms: S_1  and  C_23
REMARK    3  A    between atoms: O_3  and  C_11
REMARK    4  A    between atoms: O_4  and  C_12
REMARK    5  A    between atoms: N_9  and  C_20
REMARK    6  A    between atoms: C_10  and  C_14
REMARK    7  A    between atoms: C_13  and  C_20
REMARK    8  A    between atoms: C_14  and  C_21
REMARK    9  A    between atoms: C_15  and  C_22
REMARK                            x       y       z     vdW  Elec       q    Type
REMARK                         _______ _______ _______ _____ _____    ______ ____
ROOT
ATOM      2  O   UNL     1      -2.432  -0.593  25.242  0.00  0.00    -0.366 OA
ATOM     10  C   UNL     1      -3.719  -0.729  24.616  0.00  0.00    +0.158 C 
ATOM     11  C   UNL     1      -3.651  -2.017  23.812  0.00  0.00    +0.175 C 
ATOM     12  C   UNL     1      -2.781  -2.883  24.700  0.00  0.00    +0.175 C 
ATOM     13  C   UNL     1      -1.765  -1.876  25.226  0.00  0.00    +0.165 C 
ENDROOT
BRANCH  11   3
ATOM      3  O   UNL     1      -4.931  -2.564  23.578  0.00  0.00    -0.387 OA
ATOM     24  H   UNL     1      -4.902  -3.499  23.843  0.00  0.00    +0.210 HD
ENDBRANCH  11   3
BRANCH  12   4
ATOM      4  O   UNL     1      -3.536  -3.371  25.807  0.00  0.00    -0.387 OA
ATOM     25  H   UNL     1      -3.805  -2.601  26.338  0.00  0.00    +0.210 HD
ENDBRANCH  12   4
BRANCH  10  14
ATOM     14  C   UNL     1      -4.007   0.496  23.766  0.00  0.00    +0.130 C 
BRANCH  14  21
ATOM      5  O   UNL     1      -5.708   1.779  24.803  0.00  0.00    -0.276 OA
ATOM      8  N   UNL     1      -3.519   2.438  25.212  0.00  0.00    -0.301 N 
ATOM     15  C   UNL     1      -1.797   4.760  25.464  0.00  0.00    -0.011 C 
ATOM     16  C   UNL     1      -1.439   3.582  24.544  0.00  0.00    +0.022 C 
ATOM     17  C   UNL     1      -3.321   4.858  25.632  0.00  0.00    +0.022 C 
ATOM     18  C   UNL     1      -2.071   2.281  25.036  0.00  0.00    +0.108 C 
ATOM     19  C   UNL     1      -3.912   3.531  26.103  0.00  0.00    +0.108 C 
ATOM     21  C   UNL     1      -4.495   1.625  24.639  0.00  0.00    +0.218 C 
ATOM     22  C   UNL     1      -1.224   6.067  24.921  0.00  0.00    +0.007 C 
ENDBRANCH  14  21
ENDBRANCH  10  14
BRANCH  13  20
ATOM     20  C   UNL     1      -0.534  -1.750  24.338  0.00  0.00    +0.139 C 
BRANCH  20   9
ATOM      9  N   UNL     1       0.221  -0.575  24.662  0.00  0.00    -0.192 NA
ATOM     26  H   UNL     1       0.963  -0.727  25.357  0.00  0.00    +0.148 HD
BRANCH   9   1
ATOM      1  S   UNL     1       0.576   0.598  23.445  0.00  0.00    +0.027 S 
ATOM      6  O   UNL     1       1.256   1.722  24.058  0.00  0.00    -0.158 OA
ATOM      7  O   UNL     1      -0.590   0.803  22.608  0.00  0.00    -0.158 OA
ATOM     23  C   UNL     1       1.769  -0.303  22.482  0.00  0.00    +0.214 C 
ENDBRANCH   9   1
ENDBRANCH  20   9
ENDBRANCH  13  20
TORSDOF 7
ENDMDL
MODEL 6
REMARK VINA RESULT:      -2.2      2.219      4.499
REMARK  Name = 25390234
REMARK  9 active torsions:
REMARK  status: ('A' for Active; 'I' for Inactive)
REMARK    1  A    between atoms: S_1  and  N_9
REMARK    2  A    between atoms: S_1  and  C_23
REMARK    3  A    between atoms: O_3  and  C_11
REMARK    4  A    between atoms: O_4  and  C_12
REMARK    5  A    between atoms: N_9  and  C_20
REMARK    6  A    between atoms: C_10  and  C_14
REMARK    7  A    between atoms: C_13  and  C_20
REMARK    8  A    between atoms: C_14  and  C_21
REMARK    9  A    between atoms: C_15  and  C_22
REMARK                            x       y       z     vdW  Elec       q    Type
REMARK                         _______ _______ _______ _____ _____    ______ ____
ROOT
ATOM      2  O   UNL     1      -3.743   1.611  25.222  0.00  0.00    -0.366 OA
ATOM     10  C   UNL     1      -4.666   2.601  24.736  0.00  0.00    +0.158 C 
ATOM     11  C   UNL     1      -5.970   1.861  24.491  0.00  0.00    +0.175 C 
ATOM     12  C   UNL     1      -5.962   0.849  25.617  0.00  0.00    +0.175 C 
ATOM     13  C   UNL     1      -4.489   0.461  25.683  0.00  0.00    +0.165 C 
ENDROOT
BRANCH  11   3
ATOM      3  O   UNL     1      -7.085   2.727  24.525  0.00  0.00    -0.387 OA
ATOM     24  H   UNL     1      -7.045   3.286  23.731  0.00  0.00    +0.210 HD
ENDBRANCH  11   3
BRANCH  12   4
ATOM      4  O   UNL     1      -6.310   1.477  26.850  0.00  0.00    -0.387 OA
ATOM     25  H   UNL     1      -7.281   1.474  26.914  0.00  0.00    +0.210 HD
ENDBRANCH  12   4
BRANCH  10  14
ATOM     14  C   UNL     1      -4.102   3.258  23.489  0.00  0.00    +0.130 C 
BRANCH  14  21
ATOM      5  O   UNL     1      -2.585   1.912  22.264  0.00  0.00    -0.276 OA
ATOM      8  N   UNL     1      -1.691   3.147  24.016  0.00  0.00    -0.301 N 
ATOM     15  C   UNL     1       0.193   3.033  26.219  0.00  0.00    -0.011 C 
ATOM     16  C   UNL     1      -1.257   3.503  26.417  0.00  0.00    +0.022 C 
ATOM     17  C   UNL     1       0.280   2.069  25.026  0.00  0.00    +0.022 C 
ATOM     18  C   UNL     1      -1.830   4.093  25.129  0.00  0.00    +0.108 C 
ATOM     19  C   UNL     1      -0.323   2.690  23.768  0.00  0.00    +0.108 C 
ATOM     21  C   UNL     1      -2.728   2.709  23.194  0.00  0.00    +0.218 C 
ATOM     22  C   UNL     1       0.728   2.377  27.489  0.00  0.00    +0.007 C 
ENDBRANCH  14  21
ENDBRANCH  10  14
BRANCH  13  20
ATOM     20  C   UNL     1      -4.140  -0.713  24.778  0.00  0.00    +0.139 C 
BRANCH  20   9
ATOM      9  N   UNL     1      -2.894  -0.496  24.104  0.00  0.00    -0.192 NA
ATOM     26  H   UNL     1      -2.800   0.434  23.676  0.00  0.00    +0.148 HD
BRANCH   9   1
ATOM      1  S   UNL     1      -1.433  -1.172  24.729  0.00  0.00    +0.027 S 
ATOM      6  O   UNL     1      -1.330  -0.853  26.140  0.00  0.00    -0.158 OA
ATOM      7  O   UNL     1      -0.336  -0.890  23.823  0.00  0.00    -0.158 OA
ATOM     23  C   UNL     1      -1.806  -2.905  24.587  0.00  0.00    +0.214 C 
ENDBRANCH   9   1
ENDBRANCH  20   9
ENDBRANCH  13  20
TORSDOF 7
ENDMDL
MODEL 7
REMARK VINA RESULT:      -2.0      2.307      5.299
REMARK  Name = 25390234
REMARK  9 active torsions:
REMARK  status: ('A' for Active; 'I' for Inactive)
REMARK    1  A    between atoms: S_1  and  N_9
REMARK    2  A    between atoms: S_1  and  C_23
REMARK    3  A    between atoms: O_3  and  C_11
REMARK    4  A    between atoms: O_4  and  C_12
REMARK    5  A    between atoms: N_9  and  C_20
REMARK    6  A    between atoms: C_10  and  C_14
REMARK    7  A    between atoms: C_13  and  C_20
REMARK    8  A    between atoms: C_14  and  C_21
REMARK    9  A    between atoms: C_15  and  C_22
REMARK                            x       y       z     vdW  Elec       q    Type
REMARK                         _______ _______ _______ _____ _____    ______ ____
ROOT
ATOM      2  O   UNL     1      -1.501   2.786  25.374  0.00  0.00    -0.366 OA
ATOM     10  C   UNL     1      -0.660   2.884  24.212  0.00  0.00    +0.158 C 
ATOM     11  C   UNL     1      -0.907   4.271  23.643  0.00  0.00    +0.175 C 
ATOM     12  C   UNL     1      -1.112   5.085  24.904  0.00  0.00    +0.175 C 
ATOM     13  C   UNL     1      -1.895   4.115  25.782  0.00  0.00    +0.165 C 
ENDROOT
BRANCH  11   3
ATOM      3  O   UNL     1       0.175   4.722  22.856  0.00  0.00    -0.387 OA
ATOM     24  H   UNL     1       0.249   4.125  22.093  0.00  0.00    +0.210 HD
ENDBRANCH  11   3
BRANCH  12   4
ATOM      4  O   UNL     1       0.141   5.342  25.536  0.00  0.00    -0.387 OA
ATOM     25  H   UNL     1       0.674   4.532  25.464  0.00  0.00    +0.210 HD
ENDBRANCH  12   4
BRANCH  10  14
ATOM     14  C   UNL     1      -0.996   1.766  23.241  0.00  0.00    +0.130 C 
BRANCH  14  21
ATOM      5  O   UNL     1       0.657   0.126  23.678  0.00  0.00    -0.276 OA
ATOM      8  N   UNL     1      -1.494  -0.348  24.416  0.00  0.00    -0.301 N 
ATOM     15  C   UNL     1      -3.464  -2.466  24.634  0.00  0.00    -0.011 C 
ATOM     16  C   UNL     1      -3.806  -1.102  24.014  0.00  0.00    +0.022 C 
ATOM     17  C   UNL     1      -1.967  -2.765  24.465  0.00  0.00    +0.022 C 
ATOM     18  C   UNL     1      -2.910   0.002  24.572  0.00  0.00    +0.108 C 
ATOM     19  C   UNL     1      -1.110  -1.628  25.016  0.00  0.00    +0.108 C 
ATOM     21  C   UNL     1      -0.529   0.444  23.797  0.00  0.00    +0.218 C 
ATOM     22  C   UNL     1      -4.314  -3.573  24.013  0.00  0.00    +0.007 C 
ENDBRANCH  14  21
ENDBRANCH  10  14
BRANCH  13  20
ATOM     20  C   UNL     1      -3.403   4.231  25.600  0.00  0.00    +0.139 C 
BRANCH  20   9
ATOM      9  N   UNL     1      -4.057   2.988  25.890  0.00  0.00    -0.192 NA
ATOM     26  H   UNL     1      -3.557   2.394  26.564  0.00  0.00    +0.148 HD
BRANCH   9   1
ATOM      1  S   UNL     1      -5.780   2.904  25.965  0.00  0.00    +0.027 S 
ATOM      6  O   UNL     1      -6.330   4.209  25.656  0.00  0.00    -0.158 OA
ATOM      7  O   UNL     1      -6.183   2.193  27.163  0.00  0.00    -0.158 OA
ATOM     23  C   UNL     1      -6.100   1.834  24.581  0.00  0.00    +0.214 C 
ENDBRANCH   9   1
ENDBRANCH  20   9
ENDBRANCH  13  20
TORSDOF 7
ENDMDL
MODEL 8
REMARK VINA RESULT:      -1.7      2.449      5.210
REMARK  Name = 25390234
REMARK  9 active torsions:
REMARK  status: ('A' for Active; 'I' for Inactive)
REMARK    1  A    between atoms: S_1  and  N_9
REMARK    2  A    between atoms: S_1  and  C_23
REMARK    3  A    between atoms: O_3  and  C_11
REMARK    4  A    between atoms: O_4  and  C_12
REMARK    5  A    between atoms: N_9  and  C_20
REMARK    6  A    between atoms: C_10  and  C_14
REMARK    7  A    between atoms: C_13  and  C_20
REMARK    8  A    between atoms: C_14  and  C_21
REMARK    9  A    between atoms: C_15  and  C_22
REMARK                            x       y       z     vdW  Elec       q    Type
REMARK                         _______ _______ _______ _____ _____    ______ ____
ROOT
ATOM      2  O   UNL     1      -0.908   0.290  22.932  0.00  0.00    -0.366 OA
ATOM     10  C   UNL     1      -1.124   1.707  23.050  0.00  0.00    +0.158 C 
ATOM     11  C   UNL     1      -0.654   2.079  24.446  0.00  0.00    +0.175 C 
ATOM     12  C   UNL     1       0.523   1.144  24.630  0.00  0.00    +0.175 C 
ATOM     13  C   UNL     1       0.025  -0.129  23.954  0.00  0.00    +0.165 C 
ENDROOT
BRANCH  11   3
ATOM      3  O   UNL     1      -0.305   3.443  24.542  0.00  0.00    -0.387 OA
ATOM     24  H   UNL     1       0.337   3.631  23.837  0.00  0.00    +0.210 HD
ENDBRANCH  11   3
BRANCH  12   4
ATOM      4  O   UNL     1       1.652   1.620  23.899  0.00  0.00    -0.387 OA
ATOM     25  H   UNL     1       1.373   2.421  23.423  0.00  0.00    +0.210 HD
ENDBRANCH  12   4
BRANCH  10  14
ATOM     14  C   UNL     1      -2.588   2.023  22.803  0.00  0.00    +0.130 C 
BRANCH  14  21
ATOM      5  O   UNL     1      -2.312   3.992  24.092  0.00  0.00    -0.276 OA
ATOM      8  N   UNL     1      -4.349   2.895  24.299  0.00  0.00    -0.301 N 
ATOM     15  C   UNL     1      -6.368   2.081  26.217  0.00  0.00    -0.011 C 
ATOM     16  C   UNL     1      -5.755   1.089  25.216  0.00  0.00    +0.022 C 
ATOM     17  C   UNL     1      -5.376   3.215  26.516  0.00  0.00    +0.022 C 
ATOM     18  C   UNL     1      -5.266   1.802  23.956  0.00  0.00    +0.108 C 
ATOM     19  C   UNL     1      -4.897   3.884  25.230  0.00  0.00    +0.108 C 
ATOM     21  C   UNL     1      -3.064   3.063  23.787  0.00  0.00    +0.218 C 
ATOM     22  C   UNL     1      -6.784   1.368  27.502  0.00  0.00    +0.007 C 
ENDBRANCH  14  21
ENDBRANCH  10  14
BRANCH  13  20
ATOM     20  C   UNL     1      -0.715  -1.059  24.907  0.00  0.00    +0.139 C 
BRANCH  20   9
ATOM      9  N   UNL     1      -1.554  -1.974  24.190  0.00  0.00    -0.192 NA
ATOM     26  H   UNL     1      -1.106  -2.871  23.963  0.00  0.00    +0.148 HD
BRANCH   9   1
ATOM      1  S   UNL     1      -3.246  -2.058  24.528  0.00  0.00    +0.027 S 
ATOM      6  O   UNL     1      -3.587  -3.417  24.896  0.00  0.00    -0.158 OA
ATOM      7  O   UNL     1      -3.986  -1.360  23.494  0.00  0.00    -0.158 OA
ATOM     23  C   UNL     1      -3.319  -1.059  25.997  0.00  0.00    +0.214 C 
ENDBRANCH   9   1
ENDBRANCH  20   9
ENDBRANCH  13  20
TORSDOF 7
ENDMDL
MODEL 9
REMARK VINA RESULT:      -1.2      2.748      4.505
REMARK  Name = 25390234
REMARK  9 active torsions:
REMARK  status: ('A' for Active; 'I' for Inactive)
REMARK    1  A    between atoms: S_1  and  N_9
REMARK    2  A    between atoms: S_1  and  C_23
REMARK    3  A    between atoms: O_3  and  C_11
REMARK    4  A    between atoms: O_4  and  C_12
REMARK    5  A    between atoms: N_9  and  C_20
REMARK    6  A    between atoms: C_10  and  C_14
REMARK    7  A    between atoms: C_13  and  C_20
REMARK    8  A    between atoms: C_14  and  C_21
REMARK    9  A    between atoms: C_15  and  C_22
REMARK                            x       y       z     vdW  Elec       q    Type
REMARK                         _______ _______ _______ _____ _____    ______ ____
ROOT
ATOM      2  O   UNL     1      -2.160  -0.113  24.807  0.00  0.00    -0.366 OA
ATOM     10  C   UNL     1      -3.411  -0.431  24.172  0.00  0.00    +0.158 C 
ATOM     11  C   UNL     1      -3.301  -1.887  23.754  0.00  0.00    +0.175 C 
ATOM     12  C   UNL     1      -2.485  -2.469  24.889  0.00  0.00    +0.175 C 
ATOM     13  C   UNL     1      -1.497  -1.344  25.177  0.00  0.00    +0.165 C 
ENDROOT
BRANCH  11   3
ATOM      3  O   UNL     1      -4.567  -2.494  23.608  0.00  0.00    -0.387 OA
ATOM     24  H   UNL     1      -4.664  -3.145  24.323  0.00  0.00    +0.210 HD
ENDBRANCH  11   3
BRANCH  12   4
ATOM      4  O   UNL     1      -3.301  -2.648  26.045  0.00  0.00    -0.387 OA
ATOM     25  H   UNL     1      -3.058  -1.956  26.683  0.00  0.00    +0.210 HD
ENDBRANCH  12   4
BRANCH  10  14
ATOM     14  C   UNL     1      -3.648   0.514  23.008  0.00  0.00    +0.130 C 
BRANCH  14  21
ATOM      5  O   UNL     1      -1.662   1.723  22.555  0.00  0.00    -0.276 OA
ATOM      8  N   UNL     1      -3.226   2.772  23.915  0.00  0.00    -0.301 N 
ATOM     15  C   UNL     1      -3.516   4.400  26.299  0.00  0.00    -0.011 C 
ATOM     16  C   UNL     1      -4.322   3.107  26.098  0.00  0.00    +0.022 C 
ATOM     17  C   UNL     1      -2.192   4.326  25.524  0.00  0.00    +0.022 C 
ATOM     18  C   UNL     1      -4.515   2.798  24.614  0.00  0.00    +0.108 C 
ATOM     19  C   UNL     1      -2.430   3.994  24.053  0.00  0.00    +0.108 C 
ATOM     21  C   UNL     1      -2.751   1.720  23.133  0.00  0.00    +0.218 C 
ATOM     22  C   UNL     1      -3.265   4.657  27.783  0.00  0.00    +0.007 C 
ENDBRANCH  14  21
ENDBRANCH  10  14
BRANCH  13  20
ATOM     20  C   UNL     1      -0.218  -1.448  24.357  0.00  0.00    +0.139 C 
BRANCH  20   9
ATOM      9  N   UNL     1       0.326  -0.151  24.078  0.00  0.00    -0.192 NA
ATOM     26  H   UNL     1       0.166   0.543  24.819  0.00  0.00    +0.148 HD
BRANCH   9   1
ATOM      1  S   UNL     1       1.821   0.005  23.228  0.00  0.00    +0.027 S 
ATOM      6  O   UNL     1       2.709  -1.066  23.635  0.00  0.00    -0.158 OA
ATOM      7  O   UNL     1       2.260   1.387  23.261  0.00  0.00    -0.158 OA
ATOM     23  C   UNL     1       1.274  -0.338  21.571  0.00  0.00    +0.214 C 
ENDBRANCH   9   1
ENDBRANCH  20   9
ENDBRANCH  13  20
TORSDOF 7
ENDMDL
MODEL 10
REMARK VINA RESULT:      -1.2      2.436      4.948
REMARK  Name = 25390234
REMARK  9 active torsions:
REMARK  status: ('A' for Active; 'I' for Inactive)
REMARK    1  A    between atoms: S_1  and  N_9
REMARK    2  A    between atoms: S_1  and  C_23
REMARK    3  A    between atoms: O_3  and  C_11
REMARK    4  A    between atoms: O_4  and  C_12
REMARK    5  A    between atoms: N_9  and  C_20
REMARK    6  A    between atoms: C_10  and  C_14
REMARK    7  A    between atoms: C_13  and  C_20
REMARK    8  A    between atoms: C_14  and  C_21
REMARK    9  A    between atoms: C_15  and  C_22
REMARK                            x       y       z     vdW  Elec       q    Type
REMARK                         _______ _______ _______ _____ _____    ______ ____
ROOT
ATOM      2  O   UNL     1      -0.972   0.203  23.343  0.00  0.00    -0.366 OA
ATOM     10  C   UNL     1      -0.928   1.575  22.914  0.00  0.00    +0.158 C 
ATOM     11  C   UNL     1      -0.515   2.375  24.138  0.00  0.00    +0.175 C 
ATOM     12  C   UNL     1       0.447   1.421  24.813  0.00  0.00    +0.175 C 
ATOM     13  C   UNL     1      -0.223   0.072  24.572  0.00  0.00    +0.165 C 
ENDROOT
BRANCH  11   3
ATOM      3  O   UNL     1       0.074   3.610  23.789  0.00  0.00    -0.387 OA
ATOM     24  H   UNL     1       1.002   3.581  24.076  0.00  0.00    +0.210 HD
ENDBRANCH  11   3
BRANCH  12   4
ATOM      4  O   UNL     1       1.702   1.420  24.135  0.00  0.00    -0.387 OA
ATOM     25  H   UNL     1       1.610   1.990  23.352  0.00  0.00    +0.210 HD
ENDBRANCH  12   4
BRANCH  10  14
ATOM     14  C   UNL     1      -2.282   1.981  22.358  0.00  0.00    +0.130 C 
BRANCH  14  21
ATOM      5  O   UNL     1      -3.871   0.325  22.947  0.00  0.00    -0.276 OA
ATOM      8  N   UNL     1      -3.785   2.207  24.305  0.00  0.00    -0.301 N 
ATOM     15  C   UNL     1      -5.430   4.112  25.748  0.00  0.00    -0.011 C 
ATOM     16  C   UNL     1      -4.329   4.565  24.778  0.00  0.00    +0.022 C 
ATOM     17  C   UNL     1      -5.958   2.727  25.342  0.00  0.00    +0.022 C 
ATOM     18  C   UNL     1      -3.224   3.516  24.661  0.00  0.00    +0.108 C 
ATOM     19  C   UNL     1      -4.821   1.717  25.216  0.00  0.00    +0.108 C 
ATOM     21  C   UNL     1      -3.383   1.423  23.225  0.00  0.00    +0.218 C 
ATOM     22  C   UNL     1      -6.564   5.133  25.799  0.00  0.00    +0.007 C 
ENDBRANCH  14  21
ENDBRANCH  10  14
BRANCH  13  20
ATOM     20  C   UNL     1      -1.200  -0.314  25.674  0.00  0.00    +0.139 C 
BRANCH  20   9
ATOM      9  N   UNL     1      -2.459  -0.728  25.129  0.00  0.00    -0.192 NA
ATOM     26  H   UNL     1      -2.855  -0.078  24.437  0.00  0.00    +0.148 HD
BRANCH   9   1
ATOM      1  S   UNL     1      -2.779  -2.401  24.840  0.00  0.00    +0.027 S 
ATOM      6  O   UNL     1      -3.197  -3.022  26.081  0.00  0.00    -0.158 OA
ATOM      7  O   UNL     1      -1.708  -2.973  24.046  0.00  0.00    -0.158 OA
ATOM     23  C   UNL     1      -4.206  -2.267  23.787  0.00  0.00    +0.214 C 
ENDBRANCH   9   1
ENDBRANCH  20   9
ENDBRANCH  13  20
TORSDOF 7
ENDMDL
