MODEL 1
REMARK VINA RESULT:      -4.7      0.000      0.000
REMARK  Name = 56775278
REMARK  5 active torsions:
REMARK  status: ('A' for Active; 'I' for Inactive)
REMARK    1  A    between atoms: O_5  and  C_17
REMARK    2  A    between atoms: O_5  and  C_23
REMARK    3  A    between atoms: N_7  and  C_14
REMARK    4  A    between atoms: C_14  and  C_16
REMARK    5  A    between atoms: C_15  and  C_17
REMARK                            x       y       z     vdW  Elec       q    Type
REMARK                         _______ _______ _______ _____ _____    ______ ____
ROOT
ATOM      2  O   UNL     1      -1.024  -8.897  15.009  0.00  0.00    -0.364 OA
ATOM      3  O   UNL     1      -0.775  -8.383  11.497  0.00  0.00    -0.273 OA
ATOM      4  O   UNL     1      -4.355 -10.580  17.954  0.00  0.00    -0.272 OA
ATOM      6  N   UNL     1      -3.399 -10.515  15.851  0.00  0.00    -0.294 N 
ATOM      7  N   UNL     1      -1.713 -10.179  12.640  0.00  0.00    -0.288 N 
ATOM      8  C   UNL     1      -2.058 -10.780  13.923  0.00  0.00    +0.124 C 
ATOM      9  C   UNL     1      -1.180 -10.312  15.082  0.00  0.00    +0.158 C 
ATOM     10  C   UNL     1      -3.466 -10.411  14.397  0.00  0.00    +0.133 C 
ATOM     11  C   UNL     1      -2.020 -10.643  16.309  0.00  0.00    +0.141 C 
ATOM     12  C   UNL     1      -0.979  -9.000  12.544  0.00  0.00    +0.242 C 
ATOM     13  C   UNL     1      -0.334  -8.529  13.836  0.00  0.00    +0.256 C 
ATOM     15  C   UNL     1      -4.467 -10.489  16.730  0.00  0.00    +0.253 C 
ENDROOT
BRANCH   7  14
ATOM     14  C   UNL     1      -2.307 -10.774  11.452  0.00  0.00    +0.143 C 
BRANCH  14  16
ATOM      1  F   UNL     1      -6.586  -7.695   9.472  0.00  0.00    -0.205 F 
ATOM     16  C   UNL     1      -3.448  -9.953  10.923  0.00  0.00    -0.030 A 
ATOM     18  C   UNL     1      -3.345  -9.336   9.677  0.00  0.00    +0.008 A 
ATOM     19  C   UNL     1      -4.611  -9.807  11.680  0.00  0.00    +0.008 A 
ATOM     20  C   UNL     1      -4.405  -8.574   9.186  0.00  0.00    +0.038 A 
ATOM     21  C   UNL     1      -5.671  -9.045  11.190  0.00  0.00    +0.038 A 
ATOM     22  C   UNL     1      -5.569  -8.428   9.943  0.00  0.00    +0.123 A 
ENDBRANCH  14  16
ENDBRANCH   7  14
BRANCH  15  17
ATOM     17  C   UNL     1      -5.827 -10.343  16.096  0.00  0.00    +0.324 C 
BRANCH  17   5
ATOM      5  O   UNL     1      -6.661  -9.752  17.064  0.00  0.00    -0.483 OA
BRANCH   5  23
ATOM     23  C   UNL     1      -7.894  -9.304  16.647  0.00  0.00    +0.121 A 
ATOM     24  C   UNL     1      -8.706  -8.579  17.519  0.00  0.00    +0.045 A 
ATOM     25  C   UNL     1      -8.332  -9.575  15.350  0.00  0.00    +0.045 A 
ATOM     26  C   UNL     1      -9.955  -8.125  17.096  0.00  0.00    +0.004 A 
ATOM     27  C   UNL     1      -9.582  -9.122  14.926  0.00  0.00    +0.004 A 
ATOM     28  C   UNL     1     -10.393  -8.397  15.799  0.00  0.00    +0.000 A 
ENDBRANCH   5  23
ENDBRANCH  17   5
ENDBRANCH  15  17
TORSDOF 5
ENDMDL
MODEL 2
REMARK VINA RESULT:      -4.1     14.017     16.881
REMARK  Name = 56775278
REMARK  5 active torsions:
REMARK  status: ('A' for Active; 'I' for Inactive)
REMARK    1  A    between atoms: O_5  and  C_17
REMARK    2  A    between atoms: O_5  and  C_23
REMARK    3  A    between atoms: N_7  and  C_14
REMARK    4  A    between atoms: C_14  and  C_16
REMARK    5  A    between atoms: C_15  and  C_17
REMARK                            x       y       z     vdW  Elec       q    Type
REMARK                         _______ _______ _______ _____ _____    ______ ____
ROOT
ATOM      2  O   UNL     1      -2.268   4.117  25.968  0.00  0.00    -0.364 OA
ATOM      3  O   UNL     1      -5.456   2.771  26.797  0.00  0.00    -0.273 OA
ATOM      4  O   UNL     1       1.629   2.489  23.786  0.00  0.00    -0.272 OA
ATOM      6  N   UNL     1      -0.659   2.414  24.104  0.00  0.00    -0.294 N 
ATOM      7  N   UNL     1      -4.224   2.494  24.842  0.00  0.00    -0.288 N 
ATOM      8  C   UNL     1      -2.995   2.772  24.110  0.00  0.00    +0.124 C 
ATOM      9  C   UNL     1      -2.292   4.056  24.544  0.00  0.00    +0.158 C 
ATOM     10  C   UNL     1      -1.916   1.707  24.326  0.00  0.00    +0.133 C 
ATOM     11  C   UNL     1      -0.866   3.856  24.045  0.00  0.00    +0.141 C 
ATOM     12  C   UNL     1      -4.500   3.071  26.079  0.00  0.00    +0.242 C 
ATOM     13  C   UNL     1      -3.576   4.205  26.487  0.00  0.00    +0.256 C 
ATOM     15  C   UNL     1       0.595   1.845  23.972  0.00  0.00    +0.253 C 
ENDROOT
BRANCH   7  14
ATOM     14  C   UNL     1      -5.092   1.455  24.306  0.00  0.00    +0.143 C 
BRANCH  14  16
ATOM      1  F   UNL     1      -3.032  -3.701  25.240  0.00  0.00    -0.205 F 
ATOM     16  C   UNL     1      -4.542   0.080  24.554  0.00  0.00    -0.030 A 
ATOM     18  C   UNL     1      -4.571  -0.876  23.540  0.00  0.00    +0.008 A 
ATOM     19  C   UNL     1      -4.004  -0.240  25.801  0.00  0.00    +0.008 A 
ATOM     20  C   UNL     1      -4.060  -2.154  23.771  0.00  0.00    +0.038 A 
ATOM     21  C   UNL     1      -3.493  -1.518  26.032  0.00  0.00    +0.038 A 
ATOM     22  C   UNL     1      -3.521  -2.475  25.017  0.00  0.00    +0.123 A 
ENDBRANCH  14  16
ENDBRANCH   7  14
BRANCH  15  17
ATOM     17  C   UNL     1       0.639   0.340  24.065  0.00  0.00    +0.324 C 
BRANCH  17   5
ATOM      5  O   UNL     1       1.411  -0.108  22.976  0.00  0.00    -0.483 OA
BRANCH   5  23
ATOM     23  C   UNL     1       2.772  -0.196  23.160  0.00  0.00    +0.121 A 
ATOM     24  C   UNL     1       3.328  -1.343  23.726  0.00  0.00    +0.045 A 
ATOM     25  C   UNL     1       3.596   0.864  22.782  0.00  0.00    +0.045 A 
ATOM     26  C   UNL     1       4.707  -1.432  23.913  0.00  0.00    +0.004 A 
ATOM     27  C   UNL     1       4.976   0.776  22.969  0.00  0.00    +0.004 A 
ATOM     28  C   UNL     1       5.531  -0.372  23.535  0.00  0.00    +0.000 A 
ENDBRANCH   5  23
ENDBRANCH  17   5
ENDBRANCH  15  17
TORSDOF 5
ENDMDL
MODEL 3
REMARK VINA RESULT:      -3.4     13.831     15.950
REMARK  Name = 56775278
REMARK  5 active torsions:
REMARK  status: ('A' for Active; 'I' for Inactive)
REMARK    1  A    between atoms: O_5  and  C_17
REMARK    2  A    between atoms: O_5  and  C_23
REMARK    3  A    between atoms: N_7  and  C_14
REMARK    4  A    between atoms: C_14  and  C_16
REMARK    5  A    between atoms: C_15  and  C_17
REMARK                            x       y       z     vdW  Elec       q    Type
REMARK                         _______ _______ _______ _____ _____    ______ ____
ROOT
ATOM      2  O   UNL     1      -1.759  -2.949  23.553  0.00  0.00    -0.364 OA
ATOM      3  O   UNL     1      -5.246  -2.328  23.897  0.00  0.00    -0.273 OA
ATOM      4  O   UNL     1       2.172  -0.277  23.583  0.00  0.00    -0.272 OA
ATOM      6  N   UNL     1      -0.018  -0.612  24.238  0.00  0.00    -0.294 N 
ATOM      7  N   UNL     1      -3.477  -1.384  25.077  0.00  0.00    -0.288 N 
ATOM      8  C   UNL     1      -2.036  -1.285  25.269  0.00  0.00    +0.124 C 
ATOM      9  C   UNL     1      -1.265  -2.526  24.820  0.00  0.00    +0.158 C 
ATOM     10  C   UNL     1      -1.396  -0.171  24.436  0.00  0.00    +0.133 C 
ATOM     11  C   UNL     1       0.154  -2.004  24.636  0.00  0.00    +0.141 C 
ATOM     12  C   UNL     1      -4.051  -2.294  24.193  0.00  0.00    +0.242 C 
ATOM     13  C   UNL     1      -3.107  -3.353  23.650  0.00  0.00    +0.256 C 
ATOM     15  C   UNL     1       1.024   0.144  23.731  0.00  0.00    +0.253 C 
ENDROOT
BRANCH   7  14
ATOM     14  C   UNL     1      -4.300  -0.375  25.729  0.00  0.00    +0.143 C 
BRANCH  14  16
ATOM      1  F   UNL     1      -4.243   4.518  22.944  0.00  0.00    -0.205 F 
ATOM     16  C   UNL     1      -4.285   0.930  24.985  0.00  0.00    -0.030 A 
ATOM     18  C   UNL     1      -3.471   1.084  23.863  0.00  0.00    +0.008 A 
ATOM     19  C   UNL     1      -5.084   1.987  25.418  0.00  0.00    +0.008 A 
ATOM     20  C   UNL     1      -3.457   2.296  23.173  0.00  0.00    +0.038 A 
ATOM     21  C   UNL     1      -5.070   3.200  24.728  0.00  0.00    +0.038 A 
ATOM     22  C   UNL     1      -4.257   3.354  23.605  0.00  0.00    +0.123 A 
ENDBRANCH  14  16
ENDBRANCH   7  14
BRANCH  15  17
ATOM     17  C   UNL     1       0.677   1.564  23.359  0.00  0.00    +0.324 C 
BRANCH  17   5
ATOM      5  O   UNL     1       0.923   2.350  24.500  0.00  0.00    -0.483 OA
BRANCH   5  23
ATOM     23  C   UNL     1      -0.104   3.149  24.950  0.00  0.00    +0.121 A 
ATOM     24  C   UNL     1      -0.913   2.719  26.001  0.00  0.00    +0.045 A 
ATOM     25  C   UNL     1      -0.336   4.388  24.353  0.00  0.00    +0.045 A 
ATOM     26  C   UNL     1      -1.955   3.528  26.457  0.00  0.00    +0.004 A 
ATOM     27  C   UNL     1      -1.377   5.198  24.808  0.00  0.00    +0.004 A 
ATOM     28  C   UNL     1      -2.186   4.768  25.860  0.00  0.00    +0.000 A 
ENDBRANCH   5  23
ENDBRANCH  17   5
ENDBRANCH  15  17
TORSDOF 5
ENDMDL
MODEL 4
REMARK VINA RESULT:      -3.2      1.676      2.093
REMARK  Name = 56775278
REMARK  5 active torsions:
REMARK  status: ('A' for Active; 'I' for Inactive)
REMARK    1  A    between atoms: O_5  and  C_17
REMARK    2  A    between atoms: O_5  and  C_23
REMARK    3  A    between atoms: N_7  and  C_14
REMARK    4  A    between atoms: C_14  and  C_16
REMARK    5  A    between atoms: C_15  and  C_17
REMARK                            x       y       z     vdW  Elec       q    Type
REMARK                         _______ _______ _______ _____ _____    ______ ____
ROOT
ATOM      2  O   UNL     1      -1.532  -9.205  14.413  0.00  0.00    -0.364 OA
ATOM      3  O   UNL     1      -0.835  -8.690  10.962  0.00  0.00    -0.273 OA
ATOM      4  O   UNL     1      -5.425 -10.147  16.974  0.00  0.00    -0.272 OA
ATOM      6  N   UNL     1      -4.279 -10.258  14.971  0.00  0.00    -0.294 N 
ATOM      7  N   UNL     1      -2.258 -10.249  11.941  0.00  0.00    -0.288 N 
ATOM      8  C   UNL     1      -2.851 -10.781  13.161  0.00  0.00    +0.124 C 
ATOM      9  C   UNL     1      -2.008 -10.549  14.412  0.00  0.00    +0.158 C 
ATOM     10  C   UNL     1      -4.181 -10.112  13.521  0.00  0.00    +0.133 C 
ATOM     11  C   UNL     1      -3.015 -10.705  15.544  0.00  0.00    +0.141 C 
ATOM     12  C   UNL     1      -1.273  -9.265  11.960  0.00  0.00    +0.242 C 
ATOM     13  C   UNL     1      -0.667  -8.980  13.323  0.00  0.00    +0.256 C 
ATOM     15  C   UNL     1      -5.394 -10.007  15.751  0.00  0.00    +0.253 C 
ENDROOT
BRANCH   7  14
ATOM     14  C   UNL     1      -2.853 -10.669  10.680  0.00  0.00    +0.143 C 
BRANCH  14  16
ATOM      1  F   UNL     1      -7.601  -7.861   9.549  0.00  0.00    -0.205 F 
ATOM     16  C   UNL     1      -4.119  -9.919  10.378  0.00  0.00    -0.030 A 
ATOM     18  C   UNL     1      -4.155  -8.531  10.508  0.00  0.00    +0.008 A 
ATOM     19  C   UNL     1      -5.258 -10.612   9.969  0.00  0.00    +0.008 A 
ATOM     20  C   UNL     1      -5.331  -7.835  10.227  0.00  0.00    +0.038 A 
ATOM     21  C   UNL     1      -6.434  -9.917   9.689  0.00  0.00    +0.038 A 
ATOM     22  C   UNL     1      -6.471  -8.528   9.817  0.00  0.00    +0.123 A 
ENDBRANCH  14  16
ENDBRANCH   7  14
BRANCH  15  17
ATOM     17  C   UNL     1      -6.620  -9.543  15.004  0.00  0.00    +0.324 C 
BRANCH  17   5
ATOM      5  O   UNL     1      -7.120 -10.665  14.316  0.00  0.00    -0.483 OA
BRANCH   5  23
ATOM     23  C   UNL     1      -8.289 -10.501  13.608  0.00  0.00    +0.121 A 
ATOM     24  C   UNL     1      -9.444 -10.066  14.258  0.00  0.00    +0.045 A 
ATOM     25  C   UNL     1      -8.319 -10.769  12.240  0.00  0.00    +0.045 A 
ATOM     26  C   UNL     1     -10.629  -9.900  13.541  0.00  0.00    +0.004 A 
ATOM     27  C   UNL     1      -9.504 -10.604  11.521  0.00  0.00    +0.004 A 
ATOM     28  C   UNL     1     -10.659 -10.170  12.172  0.00  0.00    +0.000 A 
ENDBRANCH   5  23
ENDBRANCH  17   5
ENDBRANCH  15  17
TORSDOF 5
ENDMDL
MODEL 5
REMARK VINA RESULT:      -2.3     14.349     16.236
REMARK  Name = 56775278
REMARK  5 active torsions:
REMARK  status: ('A' for Active; 'I' for Inactive)
REMARK    1  A    between atoms: O_5  and  C_17
REMARK    2  A    between atoms: O_5  and  C_23
REMARK    3  A    between atoms: N_7  and  C_14
REMARK    4  A    between atoms: C_14  and  C_16
REMARK    5  A    between atoms: C_15  and  C_17
REMARK                            x       y       z     vdW  Elec       q    Type
REMARK                         _______ _______ _______ _____ _____    ______ ____
ROOT
ATOM      2  O   UNL     1      -3.057   4.945  24.663  0.00  0.00    -0.364 OA
ATOM      3  O   UNL     1       0.436   4.722  24.021  0.00  0.00    -0.273 OA
ATOM      4  O   UNL     1      -6.595   1.825  25.244  0.00  0.00    -0.272 OA
ATOM      6  N   UNL     1      -4.347   2.339  25.376  0.00  0.00    -0.294 N 
ATOM      7  N   UNL     1      -0.868   3.416  25.437  0.00  0.00    -0.288 N 
ATOM      8  C   UNL     1      -2.192   3.115  25.965  0.00  0.00    +0.124 C 
ATOM      9  C   UNL     1      -3.158   4.298  25.929  0.00  0.00    +0.158 C 
ATOM     10  C   UNL     1      -2.933   2.051  25.150  0.00  0.00    +0.133 C 
ATOM     11  C   UNL     1      -4.525   3.634  26.023  0.00  0.00    +0.141 C 
ATOM     12  C   UNL     1      -0.630   4.501  24.597  0.00  0.00    +0.242 C 
ATOM     13  C   UNL     1      -1.771   5.497  24.484  0.00  0.00    +0.256 C 
ATOM     15  C   UNL     1      -5.418   1.534  25.031  0.00  0.00    +0.253 C 
ENDROOT
BRANCH   7  14
ATOM     14  C   UNL     1       0.182   2.440  25.691  0.00  0.00    +0.143 C 
BRANCH  14  16
ATOM      1  F   UNL     1       1.268  -0.721  21.160  0.00  0.00    -0.205 F 
ATOM     16  C   UNL     1       0.470   1.597  24.482  0.00  0.00    -0.030 A 
ATOM     18  C   UNL     1      -0.573   0.967  23.805  0.00  0.00    +0.008 A 
ATOM     19  C   UNL     1       1.784   1.444  24.038  0.00  0.00    +0.008 A 
ATOM     20  C   UNL     1      -0.304   0.184  22.682  0.00  0.00    +0.038 A 
ATOM     21  C   UNL     1       2.053   0.661  22.915  0.00  0.00    +0.038 A 
ATOM     22  C   UNL     1       1.009   0.031  22.237  0.00  0.00    +0.123 A 
ENDBRANCH  14  16
ENDBRANCH   7  14
BRANCH  15  17
ATOM     17  C   UNL     1      -5.062   0.231  24.360  0.00  0.00    +0.324 C 
BRANCH  17   5
ATOM      5  O   UNL     1      -4.659  -0.650  25.381  0.00  0.00    -0.483 OA
BRANCH   5  23
ATOM     23  C   UNL     1      -3.440  -1.271  25.234  0.00  0.00    +0.121 A 
ATOM     24  C   UNL     1      -2.358  -0.884  26.025  0.00  0.00    +0.045 A 
ATOM     25  C   UNL     1      -3.285  -2.289  24.293  0.00  0.00    +0.045 A 
ATOM     26  C   UNL     1      -1.122  -1.513  25.875  0.00  0.00    +0.004 A 
ATOM     27  C   UNL     1      -2.049  -2.919  24.142  0.00  0.00    +0.004 A 
ATOM     28  C   UNL     1      -0.968  -2.531  24.934  0.00  0.00    +0.000 A 
ENDBRANCH   5  23
ENDBRANCH  17   5
ENDBRANCH  15  17
TORSDOF 5
ENDMDL
MODEL 6
REMARK VINA RESULT:      -2.1     14.386     16.277
REMARK  Name = 56775278
REMARK  5 active torsions:
REMARK  status: ('A' for Active; 'I' for Inactive)
REMARK    1  A    between atoms: O_5  and  C_17
REMARK    2  A    between atoms: O_5  and  C_23
REMARK    3  A    between atoms: N_7  and  C_14
REMARK    4  A    between atoms: C_14  and  C_16
REMARK    5  A    between atoms: C_15  and  C_17
REMARK                            x       y       z     vdW  Elec       q    Type
REMARK                         _______ _______ _______ _____ _____    ______ ____
ROOT
ATOM      2  O   UNL     1      -1.085   3.962  24.216  0.00  0.00    -0.364 OA
ATOM      3  O   UNL     1       0.939   1.059  23.842  0.00  0.00    -0.273 OA
ATOM      4  O   UNL     1      -5.419   4.863  25.948  0.00  0.00    -0.272 OA
ATOM      6  N   UNL     1      -3.512   3.559  25.923  0.00  0.00    -0.294 N 
ATOM      7  N   UNL     1      -0.412   1.668  25.636  0.00  0.00    -0.288 N 
ATOM      8  C   UNL     1      -1.358   2.624  26.198  0.00  0.00    +0.124 C 
ATOM      9  C   UNL     1      -1.222   4.036  25.633  0.00  0.00    +0.158 C 
ATOM     10  C   UNL     1      -2.817   2.276  25.886  0.00  0.00    +0.133 C 
ATOM     11  C   UNL     1      -2.568   4.671  25.955  0.00  0.00    +0.141 C 
ATOM     12  C   UNL     1       0.237   1.888  24.423  0.00  0.00    +0.242 C 
ATOM     13  C   UNL     1       0.105   3.294  23.863  0.00  0.00    +0.256 C 
ATOM     15  C   UNL     1      -4.881   3.755  25.916  0.00  0.00    +0.253 C 
ENDROOT
BRANCH   7  14
ATOM     14  C   UNL     1      -0.289   0.385  26.313  0.00  0.00    +0.143 C 
BRANCH  14  16
ATOM      1  F   UNL     1      -3.856  -3.448  24.243  0.00  0.00    -0.205 F 
ATOM     16  C   UNL     1      -1.241  -0.636  25.761  0.00  0.00    -0.030 A 
ATOM     18  C   UNL     1      -2.526  -0.751  26.291  0.00  0.00    +0.008 A 
ATOM     19  C   UNL     1      -0.838  -1.471  24.718  0.00  0.00    +0.008 A 
ATOM     20  C   UNL     1      -3.410  -1.701  25.778  0.00  0.00    +0.038 A 
ATOM     21  C   UNL     1      -1.722  -2.421  24.205  0.00  0.00    +0.038 A 
ATOM     22  C   UNL     1      -3.008  -2.536  24.734  0.00  0.00    +0.123 A 
ENDBRANCH  14  16
ENDBRANCH   7  14
BRANCH  15  17
ATOM     17  C   UNL     1      -5.718   2.501  25.872  0.00  0.00    +0.324 C 
BRANCH  17   5
ATOM      5  O   UNL     1      -5.930   2.206  24.513  0.00  0.00    -0.483 OA
BRANCH   5  23
ATOM     23  C   UNL     1      -4.816   2.045  23.720  0.00  0.00    +0.121 A 
ATOM     24  C   UNL     1      -4.151   0.819  23.690  0.00  0.00    +0.045 A 
ATOM     25  C   UNL     1      -4.351   3.109  22.947  0.00  0.00    +0.045 A 
ATOM     26  C   UNL     1      -3.022   0.657  22.887  0.00  0.00    +0.004 A 
ATOM     27  C   UNL     1      -3.221   2.948  22.144  0.00  0.00    +0.004 A 
ATOM     28  C   UNL     1      -2.557   1.721  22.115  0.00  0.00    +0.000 A 
ENDBRANCH   5  23
ENDBRANCH  17   5
ENDBRANCH  15  17
TORSDOF 5
ENDMDL
MODEL 7
REMARK VINA RESULT:      -2.0     14.180     15.995
REMARK  Name = 56775278
REMARK  5 active torsions:
REMARK  status: ('A' for Active; 'I' for Inactive)
REMARK    1  A    between atoms: O_5  and  C_17
REMARK    2  A    between atoms: O_5  and  C_23
REMARK    3  A    between atoms: N_7  and  C_14
REMARK    4  A    between atoms: C_14  and  C_16
REMARK    5  A    between atoms: C_15  and  C_17
REMARK                            x       y       z     vdW  Elec       q    Type
REMARK                         _______ _______ _______ _____ _____    ______ ____
ROOT
ATOM      2  O   UNL     1       0.767   1.917  23.860  0.00  0.00    -0.364 OA
ATOM      3  O   UNL     1      -0.270  -1.486  23.937  0.00  0.00    -0.273 OA
ATOM      4  O   UNL     1      -1.258   6.094  24.884  0.00  0.00    -0.272 OA
ATOM      6  N   UNL     1      -1.122   3.810  25.207  0.00  0.00    -0.294 N 
ATOM      7  N   UNL     1      -0.706   0.202  25.477  0.00  0.00    -0.288 N 
ATOM      8  C   UNL     1      -0.558   1.604  25.844  0.00  0.00    +0.124 C 
ATOM      9  C   UNL     1       0.670   2.278  25.235  0.00  0.00    +0.158 C 
ATOM     10  C   UNL     1      -1.708   2.480  25.339  0.00  0.00    +0.133 C 
ATOM     11  C   UNL     1       0.332   3.761  25.322  0.00  0.00    +0.141 C 
ATOM     12  C   UNL     1      -0.074  -0.348  24.364  0.00  0.00    +0.242 C 
ATOM     13  C   UNL     1       0.984   0.531  23.720  0.00  0.00    +0.256 C 
ATOM     15  C   UNL     1      -1.803   4.994  24.989  0.00  0.00    +0.253 C 
ENDROOT
BRANCH   7  14
ATOM     14  C   UNL     1      -1.678  -0.578  26.230  0.00  0.00    +0.143 C 
BRANCH  14  16
ATOM      1  F   UNL     1      -5.350  -3.198  22.859  0.00  0.00    -0.205 F 
ATOM     16  C   UNL     1      -2.657  -1.276  25.330  0.00  0.00    -0.030 A 
ATOM     18  C   UNL     1      -3.496  -0.532  24.502  0.00  0.00    +0.008 A 
ATOM     19  C   UNL     1      -2.727  -2.670  25.325  0.00  0.00    +0.008 A 
ATOM     20  C   UNL     1      -4.406  -1.181  23.666  0.00  0.00    +0.038 A 
ATOM     21  C   UNL     1      -3.637  -3.318  24.489  0.00  0.00    +0.038 A 
ATOM     22  C   UNL     1      -4.476  -2.575  23.660  0.00  0.00    +0.123 A 
ENDBRANCH  14  16
ENDBRANCH   7  14
BRANCH  15  17
ATOM     17  C   UNL     1      -3.303   4.871  24.886  0.00  0.00    +0.324 C 
BRANCH  17   5
ATOM      5  O   UNL     1      -3.719   4.088  25.979  0.00  0.00    -0.483 OA
BRANCH   5  23
ATOM     23  C   UNL     1      -4.721   3.173  25.754  0.00  0.00    +0.121 A 
ATOM     24  C   UNL     1      -5.017   2.766  24.453  0.00  0.00    +0.045 A 
ATOM     25  C   UNL     1      -5.442   2.650  26.828  0.00  0.00    +0.045 A 
ATOM     26  C   UNL     1      -6.033   1.838  24.225  0.00  0.00    +0.004 A 
ATOM     27  C   UNL     1      -6.459   1.722  26.601  0.00  0.00    +0.004 A 
ATOM     28  C   UNL     1      -6.754   1.316  25.300  0.00  0.00    +0.000 A 
ENDBRANCH   5  23
ENDBRANCH  17   5
ENDBRANCH  15  17
TORSDOF 5
ENDMDL
MODEL 8
REMARK VINA RESULT:      -1.8     13.966     15.992
REMARK  Name = 56775278
REMARK  5 active torsions:
REMARK  status: ('A' for Active; 'I' for Inactive)
REMARK    1  A    between atoms: O_5  and  C_17
REMARK    2  A    between atoms: O_5  and  C_23
REMARK    3  A    between atoms: N_7  and  C_14
REMARK    4  A    between atoms: C_14  and  C_16
REMARK    5  A    between atoms: C_15  and  C_17
REMARK                            x       y       z     vdW  Elec       q    Type
REMARK                         _______ _______ _______ _____ _____    ______ ____
ROOT
ATOM      2  O   UNL     1      -3.621  -1.836  24.721  0.00  0.00    -0.364 OA
ATOM      3  O   UNL     1      -0.213  -1.933  25.740  0.00  0.00    -0.273 OA
ATOM      4  O   UNL     1      -7.081   1.423  24.787  0.00  0.00    -0.272 OA
ATOM      6  N   UNL     1      -4.830   0.903  24.725  0.00  0.00    -0.294 N 
ATOM      7  N   UNL     1      -1.364  -0.214  24.674  0.00  0.00    -0.288 N 
ATOM      8  C   UNL     1      -2.627   0.277  24.139  0.00  0.00    +0.124 C 
ATOM      9  C   UNL     1      -3.591  -0.829  23.713  0.00  0.00    +0.158 C 
ATOM     10  C   UNL     1      -3.448   1.063  25.166  0.00  0.00    +0.133 C 
ATOM     11  C   UNL     1      -4.942  -0.124  23.695  0.00  0.00    +0.141 C 
ATOM     12  C   UNL     1      -1.214  -1.511  25.159  0.00  0.00    +0.242 C 
ATOM     13  C   UNL     1      -2.362  -2.457  24.846  0.00  0.00    +0.256 C 
ATOM     15  C   UNL     1      -5.931   1.597  25.195  0.00  0.00    +0.253 C 
ENDROOT
BRANCH   7  14
ATOM     14  C   UNL     1      -0.294   0.759  24.838  0.00  0.00    +0.143 C 
BRANCH  14  16
ATOM      1  F   UNL     1       3.743   0.132  20.963  0.00  0.00    -0.205 F 
ATOM     16  C   UNL     1       0.782   0.592  23.804  0.00  0.00    -0.030 A 
ATOM     18  C   UNL     1       0.613  -0.320  22.763  0.00  0.00    +0.008 A 
ATOM     19  C   UNL     1       1.951   1.349  23.887  0.00  0.00    +0.008 A 
ATOM     20  C   UNL     1       1.613  -0.475  21.802  0.00  0.00    +0.038 A 
ATOM     21  C   UNL     1       2.951   1.194  22.926  0.00  0.00    +0.038 A 
ATOM     22  C   UNL     1       2.782   0.282  21.884  0.00  0.00    +0.123 A 
ENDBRANCH  14  16
ENDBRANCH   7  14
BRANCH  15  17
ATOM     17  C   UNL     1      -5.646   2.620  26.266  0.00  0.00    +0.324 C 
BRANCH  17   5
ATOM      5  O   UNL     1      -5.246   3.796  25.604  0.00  0.00    -0.483 OA
BRANCH   5  23
ATOM     23  C   UNL     1      -3.898   3.978  25.401  0.00  0.00    +0.121 A 
ATOM     24  C   UNL     1      -3.412   4.230  24.117  0.00  0.00    +0.045 A 
ATOM     25  C   UNL     1      -3.015   3.911  26.478  0.00  0.00    +0.045 A 
ATOM     26  C   UNL     1      -2.045   4.415  23.911  0.00  0.00    +0.004 A 
ATOM     27  C   UNL     1      -1.647   4.096  26.273  0.00  0.00    +0.004 A 
ATOM     28  C   UNL     1      -1.162   4.347  24.989  0.00  0.00    +0.000 A 
ENDBRANCH   5  23
ENDBRANCH  17   5
ENDBRANCH  15  17
TORSDOF 5
ENDMDL
MODEL 9
REMARK VINA RESULT:      -1.2     13.579     15.364
REMARK  Name = 56775278
REMARK  5 active torsions:
REMARK  status: ('A' for Active; 'I' for Inactive)
REMARK    1  A    between atoms: O_5  and  C_17
REMARK    2  A    between atoms: O_5  and  C_23
REMARK    3  A    between atoms: N_7  and  C_14
REMARK    4  A    between atoms: C_14  and  C_16
REMARK    5  A    between atoms: C_15  and  C_17
REMARK                            x       y       z     vdW  Elec       q    Type
REMARK                         _______ _______ _______ _____ _____    ______ ____
ROOT
ATOM      2  O   UNL     1      -1.210   1.400  26.081  0.00  0.00    -0.364 OA
ATOM      3  O   UNL     1       0.596   3.105  23.533  0.00  0.00    -0.273 OA
ATOM      4  O   UNL     1      -3.717  -2.631  26.330  0.00  0.00    -0.272 OA
ATOM      6  N   UNL     1      -2.036  -1.384  25.352  0.00  0.00    -0.294 N 
ATOM      7  N   UNL     1       0.515   0.823  23.979  0.00  0.00    -0.288 N 
ATOM      8  C   UNL     1      -0.036  -0.256  24.788  0.00  0.00    +0.124 C 
ATOM      9  C   UNL     1      -0.480   0.180  26.183  0.00  0.00    +0.158 C 
ATOM     10  C   UNL     1      -1.317  -0.852  24.198  0.00  0.00    +0.133 C 
ATOM     11  C   UNL     1      -1.442  -0.924  26.602  0.00  0.00    +0.141 C 
ATOM     12  C   UNL     1       0.266   2.165  24.257  0.00  0.00    +0.242 C 
ATOM     13  C   UNL     1      -0.385   2.438  25.602  0.00  0.00    +0.256 C 
ATOM     15  C   UNL     1      -3.146  -2.209  25.324  0.00  0.00    +0.253 C 
ENDROOT
BRANCH   7  14
ATOM     14  C   UNL     1       1.212   0.443  22.758  0.00  0.00    +0.143 C 
BRANCH  14  16
ATOM      1  F   UNL     1       6.702  -0.435  23.651  0.00  0.00    -0.205 F 
ATOM     16  C   UNL     1       2.676   0.208  22.996  0.00  0.00    -0.030 A 
ATOM     18  C   UNL     1       3.119  -1.036  23.444  0.00  0.00    +0.008 A 
ATOM     19  C   UNL     1       3.592   1.235  22.769  0.00  0.00    +0.008 A 
ATOM     20  C   UNL     1       4.479  -1.254  23.665  0.00  0.00    +0.038 A 
ATOM     21  C   UNL     1       4.952   1.018  22.990  0.00  0.00    +0.038 A 
ATOM     22  C   UNL     1       5.396  -0.226  23.438  0.00  0.00    +0.123 A 
ENDBRANCH  14  16
ENDBRANCH   7  14
BRANCH  15  17
ATOM     17  C   UNL     1      -3.641  -2.587  23.950  0.00  0.00    +0.324 C 
BRANCH  17   5
ATOM      5  O   UNL     1      -4.684  -1.694  23.638  0.00  0.00    -0.483 OA
BRANCH   5  23
ATOM     23  C   UNL     1      -4.463  -0.357  23.879  0.00  0.00    +0.121 A 
ATOM     24  C   UNL     1      -5.101   0.274  24.947  0.00  0.00    +0.045 A 
ATOM     25  C   UNL     1      -3.602   0.367  23.055  0.00  0.00    +0.045 A 
ATOM     26  C   UNL     1      -4.877   1.629  25.192  0.00  0.00    +0.004 A 
ATOM     27  C   UNL     1      -3.378   1.723  23.299  0.00  0.00    +0.004 A 
ATOM     28  C   UNL     1      -4.016   2.354  24.367  0.00  0.00    +0.000 A 
ENDBRANCH   5  23
ENDBRANCH  17   5
ENDBRANCH  15  17
TORSDOF 5
ENDMDL
MODEL 10
REMARK VINA RESULT:      -1.2     14.255     17.062
REMARK  Name = 56775278
REMARK  5 active torsions:
REMARK  status: ('A' for Active; 'I' for Inactive)
REMARK    1  A    between atoms: O_5  and  C_17
REMARK    2  A    between atoms: O_5  and  C_23
REMARK    3  A    between atoms: N_7  and  C_14
REMARK    4  A    between atoms: C_14  and  C_16
REMARK    5  A    between atoms: C_15  and  C_17
REMARK                            x       y       z     vdW  Elec       q    Type
REMARK                         _______ _______ _______ _____ _____    ______ ____
ROOT
ATOM      2  O   UNL     1      -4.467  -0.736  24.046  0.00  0.00    -0.364 OA
ATOM      3  O   UNL     1      -6.290   2.275  24.569  0.00  0.00    -0.273 OA
ATOM      4  O   UNL     1       0.133  -1.901  23.771  0.00  0.00    -0.272 OA
ATOM      6  N   UNL     1      -1.527  -0.500  24.559  0.00  0.00    -0.294 N 
ATOM      7  N   UNL     1      -4.342   1.554  25.617  0.00  0.00    -0.288 N 
ATOM      8  C   UNL     1      -3.304   0.537  25.724  0.00  0.00    +0.124 C 
ATOM      9  C   UNL     1      -3.747  -0.852  25.270  0.00  0.00    +0.158 C 
ATOM     10  C   UNL     1      -2.098   0.817  24.822  0.00  0.00    +0.133 C 
ATOM     11  C   UNL     1      -2.429  -1.563  24.989  0.00  0.00    +0.141 C 
ATOM     12  C   UNL     1      -5.456   1.398  24.795  0.00  0.00    +0.242 C 
ATOM     13  C   UNL     1      -5.655   0.001  24.232  0.00  0.00    +0.256 C 
ATOM     15  C   UNL     1      -0.303  -0.767  23.971  0.00  0.00    +0.253 C 
ENDROOT
BRANCH   7  14
ATOM     14  C   UNL     1      -4.094   2.824  26.284  0.00  0.00    +0.143 C 
BRANCH  14  16
ATOM      1  F   UNL     1       0.280   5.568  24.036  0.00  0.00    -0.205 F 
ATOM     16  C   UNL     1      -2.926   3.555  25.684  0.00  0.00    -0.030 A 
ATOM     18  C   UNL     1      -1.635   3.307  26.148  0.00  0.00    +0.008 A 
ATOM     19  C   UNL     1      -3.136   4.483  24.664  0.00  0.00    +0.008 A 
ATOM     20  C   UNL     1      -0.551   3.986  25.591  0.00  0.00    +0.038 A 
ATOM     21  C   UNL     1      -2.052   5.163  24.107  0.00  0.00    +0.038 A 
ATOM     22  C   UNL     1      -0.760   4.914  24.570  0.00  0.00    +0.123 A 
ENDBRANCH  14  16
ENDBRANCH   7  14
BRANCH  15  17
ATOM     17  C   UNL     1       0.506   0.443  23.577  0.00  0.00    +0.324 C 
BRANCH  17   5
ATOM      5  O   UNL     1       1.418   0.015  22.595  0.00  0.00    -0.483 OA
BRANCH   5  23
ATOM     23  C   UNL     1       2.746  -0.051  22.952  0.00  0.00    +0.121 A 
ATOM     24  C   UNL     1       3.582   1.044  22.736  0.00  0.00    +0.045 A 
ATOM     25  C   UNL     1       3.255  -1.213  23.531  0.00  0.00    +0.045 A 
ATOM     26  C   UNL     1       4.928   0.978  23.098  0.00  0.00    +0.004 A 
ATOM     27  C   UNL     1       4.601  -1.281  23.893  0.00  0.00    +0.004 A 
ATOM     28  C   UNL     1       5.437  -0.185  23.677  0.00  0.00    +0.000 A 
ENDBRANCH   5  23
ENDBRANCH  17   5
ENDBRANCH  15  17
TORSDOF 5
ENDMDL
