MODEL 1
REMARK VINA RESULT:       1.6      0.000      0.000
REMARK  Name = 38029183
REMARK  12 active torsions:
REMARK  status: ('A' for Active; 'I' for Inactive)
REMARK    1  A    between atoms: N_4  and  C_15
REMARK    2  A    between atoms: N_5  and  C_22
REMARK    3  A    between atoms: N_5  and  C_23
REMARK    4  A    between atoms: N_6  and  C_25
REMARK    5  A    between atoms: C_8  and  C_12
REMARK    6  A    between atoms: C_9  and  C_15
REMARK    7  A    between atoms: C_11  and  C_16
REMARK    8  A    between atoms: C_12  and  C_17
REMARK    9  A    between atoms: C_12  and  C_18
REMARK   10  A    between atoms: C_13  and  C_19
REMARK   11  A    between atoms: C_16  and  C_20
REMARK   12  A    between atoms: C_22  and  C_24
REMARK                            x       y       z     vdW  Elec       q    Type
REMARK                         _______ _______ _______ _____ _____    ______ ____
ROOT
ATOM      8  C   UNL     1      -4.360  -0.696  24.540  0.00  0.00    +0.000 C 
ATOM      9  C   UNL     1      -3.102  -0.240  23.758  0.00  0.00    +0.032 C 
ATOM     10  C   UNL     1      -5.630  -0.115  23.898  0.00  0.00    +0.012 C 
ATOM     11  C   UNL     1      -5.611   1.424  23.860  0.00  0.00    +0.023 C 
ATOM     13  C   UNL     1      -4.290   1.959  23.347  0.00  0.00    -0.073 C 
ATOM     14  C   UNL     1      -3.182   1.197  23.297  0.00  0.00    -0.022 C 
ATOM     19  C   UNL     1      -4.279   3.378  22.851  0.00  0.00    +0.039 C 
ENDROOT
BRANCH   8  12
ATOM     12  C   UNL     1      -4.464  -2.223  24.607  0.00  0.00    -0.013 C 
ATOM     17  C   UNL     1      -3.361  -2.794  25.491  0.00  0.00    +0.007 C 
ATOM     18  C   UNL     1      -4.400  -2.822  23.206  0.00  0.00    +0.007 C 
ENDBRANCH   8  12
BRANCH   9  15
ATOM     15  C   UNL     1      -1.831  -0.438  24.591  0.00  0.00    +0.113 C 
BRANCH  15   4
ATOM      3  O   UNL     1       0.887  -1.251  24.989  0.00  0.00    -0.253 OA
ATOM      4  N   UNL     1      -0.684   0.044  23.889  0.00  0.00    -0.299 N 
ATOM      6  N   UNL     1       1.540   0.244  23.301  0.00  0.00    -0.269 N 
ATOM     21  C   UNL     1       0.627  -0.403  24.138  0.00  0.00    +0.304 C 
ATOM     35  H   UNL     1      -0.824   0.695  23.122  0.00  0.00    +0.150 HD
ATOM     36  H   UNL     1       1.158   0.925  22.649  0.00  0.00    +0.156 HD
BRANCH   6  25
ATOM      1  F   UNL     1       5.448  -2.443  24.047  0.00  0.00    -0.205 F 
ATOM     25  C   UNL     1       2.943   0.070  23.246  0.00  0.00    +0.037 A 
ATOM     28  C   UNL     1       3.515  -1.124  23.682  0.00  0.00    +0.061 A 
ATOM     29  C   UNL     1       3.753   1.094  22.755  0.00  0.00    +0.023 A 
ATOM     32  C   UNL     1       4.899  -1.296  23.629  0.00  0.00    +0.125 A 
ATOM     33  C   UNL     1       5.137   0.922  22.702  0.00  0.00    +0.005 A 
ATOM     34  C   UNL     1       5.710  -0.272  23.138  0.00  0.00    +0.038 A 
ENDBRANCH   6  25
ENDBRANCH  15   4
ENDBRANCH   9  15
BRANCH  11  16
ATOM     16  C   UNL     1      -5.947   2.015  25.233  0.00  0.00    +0.103 C 
BRANCH  16  20
ATOM      2  O   UNL     1      -3.934   1.643  26.481  0.00  0.00    -0.276 OA
ATOM      5  N   UNL     1      -4.516   3.850  26.064  0.00  0.00    -0.300 N 
ATOM     20  C   UNL     1      -4.707   2.467  25.983  0.00  0.00    +0.216 C 
ATOM     23  C   UNL     1      -5.444   4.804  25.469  0.00  0.00    +0.132 C 
BRANCH   5  22
ATOM     22  C   UNL     1      -3.372   4.443  26.752  0.00  0.00    +0.144 C 
BRANCH  22  24
ATOM      7  N   UNL     1      -0.192   2.816  25.509  0.00  0.00    -0.263 NA
ATOM     24  C   UNL     1      -2.091   4.231  25.998  0.00  0.00    -0.012 A 
ATOM     26  C   UNL     1      -1.608   5.196  25.120  0.00  0.00    +0.008 A 
ATOM     27  C   UNL     1      -1.352   3.069  26.155  0.00  0.00    +0.115 A 
ATOM     30  C   UNL     1      -0.418   4.972  24.438  0.00  0.00    +0.020 A 
ATOM     31  C   UNL     1       0.246   3.777  24.665  0.00  0.00    +0.111 A 
ENDBRANCH  22  24
ENDBRANCH   5  22
ENDBRANCH  16  20
ENDBRANCH  11  16
TORSDOF 8
ENDMDL
MODEL 2
REMARK VINA RESULT:       1.6      1.854      4.840
REMARK  Name = 38029183
REMARK  12 active torsions:
REMARK  status: ('A' for Active; 'I' for Inactive)
REMARK    1  A    between atoms: N_4  and  C_15
REMARK    2  A    between atoms: N_5  and  C_22
REMARK    3  A    between atoms: N_5  and  C_23
REMARK    4  A    between atoms: N_6  and  C_25
REMARK    5  A    between atoms: C_8  and  C_12
REMARK    6  A    between atoms: C_9  and  C_15
REMARK    7  A    between atoms: C_11  and  C_16
REMARK    8  A    between atoms: C_12  and  C_17
REMARK    9  A    between atoms: C_12  and  C_18
REMARK   10  A    between atoms: C_13  and  C_19
REMARK   11  A    between atoms: C_16  and  C_20
REMARK   12  A    between atoms: C_22  and  C_24
REMARK                            x       y       z     vdW  Elec       q    Type
REMARK                         _______ _______ _______ _____ _____    ______ ____
ROOT
ATOM      8  C   UNL     1      -2.376   4.295  25.090  0.00  0.00    +0.000 C 
ATOM      9  C   UNL     1      -2.519   3.869  26.572  0.00  0.00    +0.032 C 
ATOM     10  C   UNL     1      -3.677   4.942  24.590  0.00  0.00    +0.012 C 
ATOM     11  C   UNL     1      -4.883   3.992  24.710  0.00  0.00    +0.023 C 
ATOM     13  C   UNL     1      -4.940   3.323  26.068  0.00  0.00    -0.073 C 
ATOM     14  C   UNL     1      -3.877   3.289  26.892  0.00  0.00    -0.022 C 
ATOM     19  C   UNL     1      -6.259   2.731  26.477  0.00  0.00    +0.039 C 
ENDROOT
BRANCH   8  12
ATOM     12  C   UNL     1      -1.204   5.261  24.886  0.00  0.00    -0.013 C 
ATOM     17  C   UNL     1      -1.712   6.694  24.764  0.00  0.00    +0.007 C 
ATOM     18  C   UNL     1      -0.397   4.866  23.654  0.00  0.00    +0.007 C 
ENDBRANCH   8  12
BRANCH   9  15
ATOM     15  C   UNL     1      -1.430   2.866  26.968  0.00  0.00    +0.113 C 
BRANCH  15   4
ATOM      3  O   UNL     1       1.068   2.648  25.583  0.00  0.00    -0.253 OA
ATOM      4  N   UNL     1      -1.130   1.988  25.881  0.00  0.00    -0.299 N 
ATOM      6  N   UNL     1       0.124   0.985  24.221  0.00  0.00    -0.269 N 
ATOM     21  C   UNL     1       0.125   1.935  25.247  0.00  0.00    +0.304 C 
ATOM     35  H   UNL     1      -1.836   1.319  25.590  0.00  0.00    +0.150 HD
ATOM     36  H   UNL     1      -0.746   0.478  24.071  0.00  0.00    +0.156 HD
BRANCH   6  25
ATOM      1  F   UNL     1       4.760   1.223  23.001  0.00  0.00    -0.205 F 
ATOM     25  C   UNL     1       1.188   0.638  23.357  0.00  0.00    +0.037 A 
ATOM     28  C   UNL     1       2.475   1.111  23.610  0.00  0.00    +0.061 A 
ATOM     29  C   UNL     1       0.949  -0.179  22.251  0.00  0.00    +0.023 A 
ATOM     32  C   UNL     1       3.525   0.769  22.758  0.00  0.00    +0.125 A 
ATOM     33  C   UNL     1       1.999  -0.520  21.399  0.00  0.00    +0.005 A 
ATOM     34  C   UNL     1       3.287  -0.047  21.652  0.00  0.00    +0.038 A 
ENDBRANCH   6  25
ENDBRANCH  15   4
ENDBRANCH   9  15
BRANCH  11  16
ATOM     16  C   UNL     1      -4.882   2.951  23.585  0.00  0.00    +0.103 C 
BRANCH  16  20
ATOM      2  O   UNL     1      -6.140   1.252  24.714  0.00  0.00    -0.276 OA
ATOM      5  N   UNL     1      -4.082   0.628  23.843  0.00  0.00    -0.300 N 
ATOM     20  C   UNL     1      -5.107   1.543  24.104  0.00  0.00    +0.216 C 
ATOM     23  C   UNL     1      -2.871   0.996  23.121  0.00  0.00    +0.132 C 
BRANCH   5  22
ATOM     22  C   UNL     1      -4.148  -0.765  24.277  0.00  0.00    +0.144 C 
BRANCH  22  24
ATOM      7  N   UNL     1      -1.043  -1.134  26.405  0.00  0.00    -0.263 NA
ATOM     24  C   UNL     1      -2.820  -1.263  24.770  0.00  0.00    -0.012 A 
ATOM     26  C   UNL     1      -2.138  -2.271  24.097  0.00  0.00    +0.008 A 
ATOM     27  C   UNL     1      -2.235  -0.733  25.909  0.00  0.00    +0.115 A 
ATOM     30  C   UNL     1      -0.909  -2.710  24.576  0.00  0.00    +0.020 A 
ATOM     31  C   UNL     1      -0.410  -2.115  25.724  0.00  0.00    +0.111 A 
ENDBRANCH  22  24
ENDBRANCH   5  22
ENDBRANCH  16  20
ENDBRANCH  11  16
TORSDOF 8
ENDMDL
MODEL 3
REMARK VINA RESULT:       1.9      2.902      5.309
REMARK  Name = 38029183
REMARK  12 active torsions:
REMARK  status: ('A' for Active; 'I' for Inactive)
REMARK    1  A    between atoms: N_4  and  C_15
REMARK    2  A    between atoms: N_5  and  C_22
REMARK    3  A    between atoms: N_5  and  C_23
REMARK    4  A    between atoms: N_6  and  C_25
REMARK    5  A    between atoms: C_8  and  C_12
REMARK    6  A    between atoms: C_9  and  C_15
REMARK    7  A    between atoms: C_11  and  C_16
REMARK    8  A    between atoms: C_12  and  C_17
REMARK    9  A    between atoms: C_12  and  C_18
REMARK   10  A    between atoms: C_13  and  C_19
REMARK   11  A    between atoms: C_16  and  C_20
REMARK   12  A    between atoms: C_22  and  C_24
REMARK                            x       y       z     vdW  Elec       q    Type
REMARK                         _______ _______ _______ _____ _____    ______ ____
ROOT
ATOM      8  C   UNL     1      -3.360   2.021  23.672  0.00  0.00    +0.000 C 
ATOM      9  C   UNL     1      -4.015   3.271  24.309  0.00  0.00    +0.032 C 
ATOM     10  C   UNL     1      -4.408   0.918  23.453  0.00  0.00    +0.012 C 
ATOM     11  C   UNL     1      -5.091   0.495  24.767  0.00  0.00    +0.023 C 
ATOM     13  C   UNL     1      -5.530   1.693  25.585  0.00  0.00    -0.073 C 
ATOM     14  C   UNL     1      -5.048   2.928  25.357  0.00  0.00    -0.022 C 
ATOM     19  C   UNL     1      -6.569   1.447  26.642  0.00  0.00    +0.039 C 
ENDROOT
BRANCH   8  12
ATOM     12  C   UNL     1      -2.672   2.353  22.343  0.00  0.00    -0.013 C 
ATOM     17  C   UNL     1      -3.599   3.178  21.456  0.00  0.00    +0.007 C 
ATOM     18  C   UNL     1      -2.241   1.074  21.633  0.00  0.00    +0.007 C 
ENDBRANCH   8  12
BRANCH   9  15
ATOM     15  C   UNL     1      -2.959   4.200  24.918  0.00  0.00    +0.113 C 
BRANCH  15   4
ATOM      3  O   UNL     1      -0.177   4.147  25.595  0.00  0.00    -0.253 OA
ATOM      4  N   UNL     1      -2.374   3.609  26.080  0.00  0.00    -0.299 N 
ATOM      6  N   UNL     1      -0.715   2.970  27.553  0.00  0.00    -0.269 N 
ATOM     21  C   UNL     1      -0.992   3.622  26.348  0.00  0.00    +0.304 C 
ATOM     35  H   UNL     1      -2.989   3.216  26.786  0.00  0.00    +0.150 HD
ATOM     36  H   UNL     1      -1.510   2.586  28.058  0.00  0.00    +0.156 HD
BRANCH   6  25
ATOM      1  F   UNL     1       1.934   1.654  31.335  0.00  0.00    -0.205 F 
ATOM     25  C   UNL     1       0.546   2.774  28.165  0.00  0.00    +0.037 A 
ATOM     28  C   UNL     1       0.620   2.301  29.474  0.00  0.00    +0.061 A 
ATOM     29  C   UNL     1       1.715   3.054  27.456  0.00  0.00    +0.023 A 
ATOM     32  C   UNL     1       1.862   2.108  30.078  0.00  0.00    +0.125 A 
ATOM     33  C   UNL     1       2.957   2.861  28.060  0.00  0.00    +0.005 A 
ATOM     34  C   UNL     1       3.032   2.388  29.370  0.00  0.00    +0.038 A 
ENDBRANCH   6  25
ENDBRANCH  15   4
ENDBRANCH   9  15
BRANCH  11  16
ATOM     16  C   UNL     1      -4.185  -0.428  25.588  0.00  0.00    +0.103 C 
BRANCH  16  20
ATOM      2  O   UNL     1      -3.533  -1.914  23.824  0.00  0.00    -0.276 OA
ATOM      5  N   UNL     1      -1.826  -0.899  25.023  0.00  0.00    -0.300 N 
ATOM     20  C   UNL     1      -3.169  -1.153  24.725  0.00  0.00    +0.216 C 
ATOM     23  C   UNL     1      -1.420   0.004  26.093  0.00  0.00    +0.132 C 
BRANCH   5  22
ATOM     22  C   UNL     1      -0.729  -1.519  24.284  0.00  0.00    +0.144 C 
BRANCH  22  24
ATOM      7  N   UNL     1       2.320  -0.024  22.619  0.00  0.00    -0.263 NA
ATOM     24  C   UNL     1       0.290  -0.510  23.839  0.00  0.00    -0.012 A 
ATOM     26  C   UNL     1       0.181   0.828  24.205  0.00  0.00    +0.008 A 
ATOM     27  C   UNL     1       1.368  -0.881  23.051  0.00  0.00    +0.115 A 
ATOM     30  C   UNL     1       1.141   1.739  23.779  0.00  0.00    +0.020 A 
ATOM     31  C   UNL     1       2.181   1.266  22.995  0.00  0.00    +0.111 A 
ENDBRANCH  22  24
ENDBRANCH   5  22
ENDBRANCH  16  20
ENDBRANCH  11  16
TORSDOF 8
ENDMDL
MODEL 4
REMARK VINA RESULT:       2.4      1.510      3.182
REMARK  Name = 38029183
REMARK  12 active torsions:
REMARK  status: ('A' for Active; 'I' for Inactive)
REMARK    1  A    between atoms: N_4  and  C_15
REMARK    2  A    between atoms: N_5  and  C_22
REMARK    3  A    between atoms: N_5  and  C_23
REMARK    4  A    between atoms: N_6  and  C_25
REMARK    5  A    between atoms: C_8  and  C_12
REMARK    6  A    between atoms: C_9  and  C_15
REMARK    7  A    between atoms: C_11  and  C_16
REMARK    8  A    between atoms: C_12  and  C_17
REMARK    9  A    between atoms: C_12  and  C_18
REMARK   10  A    between atoms: C_13  and  C_19
REMARK   11  A    between atoms: C_16  and  C_20
REMARK   12  A    between atoms: C_22  and  C_24
REMARK                            x       y       z     vdW  Elec       q    Type
REMARK                         _______ _______ _______ _____ _____    ______ ____
ROOT
ATOM      8  C   UNL     1      -2.165   0.890  24.749  0.00  0.00    +0.000 C 
ATOM      9  C   UNL     1      -1.389  -0.153  23.906  0.00  0.00    +0.032 C 
ATOM     10  C   UNL     1      -2.749   0.232  26.009  0.00  0.00    +0.012 C 
ATOM     11  C   UNL     1      -3.703  -0.929  25.672  0.00  0.00    +0.023 C 
ATOM     13  C   UNL     1      -3.110  -1.862  24.635  0.00  0.00    -0.073 C 
ATOM     14  C   UNL     1      -2.067  -1.502  23.864  0.00  0.00    -0.022 C 
ATOM     19  C   UNL     1      -3.713  -3.235  24.535  0.00  0.00    +0.039 C 
ENDROOT
BRANCH   8  12
ATOM     12  C   UNL     1      -1.278   2.074  25.146  0.00  0.00    -0.013 C 
ATOM     17  C   UNL     1      -0.628   2.690  23.912  0.00  0.00    +0.007 C 
ATOM     18  C   UNL     1      -0.220   1.632  26.152  0.00  0.00    +0.007 C 
ENDBRANCH   8  12
BRANCH   9  15
ATOM     15  C   UNL     1      -1.165   0.350  22.475  0.00  0.00    +0.113 C 
BRANCH  15   4
ATOM      3  O   UNL     1       1.028  -0.695  23.994  0.00  0.00    -0.253 OA
ATOM      4  N   UNL     1       0.226   0.563  22.225  0.00  0.00    -0.299 N 
ATOM      6  N   UNL     1       2.508   0.394  22.533  0.00  0.00    -0.269 N 
ATOM     21  C   UNL     1       1.253   0.016  23.017  0.00  0.00    +0.304 C 
ATOM     35  H   UNL     1       0.495   1.082  21.395  0.00  0.00    +0.150 HD
ATOM     36  H   UNL     1       2.519   0.991  21.709  0.00  0.00    +0.156 HD
BRANCH   6  25
ATOM      1  F   UNL     1       5.561  -2.874  24.278  0.00  0.00    -0.205 F 
ATOM     25  C   UNL     1       3.779   0.049  23.051  0.00  0.00    +0.037 A 
ATOM     28  C   UNL     1       4.049  -1.269  23.416  0.00  0.00    +0.061 A 
ATOM     29  C   UNL     1       4.761   1.030  23.196  0.00  0.00    +0.023 A 
ATOM     32  C   UNL     1       5.301  -1.609  23.928  0.00  0.00    +0.125 A 
ATOM     33  C   UNL     1       6.013   0.689  23.708  0.00  0.00    +0.005 A 
ATOM     34  C   UNL     1       6.284  -0.629  24.073  0.00  0.00    +0.038 A 
ENDBRANCH   6  25
ENDBRANCH  15   4
ENDBRANCH   9  15
BRANCH  11  16
ATOM     16  C   UNL     1      -5.071  -0.407  25.220  0.00  0.00    +0.103 C 
BRANCH  16  20
ATOM      2  O   UNL     1      -4.383   1.378  23.775  0.00  0.00    -0.276 OA
ATOM      5  N   UNL     1      -5.720   1.949  25.583  0.00  0.00    -0.300 N 
ATOM     20  C   UNL     1      -5.016   1.045  24.781  0.00  0.00    +0.216 C 
ATOM     23  C   UNL     1      -6.460   1.533  26.768  0.00  0.00    +0.132 C 
BRANCH   5  22
ATOM     22  C   UNL     1      -5.764   3.381  25.295  0.00  0.00    +0.144 C 
BRANCH  22  24
ATOM      7  N   UNL     1      -2.621   5.186  24.214  0.00  0.00    -0.263 NA
ATOM     24  C   UNL     1      -4.401   4.008  25.351  0.00  0.00    -0.012 A 
ATOM     26  C   UNL     1      -3.659   4.006  26.527  0.00  0.00    +0.008 A 
ATOM     27  C   UNL     1      -3.842   4.606  24.232  0.00  0.00    +0.115 A 
ATOM     30  C   UNL     1      -2.399   4.592  26.548  0.00  0.00    +0.020 A 
ATOM     31  C   UNL     1      -1.930   5.164  25.376  0.00  0.00    +0.111 A 
ENDBRANCH  22  24
ENDBRANCH   5  22
ENDBRANCH  16  20
ENDBRANCH  11  16
TORSDOF 8
ENDMDL
MODEL 5
REMARK VINA RESULT:       2.4      1.640      3.907
REMARK  Name = 38029183
REMARK  12 active torsions:
REMARK  status: ('A' for Active; 'I' for Inactive)
REMARK    1  A    between atoms: N_4  and  C_15
REMARK    2  A    between atoms: N_5  and  C_22
REMARK    3  A    between atoms: N_5  and  C_23
REMARK    4  A    between atoms: N_6  and  C_25
REMARK    5  A    between atoms: C_8  and  C_12
REMARK    6  A    between atoms: C_9  and  C_15
REMARK    7  A    between atoms: C_11  and  C_16
REMARK    8  A    between atoms: C_12  and  C_17
REMARK    9  A    between atoms: C_12  and  C_18
REMARK   10  A    between atoms: C_13  and  C_19
REMARK   11  A    between atoms: C_16  and  C_20
REMARK   12  A    between atoms: C_22  and  C_24
REMARK                            x       y       z     vdW  Elec       q    Type
REMARK                         _______ _______ _______ _____ _____    ______ ____
ROOT
ATOM      8  C   UNL     1      -3.304   2.366  23.634  0.00  0.00    +0.000 C 
ATOM      9  C   UNL     1      -2.690   3.326  24.683  0.00  0.00    +0.032 C 
ATOM     10  C   UNL     1      -4.596   2.962  23.053  0.00  0.00    +0.012 C 
ATOM     11  C   UNL     1      -5.652   3.235  24.141  0.00  0.00    +0.023 C 
ATOM     13  C   UNL     1      -5.056   3.949  25.337  0.00  0.00    -0.073 C 
ATOM     14  C   UNL     1      -3.730   3.990  25.556  0.00  0.00    -0.022 C 
ATOM     19  C   UNL     1      -6.017   4.652  26.253  0.00  0.00    +0.039 C 
ENDROOT
BRANCH   8  12
ATOM     12  C   UNL     1      -2.320   2.058  22.500  0.00  0.00    -0.013 C 
ATOM     17  C   UNL     1      -2.812   2.662  21.190  0.00  0.00    +0.007 C 
ATOM     18  C   UNL     1      -2.123   0.552  22.362  0.00  0.00    +0.007 C 
ENDBRANCH   8  12
BRANCH   9  15
ATOM     15  C   UNL     1      -1.670   2.600  25.567  0.00  0.00    +0.113 C 
BRANCH  15   4
ATOM      3  O   UNL     1       1.180   2.613  25.283  0.00  0.00    -0.253 OA
ATOM      4  N   UNL     1      -0.884   1.691  24.793  0.00  0.00    -0.299 N 
ATOM      6  N   UNL     1       1.011   0.742  23.876  0.00  0.00    -0.269 N 
ATOM     21  C   UNL     1       0.518   1.758  24.700  0.00  0.00    +0.304 C 
ATOM     35  H   UNL     1      -1.352   0.913  24.338  0.00  0.00    +0.150 HD
ATOM     36  H   UNL     1       0.323   0.114  23.466  0.00  0.00    +0.156 HD
BRANCH   6  25
ATOM      1  F   UNL     1       4.807  -2.196  23.838  0.00  0.00    -0.205 F 
ATOM     25  C   UNL     1       2.357   0.476  23.535  0.00  0.00    +0.037 A 
ATOM     28  C   UNL     1       2.929  -0.753  23.861  0.00  0.00    +0.061 A 
ATOM     29  C   UNL     1       3.113   1.444  22.873  0.00  0.00    +0.023 A 
ATOM     32  C   UNL     1       4.257  -1.016  23.525  0.00  0.00    +0.125 A 
ATOM     33  C   UNL     1       4.441   1.181  22.537  0.00  0.00    +0.005 A 
ATOM     34  C   UNL     1       5.013  -0.048  22.863  0.00  0.00    +0.038 A 
ENDBRANCH   6  25
ENDBRANCH  15   4
ENDBRANCH   9  15
BRANCH  11  16
ATOM     16  C   UNL     1      -6.353   1.941  24.567  0.00  0.00    +0.103 C 
BRANCH  16  20
ATOM      2  O   UNL     1      -5.729   1.644  26.862  0.00  0.00    -0.276 OA
ATOM      5  N   UNL     1      -4.857   0.131  25.335  0.00  0.00    -0.300 N 
ATOM     20  C   UNL     1      -5.627   1.240  25.701  0.00  0.00    +0.216 C 
ATOM     23  C   UNL     1      -4.752  -0.328  23.956  0.00  0.00    +0.132 C 
BRANCH   5  22
ATOM     22  C   UNL     1      -4.098  -0.650  26.309  0.00  0.00    +0.144 C 
BRANCH  22  24
ATOM      7  N   UNL     1      -0.515  -1.491  25.433  0.00  0.00    -0.263 NA
ATOM     24  C   UNL     1      -2.916  -1.332  25.683  0.00  0.00    -0.012 A 
ATOM     26  C   UNL     1      -3.085  -2.395  24.802  0.00  0.00    +0.008 A 
ATOM     27  C   UNL     1      -1.621  -0.922  25.963  0.00  0.00    +0.115 A 
ATOM     30  C   UNL     1      -1.971  -3.005  24.236  0.00  0.00    +0.020 A 
ATOM     31  C   UNL     1      -0.720  -2.520  24.582  0.00  0.00    +0.111 A 
ENDBRANCH  22  24
ENDBRANCH   5  22
ENDBRANCH  16  20
ENDBRANCH  11  16
TORSDOF 8
ENDMDL
MODEL 6
REMARK VINA RESULT:       2.7      2.731      6.068
REMARK  Name = 38029183
REMARK  12 active torsions:
REMARK  status: ('A' for Active; 'I' for Inactive)
REMARK    1  A    between atoms: N_4  and  C_15
REMARK    2  A    between atoms: N_5  and  C_22
REMARK    3  A    between atoms: N_5  and  C_23
REMARK    4  A    between atoms: N_6  and  C_25
REMARK    5  A    between atoms: C_8  and  C_12
REMARK    6  A    between atoms: C_9  and  C_15
REMARK    7  A    between atoms: C_11  and  C_16
REMARK    8  A    between atoms: C_12  and  C_17
REMARK    9  A    between atoms: C_12  and  C_18
REMARK   10  A    between atoms: C_13  and  C_19
REMARK   11  A    between atoms: C_16  and  C_20
REMARK   12  A    between atoms: C_22  and  C_24
REMARK                            x       y       z     vdW  Elec       q    Type
REMARK                         _______ _______ _______ _____ _____    ______ ____
ROOT
ATOM      8  C   UNL     1      -2.796   1.917  23.484  0.00  0.00    +0.000 C 
ATOM      9  C   UNL     1      -3.956   2.264  24.450  0.00  0.00    +0.032 C 
ATOM     10  C   UNL     1      -2.868   0.439  23.069  0.00  0.00    +0.012 C 
ATOM     11  C   UNL     1      -2.795  -0.510  24.280  0.00  0.00    +0.023 C 
ATOM     13  C   UNL     1      -3.725  -0.074  25.394  0.00  0.00    -0.073 C 
ATOM     14  C   UNL     1      -4.244   1.166  25.446  0.00  0.00    -0.022 C 
ATOM     19  C   UNL     1      -4.080  -1.109  26.424  0.00  0.00    +0.039 C 
ENDROOT
BRANCH   8  12
ATOM     12  C   UNL     1      -2.810   2.806  22.236  0.00  0.00    -0.013 C 
ATOM     17  C   UNL     1      -4.166   3.486  22.081  0.00  0.00    +0.007 C 
ATOM     18  C   UNL     1      -2.471   1.987  20.995  0.00  0.00    +0.007 C 
ENDBRANCH   8  12
BRANCH   9  15
ATOM     15  C   UNL     1      -3.680   3.573  25.198  0.00  0.00    +0.113 C 
BRANCH  15   4
ATOM      3  O   UNL     1      -0.833   3.392  25.459  0.00  0.00    -0.253 OA
ATOM      4  N   UNL     1      -2.946   3.324  26.399  0.00  0.00    -0.299 N 
ATOM      6  N   UNL     1      -1.107   2.996  27.757  0.00  0.00    -0.269 N 
ATOM     21  C   UNL     1      -1.542   3.249  26.453  0.00  0.00    +0.304 C 
ATOM     35  H   UNL     1      -3.457   3.264  27.275  0.00  0.00    +0.150 HD
ATOM     36  H   UNL     1      -1.829   2.902  28.468  0.00  0.00    +0.156 HD
BRANCH   6  25
ATOM      1  F   UNL     1       2.016   1.711  31.169  0.00  0.00    -0.205 F 
ATOM     25  C   UNL     1       0.223   2.853  28.217  0.00  0.00    +0.037 A 
ATOM     28  C   UNL     1       0.469   2.343  29.491  0.00  0.00    +0.061 A 
ATOM     29  C   UNL     1       1.288   3.222  27.395  0.00  0.00    +0.023 A 
ATOM     32  C   UNL     1       1.780   2.202  29.946  0.00  0.00    +0.125 A 
ATOM     33  C   UNL     1       2.599   3.081  27.850  0.00  0.00    +0.005 A 
ATOM     34  C   UNL     1       2.846   2.570  29.124  0.00  0.00    +0.038 A 
ENDBRANCH   6  25
ENDBRANCH  15   4
ENDBRANCH   9  15
BRANCH  11  16
ATOM     16  C   UNL     1      -1.356  -0.646  24.788  0.00  0.00    +0.103 C 
BRANCH  16  20
ATOM      2  O   UNL     1      -0.463  -2.134  23.134  0.00  0.00    -0.276 OA
ATOM      5  N   UNL     1       0.565  -0.065  23.347  0.00  0.00    -0.300 N 
ATOM     20  C   UNL     1      -0.389  -1.031  23.683  0.00  0.00    +0.216 C 
ATOM     23  C   UNL     1       0.633   1.231  24.011  0.00  0.00    +0.132 C 
BRANCH   5  22
ATOM     22  C   UNL     1       1.565  -0.282  22.305  0.00  0.00    +0.144 C 
BRANCH  22  24
ATOM      7  N   UNL     1       4.740  -1.434  24.008  0.00  0.00    -0.263 NA
ATOM     24  C   UNL     1       2.962  -0.268  22.856  0.00  0.00    -0.012 A 
ATOM     26  C   UNL     1       3.764   0.863  22.747  0.00  0.00    +0.008 A 
ATOM     27  C   UNL     1       3.493  -1.381  23.489  0.00  0.00    +0.115 A 
ATOM     30  C   UNL     1       5.053   0.847  23.269  0.00  0.00    +0.020 A 
ATOM     31  C   UNL     1       5.489  -0.316  23.883  0.00  0.00    +0.111 A 
ENDBRANCH  22  24
ENDBRANCH   5  22
ENDBRANCH  16  20
ENDBRANCH  11  16
TORSDOF 8
ENDMDL
MODEL 7
REMARK VINA RESULT:       2.7      1.481      3.931
REMARK  Name = 38029183
REMARK  12 active torsions:
REMARK  status: ('A' for Active; 'I' for Inactive)
REMARK    1  A    between atoms: N_4  and  C_15
REMARK    2  A    between atoms: N_5  and  C_22
REMARK    3  A    between atoms: N_5  and  C_23
REMARK    4  A    between atoms: N_6  and  C_25
REMARK    5  A    between atoms: C_8  and  C_12
REMARK    6  A    between atoms: C_9  and  C_15
REMARK    7  A    between atoms: C_11  and  C_16
REMARK    8  A    between atoms: C_12  and  C_17
REMARK    9  A    between atoms: C_12  and  C_18
REMARK   10  A    between atoms: C_13  and  C_19
REMARK   11  A    between atoms: C_16  and  C_20
REMARK   12  A    between atoms: C_22  and  C_24
REMARK                            x       y       z     vdW  Elec       q    Type
REMARK                         _______ _______ _______ _____ _____    ______ ____
ROOT
ATOM      8  C   UNL     1      -3.293   3.076  22.958  0.00  0.00    +0.000 C 
ATOM      9  C   UNL     1      -2.064   2.585  23.763  0.00  0.00    +0.032 C 
ATOM     10  C   UNL     1      -3.734   4.465  23.446  0.00  0.00    +0.012 C 
ATOM     11  C   UNL     1      -4.100   4.467  24.942  0.00  0.00    +0.023 C 
ATOM     13  C   UNL     1      -3.054   3.757  25.778  0.00  0.00    -0.073 C 
ATOM     14  C   UNL     1      -2.145   2.930  25.232  0.00  0.00    -0.022 C 
ATOM     19  C   UNL     1      -3.049   4.054  27.251  0.00  0.00    +0.039 C 
ENDROOT
BRANCH   8  12
ATOM     12  C   UNL     1      -3.006   3.122  21.453  0.00  0.00    -0.013 C 
ATOM     17  C   UNL     1      -4.207   3.681  20.699  0.00  0.00    +0.007 C 
ATOM     18  C   UNL     1      -2.641   1.734  20.938  0.00  0.00    +0.007 C 
ENDBRANCH   8  12
BRANCH   9  15
ATOM     15  C   UNL     1      -1.866   1.073  23.604  0.00  0.00    +0.113 C 
BRANCH  15   4
ATOM      3  O   UNL     1       0.682   0.736  24.867  0.00  0.00    -0.253 OA
ATOM      4  N   UNL     1      -0.624   0.790  22.958  0.00  0.00    -0.299 N 
ATOM      6  N   UNL     1       1.637   0.365  22.754  0.00  0.00    -0.269 N 
ATOM     21  C   UNL     1       0.595   0.636  23.645  0.00  0.00    +0.304 C 
ATOM     35  H   UNL     1      -0.626   0.624  21.956  0.00  0.00    +0.150 HD
ATOM     36  H   UNL     1       1.393   0.318  21.768  0.00  0.00    +0.156 HD
BRANCH   6  25
ATOM      1  F   UNL     1       5.188  -2.526  24.194  0.00  0.00    -0.205 F 
ATOM     25  C   UNL     1       3.002   0.148  23.054  0.00  0.00    +0.037 A 
ATOM     28  C   UNL     1       3.430  -1.107  23.485  0.00  0.00    +0.061 A 
ATOM     29  C   UNL     1       3.919   1.191  22.920  0.00  0.00    +0.023 A 
ATOM     32  C   UNL     1       4.776  -1.321  23.782  0.00  0.00    +0.125 A 
ATOM     33  C   UNL     1       5.265   0.976  23.216  0.00  0.00    +0.005 A 
ATOM     34  C   UNL     1       5.694  -0.279  23.647  0.00  0.00    +0.038 A 
ENDBRANCH   6  25
ENDBRANCH  15   4
ENDBRANCH   9  15
BRANCH  11  16
ATOM     16  C   UNL     1      -5.489   3.863  25.173  0.00  0.00    +0.103 C 
BRANCH  16  20
ATOM      2  O   UNL     1      -5.512   2.669  27.251  0.00  0.00    -0.276 OA
ATOM      5  N   UNL     1      -5.300   1.404  25.317  0.00  0.00    -0.300 N 
ATOM     20  C   UNL     1      -5.436   2.605  26.020  0.00  0.00    +0.216 C 
ATOM     23  C   UNL     1      -5.212   1.354  23.863  0.00  0.00    +0.132 C 
BRANCH   5  22
ATOM     22  C   UNL     1      -5.233   0.108  25.988  0.00  0.00    +0.144 C 
BRANCH  22  24
ATOM      7  N   UNL     1      -1.781  -1.399  25.650  0.00  0.00    -0.263 NA
ATOM     24  C   UNL     1      -4.099  -0.731  25.476  0.00  0.00    -0.012 A 
ATOM     26  C   UNL     1      -4.273  -1.592  24.398  0.00  0.00    +0.008 A 
ATOM     27  C   UNL     1      -2.844  -0.673  26.062  0.00  0.00    +0.115 A 
ATOM     30  C   UNL     1      -3.203  -2.356  23.945  0.00  0.00    +0.020 A 
ATOM     31  C   UNL     1      -1.990  -2.224  24.600  0.00  0.00    +0.111 A 
ENDBRANCH  22  24
ENDBRANCH   5  22
ENDBRANCH  16  20
ENDBRANCH  11  16
TORSDOF 8
ENDMDL
MODEL 8
REMARK VINA RESULT:       2.8      1.775      3.533
REMARK  Name = 38029183
REMARK  12 active torsions:
REMARK  status: ('A' for Active; 'I' for Inactive)
REMARK    1  A    between atoms: N_4  and  C_15
REMARK    2  A    between atoms: N_5  and  C_22
REMARK    3  A    between atoms: N_5  and  C_23
REMARK    4  A    between atoms: N_6  and  C_25
REMARK    5  A    between atoms: C_8  and  C_12
REMARK    6  A    between atoms: C_9  and  C_15
REMARK    7  A    between atoms: C_11  and  C_16
REMARK    8  A    between atoms: C_12  and  C_17
REMARK    9  A    between atoms: C_12  and  C_18
REMARK   10  A    between atoms: C_13  and  C_19
REMARK   11  A    between atoms: C_16  and  C_20
REMARK   12  A    between atoms: C_22  and  C_24
REMARK                            x       y       z     vdW  Elec       q    Type
REMARK                         _______ _______ _______ _____ _____    ______ ____
ROOT
ATOM      8  C   UNL     1      -1.710   0.800  24.772  0.00  0.00    +0.000 C 
ATOM      9  C   UNL     1      -0.752  -0.361  24.406  0.00  0.00    +0.032 C 
ATOM     10  C   UNL     1      -2.670   0.369  25.892  0.00  0.00    +0.012 C 
ATOM     11  C   UNL     1      -3.518  -0.854  25.495  0.00  0.00    +0.023 C 
ATOM     13  C   UNL     1      -2.672  -1.946  24.873  0.00  0.00    -0.073 C 
ATOM     14  C   UNL     1      -1.433  -1.710  24.403  0.00  0.00    -0.022 C 
ATOM     19  C   UNL     1      -3.264  -3.327  24.842  0.00  0.00    +0.039 C 
ENDROOT
BRANCH   8  12
ATOM     12  C   UNL     1      -0.943   2.055  25.201  0.00  0.00    -0.013 C 
ATOM     17  C   UNL     1      -0.219   2.670  24.008  0.00  0.00    +0.007 C 
ATOM     18  C   UNL     1       0.040   1.722  26.319  0.00  0.00    +0.007 C 
ENDBRANCH   8  12
BRANCH   9  15
ATOM     15  C   UNL     1      -0.088  -0.123  23.045  0.00  0.00    +0.113 C 
BRANCH  15   4
ATOM      3  O   UNL     1       2.359   1.304  23.467  0.00  0.00    -0.253 OA
ATOM      4  N   UNL     1       1.233  -0.667  23.023  0.00  0.00    -0.299 N 
ATOM      6  N   UNL     1       3.538  -0.703  23.159  0.00  0.00    -0.269 N 
ATOM     21  C   UNL     1       2.394   0.097  23.240  0.00  0.00    +0.304 C 
ATOM     35  H   UNL     1       1.341  -1.671  22.911  0.00  0.00    +0.150 HD
ATOM     36  H   UNL     1       3.391  -1.690  22.961  0.00  0.00    +0.156 HD
BRANCH   6  25
ATOM      1  F   UNL     1       8.202  -1.290  22.189  0.00  0.00    -0.205 F 
ATOM     25  C   UNL     1       4.887  -0.308  23.318  0.00  0.00    +0.037 A 
ATOM     28  C   UNL     1       5.899  -1.007  22.662  0.00  0.00    +0.061 A 
ATOM     29  C   UNL     1       5.204   0.780  24.131  0.00  0.00    +0.023 A 
ATOM     32  C   UNL     1       7.230  -0.620  22.819  0.00  0.00    +0.125 A 
ATOM     33  C   UNL     1       6.534   1.168  24.288  0.00  0.00    +0.005 A 
ATOM     34  C   UNL     1       7.548   0.469  23.632  0.00  0.00    +0.038 A 
ENDBRANCH   6  25
ENDBRANCH  15   4
ENDBRANCH   9  15
BRANCH  11  16
ATOM     16  C   UNL     1      -4.666  -0.452  24.563  0.00  0.00    +0.103 C 
BRANCH  16  20
ATOM      2  O   UNL     1      -4.011   1.504  23.342  0.00  0.00    -0.276 OA
ATOM      5  N   UNL     1      -5.474   1.816  25.115  0.00  0.00    -0.300 N 
ATOM     20  C   UNL     1      -4.675   1.038  24.272  0.00  0.00    +0.216 C 
ATOM     23  C   UNL     1      -6.250   1.243  26.207  0.00  0.00    +0.132 C 
BRANCH   5  22
ATOM     22  C   UNL     1      -5.590   3.265  24.966  0.00  0.00    +0.144 C 
BRANCH  22  24
ATOM      7  N   UNL     1      -2.464   5.236  24.159  0.00  0.00    -0.263 NA
ATOM     24  C   UNL     1      -4.267   3.955  25.136  0.00  0.00    -0.012 A 
ATOM     26  C   UNL     1      -3.618   3.966  26.367  0.00  0.00    +0.008 A 
ATOM     27  C   UNL     1      -3.653   4.599  24.073  0.00  0.00    +0.115 A 
ATOM     30  C   UNL     1      -2.393   4.612  26.493  0.00  0.00    +0.020 A 
ATOM     31  C   UNL     1      -1.864   5.226  25.370  0.00  0.00    +0.111 A 
ENDBRANCH  22  24
ENDBRANCH   5  22
ENDBRANCH  16  20
ENDBRANCH  11  16
TORSDOF 8
ENDMDL
MODEL 9
REMARK VINA RESULT:       2.8      2.047      6.330
REMARK  Name = 38029183
REMARK  12 active torsions:
REMARK  status: ('A' for Active; 'I' for Inactive)
REMARK    1  A    between atoms: N_4  and  C_15
REMARK    2  A    between atoms: N_5  and  C_22
REMARK    3  A    between atoms: N_5  and  C_23
REMARK    4  A    between atoms: N_6  and  C_25
REMARK    5  A    between atoms: C_8  and  C_12
REMARK    6  A    between atoms: C_9  and  C_15
REMARK    7  A    between atoms: C_11  and  C_16
REMARK    8  A    between atoms: C_12  and  C_17
REMARK    9  A    between atoms: C_12  and  C_18
REMARK   10  A    between atoms: C_13  and  C_19
REMARK   11  A    between atoms: C_16  and  C_20
REMARK   12  A    between atoms: C_22  and  C_24
REMARK                            x       y       z     vdW  Elec       q    Type
REMARK                         _______ _______ _______ _____ _____    ______ ____
ROOT
ATOM      8  C   UNL     1      -3.561   3.470  25.636  0.00  0.00    +0.000 C 
ATOM      9  C   UNL     1      -3.578   4.365  24.372  0.00  0.00    +0.032 C 
ATOM     10  C   UNL     1      -2.473   3.943  26.613  0.00  0.00    +0.012 C 
ATOM     11  C   UNL     1      -1.069   3.916  25.978  0.00  0.00    +0.023 C 
ATOM     13  C   UNL     1      -1.062   4.548  24.601  0.00  0.00    -0.073 C 
ATOM     14  C   UNL     1      -2.194   4.753  23.903  0.00  0.00    -0.022 C 
ATOM     19  C   UNL     1       0.272   4.981  24.061  0.00  0.00    +0.039 C 
ENDROOT
BRANCH   8  12
ATOM     12  C   UNL     1      -4.921   3.458  26.342  0.00  0.00    -0.013 C 
ATOM     17  C   UNL     1      -5.560   2.077  26.241  0.00  0.00    +0.007 C 
ATOM     18  C   UNL     1      -5.837   4.523  25.749  0.00  0.00    +0.007 C 
ENDBRANCH   8  12
BRANCH   9  15
ATOM     15  C   UNL     1      -4.333   3.687  23.223  0.00  0.00    +0.113 C 
BRANCH  15   4
ATOM      3  O   UNL     1      -2.691   1.342  23.157  0.00  0.00    -0.253 OA
ATOM      4  N   UNL     1      -4.723   2.361  23.586  0.00  0.00    -0.299 N 
ATOM      6  N   UNL     1      -4.514   0.089  23.943  0.00  0.00    -0.269 N 
ATOM     21  C   UNL     1      -3.858   1.252  23.529  0.00  0.00    +0.304 C 
ATOM     35  H   UNL     1      -5.652   2.217  23.970  0.00  0.00    +0.150 HD
ATOM     36  H   UNL     1      -5.488   0.188  24.218  0.00  0.00    +0.156 HD
BRANCH   6  25
ATOM      1  F   UNL     1      -1.020  -2.936  25.242  0.00  0.00    -0.205 F 
ATOM     25  C   UNL     1      -3.989  -1.222  24.026  0.00  0.00    +0.037 A 
ATOM     28  C   UNL     1      -2.739  -1.437  24.604  0.00  0.00    +0.061 A 
ATOM     29  C   UNL     1      -4.723  -2.299  23.528  0.00  0.00    +0.023 A 
ATOM     32  C   UNL     1      -2.220  -2.729  24.686  0.00  0.00    +0.125 A 
ATOM     33  C   UNL     1      -4.204  -3.591  23.609  0.00  0.00    +0.005 A 
ATOM     34  C   UNL     1      -2.953  -3.807  24.189  0.00  0.00    +0.038 A 
ENDBRANCH   6  25
ENDBRANCH  15   4
ENDBRANCH   9  15
BRANCH  11  16
ATOM     16  C   UNL     1      -0.511   2.490  25.930  0.00  0.00    +0.103 C 
BRANCH  16  20
ATOM      2  O   UNL     1       0.569   3.074  23.872  0.00  0.00    -0.276 OA
ATOM      5  N   UNL     1       0.217   0.815  24.267  0.00  0.00    -0.300 N 
ATOM     20  C   UNL     1       0.141   2.172  24.597  0.00  0.00    +0.216 C 
ATOM     23  C   UNL     1      -0.295  -0.233  25.140  0.00  0.00    +0.132 C 
BRANCH   5  22
ATOM     22  C   UNL     1       0.816   0.346  23.020  0.00  0.00    +0.144 C 
BRANCH  22  24
ATOM      7  N   UNL     1       4.131  -1.326  23.741  0.00  0.00    -0.263 NA
ATOM     24  C   UNL     1       2.297   0.135  23.152  0.00  0.00    -0.012 A 
ATOM     26  C   UNL     1       3.196   1.147  22.832  0.00  0.00    +0.008 A 
ATOM     27  C   UNL     1       2.811  -1.072  23.598  0.00  0.00    +0.115 A 
ATOM     30  C   UNL     1       4.562   0.923  22.966  0.00  0.00    +0.020 A 
ATOM     31  C   UNL     1       4.974  -0.319  23.420  0.00  0.00    +0.111 A 
ENDBRANCH  22  24
ENDBRANCH   5  22
ENDBRANCH  16  20
ENDBRANCH  11  16
TORSDOF 8
ENDMDL
MODEL 10
REMARK VINA RESULT:       3.4      2.081      6.629
REMARK  Name = 38029183
REMARK  12 active torsions:
REMARK  status: ('A' for Active; 'I' for Inactive)
REMARK    1  A    between atoms: N_4  and  C_15
REMARK    2  A    between atoms: N_5  and  C_22
REMARK    3  A    between atoms: N_5  and  C_23
REMARK    4  A    between atoms: N_6  and  C_25
REMARK    5  A    between atoms: C_8  and  C_12
REMARK    6  A    between atoms: C_9  and  C_15
REMARK    7  A    between atoms: C_11  and  C_16
REMARK    8  A    between atoms: C_12  and  C_17
REMARK    9  A    between atoms: C_12  and  C_18
REMARK   10  A    between atoms: C_13  and  C_19
REMARK   11  A    between atoms: C_16  and  C_20
REMARK   12  A    between atoms: C_22  and  C_24
REMARK                            x       y       z     vdW  Elec       q    Type
REMARK                         _______ _______ _______ _____ _____    ______ ____
ROOT
ATOM      8  C   UNL     1      -2.630   3.799  25.861  0.00  0.00    +0.000 C 
ATOM      9  C   UNL     1      -3.900   3.764  24.975  0.00  0.00    +0.032 C 
ATOM     10  C   UNL     1      -1.402   4.184  25.022  0.00  0.00    +0.012 C 
ATOM     11  C   UNL     1      -1.159   3.202  23.860  0.00  0.00    +0.023 C 
ATOM     13  C   UNL     1      -2.434   2.907  23.096  0.00  0.00    -0.073 C 
ATOM     14  C   UNL     1      -3.650   3.177  23.605  0.00  0.00    -0.022 C 
ATOM     19  C   UNL     1      -2.279   2.335  21.715  0.00  0.00    +0.039 C 
ENDROOT
BRANCH   8  12
ATOM     12  C   UNL     1      -2.782   4.772  27.034  0.00  0.00    -0.013 C 
ATOM     17  C   UNL     1      -3.178   4.021  28.301  0.00  0.00    +0.007 C 
ATOM     18  C   UNL     1      -3.807   5.851  26.701  0.00  0.00    +0.007 C 
ENDBRANCH   8  12
BRANCH   9  15
ATOM     15  C   UNL     1      -5.033   2.992  25.661  0.00  0.00    +0.113 C 
BRANCH  15   4
ATOM      3  O   UNL     1      -3.131   0.850  25.675  0.00  0.00    -0.253 OA
ATOM      4  N   UNL     1      -5.196   1.701  25.071  0.00  0.00    -0.299 N 
ATOM      6  N   UNL     1      -4.653  -0.458  24.458  0.00  0.00    -0.269 N 
ATOM     21  C   UNL     1      -4.214   0.693  25.118  0.00  0.00    +0.304 C 
ATOM     35  H   UNL     1      -6.092   1.470  24.652  0.00  0.00    +0.150 HD
ATOM     36  H   UNL     1      -5.583  -0.422  24.046  0.00  0.00    +0.156 HD
BRANCH   6  25
ATOM      1  F   UNL     1      -0.789  -3.207  25.208  0.00  0.00    -0.205 F 
ATOM     25  C   UNL     1      -3.960  -1.680  24.289  0.00  0.00    +0.037 A 
ATOM     28  C   UNL     1      -2.691  -1.845  24.843  0.00  0.00    +0.061 A 
ATOM     29  C   UNL     1      -4.546  -2.719  23.566  0.00  0.00    +0.023 A 
ATOM     32  C   UNL     1      -2.007  -3.048  24.675  0.00  0.00    +0.125 A 
ATOM     33  C   UNL     1      -3.862  -3.923  23.398  0.00  0.00    +0.005 A 
ATOM     34  C   UNL     1      -2.593  -4.088  23.953  0.00  0.00    +0.038 A 
ENDBRANCH   6  25
ENDBRANCH  15   4
ENDBRANCH   9  15
BRANCH  11  16
ATOM     16  C   UNL     1      -0.506   1.908  24.357  0.00  0.00    +0.103 C 
BRANCH  16  20
ATOM      2  O   UNL     1       1.693   2.283  23.479  0.00  0.00    -0.276 OA
ATOM      5  N   UNL     1       0.651   0.297  22.885  0.00  0.00    -0.300 N 
ATOM     20  C   UNL     1       0.717   1.530  23.541  0.00  0.00    +0.216 C 
ATOM     23  C   UNL     1      -0.513  -0.576  22.973  0.00  0.00    +0.132 C 
BRANCH   5  22
ATOM     22  C   UNL     1       1.745  -0.210  22.060  0.00  0.00    +0.144 C 
BRANCH  22  24
ATOM      7  N   UNL     1       4.570  -1.473  24.236  0.00  0.00    -0.263 NA
ATOM     24  C   UNL     1       3.044  -0.251  22.812  0.00  0.00    -0.012 A 
ATOM     26  C   UNL     1       3.910   0.838  22.806  0.00  0.00    +0.008 A 
ATOM     27  C   UNL     1       3.417  -1.372  23.536  0.00  0.00    +0.115 A 
ATOM     30  C   UNL     1       5.105   0.772  23.514  0.00  0.00    +0.020 A 
ATOM     31  C   UNL     1       5.385  -0.395  24.206  0.00  0.00    +0.111 A 
ENDBRANCH  22  24
ENDBRANCH   5  22
ENDBRANCH  16  20
ENDBRANCH  11  16
TORSDOF 8
ENDMDL
