MODEL 1
REMARK VINA RESULT:       2.6      0.000      0.000
REMARK  Name = 51136980
REMARK  9 active torsions:
REMARK  status: ('A' for Active; 'I' for Inactive)
REMARK    1  A    between atoms: O_5  and  C_15
REMARK    2  A    between atoms: O_6  and  C_22
REMARK    3  A    between atoms: N_8  and  C_13
REMARK    4  A    between atoms: N_9  and  C_23
REMARK    5  A    between atoms: N_10  and  C_19
REMARK    6  A    between atoms: C_14  and  C_19
REMARK    7  A    between atoms: C_16  and  C_22
REMARK    8  A    between atoms: C_24  and  C_28
REMARK    9  A    between atoms: C_27  and  C_31
REMARK                            x       y       z     vdW  Elec       q    Type
REMARK                         _______ _______ _______ _____ _____    ______ ____
ROOT
ATOM      4  O   UNL     1      -5.012   4.263  25.057  0.00  0.00    -0.365 OA
ATOM     13  C   UNL     1      -2.677   4.199  25.516  0.00  0.00    +0.118 C 
ATOM     14  C   UNL     1      -3.726   4.452  24.425  0.00  0.00    +0.155 C 
ATOM     15  C   UNL     1      -3.401   3.271  26.480  0.00  0.00    +0.165 C 
ATOM     16  C   UNL     1      -4.810   3.849  26.421  0.00  0.00    +0.174 C 
ENDROOT
BRANCH  13   8
ATOM      8  N   UNL     1      -1.379   3.732  25.063  0.00  0.00    -0.292 NA
ATOM      9  N   UNL     1       0.463   1.910  23.860  0.00  0.00    -0.327 N 
ATOM     17  C   UNL     1      -1.387   3.517  23.610  0.00  0.00    +0.104 C 
ATOM     18  C   UNL     1      -1.010   2.488  25.750  0.00  0.00    +0.104 C 
ATOM     20  C   UNL     1      -0.009   3.079  23.111  0.00  0.00    +0.120 C 
ATOM     21  C   UNL     1       0.383   2.017  25.322  0.00  0.00    +0.120 C 
BRANCH   9  23
ATOM     23  C   UNL     1       1.458   1.091  23.314  0.00  0.00    +0.030 A 
ATOM     25  C   UNL     1       2.777   1.209  23.754  0.00  0.00    +0.035 A 
ATOM     26  C   UNL     1       1.132   0.158  22.331  0.00  0.00    +0.023 A 
ATOM     27  C   UNL     1       3.769   0.394  23.210  0.00  0.00    +0.057 A 
ATOM     29  C   UNL     1       2.124  -0.658  21.787  0.00  0.00    +0.002 A 
ATOM     30  C   UNL     1       3.442  -0.539  22.226  0.00  0.00    +0.012 A 
BRANCH  27  31
ATOM      1  F   UNL     1       6.066  -0.107  22.854  0.00  0.00    -0.166 F 
ATOM      2  F   UNL     1       5.613   1.812  23.769  0.00  0.00    -0.166 F 
ATOM      3  F   UNL     1       5.392  -0.013  24.920  0.00  0.00    -0.166 F 
ATOM     31  C   UNL     1       5.179   0.519  23.681  0.00  0.00    +0.417 C 
ENDBRANCH  27  31
ENDBRANCH   9  23
ENDBRANCH  13   8
BRANCH  15   5
ATOM      5  O   UNL     1      -3.397   1.929  26.011  0.00  0.00    -0.388 OA
ATOM     38  H   UNL     1      -2.529   1.545  26.224  0.00  0.00    +0.210 HD
ENDBRANCH  15   5
BRANCH  14  19
ATOM     19  C   UNL     1      -3.681   3.535  23.209  0.00  0.00    +0.137 C 
BRANCH  19  10
ATOM      7  O   UNL     1      -5.190   1.136  23.674  0.00  0.00    -0.270 OA
ATOM     10  N   UNL     1      -3.156   2.247  23.553  0.00  0.00    -0.309 N 
ATOM     24  C   UNL     1      -3.965   1.132  23.762  0.00  0.00    +0.244 C 
ATOM     39  H   UNL     1      -2.156   2.192  23.712  0.00  0.00    +0.149 HD
BRANCH  24  28
ATOM     11  N   UNL     1      -0.039  -1.603  25.235  0.00  0.00    -0.344 N 
ATOM     12  N   UNL     1      -1.151  -3.526  25.223  0.00  0.00    -0.236 NA
ATOM     28  C   UNL     1      -3.268  -0.125  24.139  0.00  0.00    +0.039 A 
ATOM     32  C   UNL     1      -1.916  -0.076  24.498  0.00  0.00    +0.040 A 
ATOM     33  C   UNL     1      -3.972  -1.331  24.129  0.00  0.00    +0.015 A 
ATOM     34  C   UNL     1      -1.314  -1.286  24.843  0.00  0.00    +0.067 A 
ATOM     35  C   UNL     1      -3.346  -2.534  24.479  0.00  0.00    +0.030 A 
ATOM     36  C   UNL     1      -1.990  -2.503  24.842  0.00  0.00    +0.089 A 
ATOM     37  C   UNL     1       0.008  -2.952  25.450  0.00  0.00    +0.197 A 
ATOM     41  H   UNL     1       0.729  -0.954  25.346  0.00  0.00    +0.167 HD
ENDBRANCH  24  28
ENDBRANCH  19  10
ENDBRANCH  14  19
BRANCH  16  22
ATOM     22  C   UNL     1      -5.922   2.901  26.827  0.00  0.00    +0.190 C 
BRANCH  22   6
ATOM      6  O   UNL     1      -6.512   2.357  25.656  0.00  0.00    -0.392 OA
ATOM     40  H   UNL     1      -6.348   2.987  24.933  0.00  0.00    +0.210 HD
ENDBRANCH  22   6
ENDBRANCH  16  22
TORSDOF 9
ENDMDL
MODEL 2
REMARK VINA RESULT:       3.0      4.466      7.896
REMARK  Name = 51136980
REMARK  9 active torsions:
REMARK  status: ('A' for Active; 'I' for Inactive)
REMARK    1  A    between atoms: O_5  and  C_15
REMARK    2  A    between atoms: O_6  and  C_22
REMARK    3  A    between atoms: N_8  and  C_13
REMARK    4  A    between atoms: N_9  and  C_23
REMARK    5  A    between atoms: N_10  and  C_19
REMARK    6  A    between atoms: C_14  and  C_19
REMARK    7  A    between atoms: C_16  and  C_22
REMARK    8  A    between atoms: C_24  and  C_28
REMARK    9  A    between atoms: C_27  and  C_31
REMARK                            x       y       z     vdW  Elec       q    Type
REMARK                         _______ _______ _______ _____ _____    ______ ____
ROOT
ATOM      4  O   UNL     1       4.385   1.310  22.907  0.00  0.00    -0.365 OA
ATOM     13  C   UNL     1       2.489   0.018  22.271  0.00  0.00    +0.118 C 
ATOM     14  C   UNL     1       2.942   1.369  22.841  0.00  0.00    +0.155 C 
ATOM     15  C   UNL     1       3.622  -0.917  22.665  0.00  0.00    +0.165 C 
ATOM     16  C   UNL     1       4.822   0.004  22.487  0.00  0.00    +0.174 C 
ENDROOT
BRANCH  13   8
ATOM      8  N   UNL     1       1.159  -0.424  22.650  0.00  0.00    -0.292 NA
ATOM      9  N   UNL     1      -1.298  -0.351  24.104  0.00  0.00    -0.327 N 
ATOM     17  C   UNL     1       0.171   0.630  22.388  0.00  0.00    +0.104 C 
ATOM     18  C   UNL     1       1.125  -0.799  24.069  0.00  0.00    +0.104 C 
ATOM     20  C   UNL     1      -1.243   0.156  22.729  0.00  0.00    +0.120 C 
ATOM     21  C   UNL     1      -0.259  -1.322  24.466  0.00  0.00    +0.120 C 
BRANCH   9  23
ATOM     23  C   UNL     1      -2.529  -0.428  24.766  0.00  0.00    +0.030 A 
ATOM     25  C   UNL     1      -3.546   0.476  24.457  0.00  0.00    +0.035 A 
ATOM     26  C   UNL     1      -2.738  -1.409  25.735  0.00  0.00    +0.023 A 
ATOM     27  C   UNL     1      -4.772   0.399  25.118  0.00  0.00    +0.057 A 
ATOM     29  C   UNL     1      -3.965  -1.486  26.396  0.00  0.00    +0.002 A 
ATOM     30  C   UNL     1      -4.981  -0.582  26.088  0.00  0.00    +0.012 A 
BRANCH  27  31
ATOM      1  F   UNL     1      -6.303   2.050  25.880  0.00  0.00    -0.166 F 
ATOM      2  F   UNL     1      -5.487   2.320  23.884  0.00  0.00    -0.166 F 
ATOM      3  F   UNL     1      -6.967   0.778  24.246  0.00  0.00    -0.166 F 
ATOM     31  C   UNL     1      -5.859   1.365  24.787  0.00  0.00    +0.417 C 
ENDBRANCH  27  31
ENDBRANCH   9  23
ENDBRANCH  13   8
BRANCH  15   5
ATOM      5  O   UNL     1       3.509  -1.328  24.022  0.00  0.00    -0.388 OA
ATOM     38  H   UNL     1       3.437  -0.527  24.567  0.00  0.00    +0.210 HD
ENDBRANCH  15   5
BRANCH  14  19
ATOM     19  C   UNL     1       2.440   1.725  24.236  0.00  0.00    +0.137 C 
BRANCH  19  10
ATOM      7  O   UNL     1       0.781   2.425  26.473  0.00  0.00    -0.270 OA
ATOM     10  N   UNL     1       1.123   2.285  24.182  0.00  0.00    -0.309 N 
ATOM     24  C   UNL     1       0.386   2.596  25.323  0.00  0.00    +0.244 C 
ATOM     39  H   UNL     1       0.709   2.384  23.262  0.00  0.00    +0.149 HD
BRANCH  24  28
ATOM     11  N   UNL     1      -4.137   4.212  26.734  0.00  0.00    -0.344 N 
ATOM     12  N   UNL     1      -4.812   4.671  24.668  0.00  0.00    -0.236 NA
ATOM     28  C   UNL     1      -0.976   3.146  25.097  0.00  0.00    +0.039 A 
ATOM     32  C   UNL     1      -1.815   3.365  26.195  0.00  0.00    +0.040 A 
ATOM     33  C   UNL     1      -1.395   3.431  23.795  0.00  0.00    +0.015 A 
ATOM     34  C   UNL     1      -3.082   3.882  25.923  0.00  0.00    +0.067 A 
ATOM     35  C   UNL     1      -2.673   3.950  23.547  0.00  0.00    +0.030 A 
ATOM     36  C   UNL     1      -3.527   4.177  24.638  0.00  0.00    +0.089 A 
ATOM     37  C   UNL     1      -5.145   4.678  25.939  0.00  0.00    +0.197 A 
ATOM     41  H   UNL     1      -4.164   4.127  27.742  0.00  0.00    +0.167 HD
ENDBRANCH  24  28
ENDBRANCH  19  10
ENDBRANCH  14  19
BRANCH  16  22
ATOM     22  C   UNL     1       6.064  -0.383  23.268  0.00  0.00    +0.190 C 
BRANCH  22   6
ATOM      6  O   UNL     1       5.801  -0.231  24.654  0.00  0.00    -0.392 OA
ATOM     40  H   UNL     1       5.876   0.717  24.858  0.00  0.00    +0.210 HD
ENDBRANCH  22   6
ENDBRANCH  16  22
TORSDOF 9
ENDMDL
MODEL 3
REMARK VINA RESULT:       3.3      1.122      1.738
REMARK  Name = 51136980
REMARK  9 active torsions:
REMARK  status: ('A' for Active; 'I' for Inactive)
REMARK    1  A    between atoms: O_5  and  C_15
REMARK    2  A    between atoms: O_6  and  C_22
REMARK    3  A    between atoms: N_8  and  C_13
REMARK    4  A    between atoms: N_9  and  C_23
REMARK    5  A    between atoms: N_10  and  C_19
REMARK    6  A    between atoms: C_14  and  C_19
REMARK    7  A    between atoms: C_16  and  C_22
REMARK    8  A    between atoms: C_24  and  C_28
REMARK    9  A    between atoms: C_27  and  C_31
REMARK                            x       y       z     vdW  Elec       q    Type
REMARK                         _______ _______ _______ _____ _____    ______ ____
ROOT
ATOM      4  O   UNL     1      -4.685   4.773  25.076  0.00  0.00    -0.365 OA
ATOM     13  C   UNL     1      -2.405   4.465  25.686  0.00  0.00    +0.118 C 
ATOM     14  C   UNL     1      -3.347   4.831  24.532  0.00  0.00    +0.155 C 
ATOM     15  C   UNL     1      -3.283   3.610  26.588  0.00  0.00    +0.165 C 
ATOM     16  C   UNL     1      -4.618   4.331  26.445  0.00  0.00    +0.174 C 
ENDROOT
BRANCH  13   8
ATOM      8  N   UNL     1      -1.134   3.869  25.313  0.00  0.00    -0.292 NA
ATOM      9  N   UNL     1       0.588   2.024  23.975  0.00  0.00    -0.327 N 
ATOM     17  C   UNL     1      -0.928   3.962  23.862  0.00  0.00    +0.104 C 
ATOM     18  C   UNL     1      -1.079   2.464  25.736  0.00  0.00    +0.104 C 
ATOM     20  C   UNL     1       0.433   3.389  23.462  0.00  0.00    +0.120 C 
ATOM     21  C   UNL     1       0.278   1.841  25.398  0.00  0.00    +0.120 C 
BRANCH   9  23
ATOM     23  C   UNL     1       1.527   1.165  23.391  0.00  0.00    +0.030 A 
ATOM     25  C   UNL     1       2.860   1.209  23.797  0.00  0.00    +0.035 A 
ATOM     26  C   UNL     1       1.128   0.266  22.402  0.00  0.00    +0.023 A 
ATOM     27  C   UNL     1       3.795   0.354  23.215  0.00  0.00    +0.057 A 
ATOM     29  C   UNL     1       2.063  -0.590  21.820  0.00  0.00    +0.002 A 
ATOM     30  C   UNL     1       3.396  -0.545  22.226  0.00  0.00    +0.012 A 
BRANCH  27  31
ATOM      1  F   UNL     1       5.441  -0.290  24.807  0.00  0.00    -0.166 F 
ATOM      2  F   UNL     1       6.089  -0.130  22.738  0.00  0.00    -0.166 F 
ATOM      3  F   UNL     1       5.681   1.665  23.885  0.00  0.00    -0.166 F 
ATOM     31  C   UNL     1       5.221   0.400  23.650  0.00  0.00    +0.417 C 
ENDBRANCH  27  31
ENDBRANCH   9  23
ENDBRANCH  13   8
BRANCH  15   5
ATOM      5  O   UNL     1      -3.385   2.277  26.103  0.00  0.00    -0.388 OA
ATOM     38  H   UNL     1      -3.415   2.319  25.132  0.00  0.00    +0.210 HD
ENDBRANCH  15   5
BRANCH  14  19
ATOM     19  C   UNL     1      -3.316   3.922  23.309  0.00  0.00    +0.137 C 
BRANCH  19  10
ATOM      7  O   UNL     1      -2.360   1.724  21.726  0.00  0.00    -0.270 OA
ATOM     10  N   UNL     1      -3.281   2.543  23.693  0.00  0.00    -0.309 N 
ATOM     24  C   UNL     1      -2.799   1.537  22.858  0.00  0.00    +0.244 C 
ATOM     39  H   UNL     1      -3.696   2.310  24.589  0.00  0.00    +0.149 HD
BRANCH  24  28
ATOM     11  N   UNL     1      -4.894  -2.948  23.601  0.00  0.00    -0.344 N 
ATOM     12  N   UNL     1      -3.201  -3.735  24.806  0.00  0.00    -0.236 NA
ATOM     28  C   UNL     1      -2.856   0.152  23.394  0.00  0.00    +0.039 A 
ATOM     32  C   UNL     1      -3.981  -0.636  23.130  0.00  0.00    +0.040 A 
ATOM     33  C   UNL     1      -1.789  -0.336  24.152  0.00  0.00    +0.015 A 
ATOM     34  C   UNL     1      -3.981  -1.927  23.660  0.00  0.00    +0.067 A 
ATOM     35  C   UNL     1      -1.811  -1.637  24.673  0.00  0.00    +0.030 A 
ATOM     36  C   UNL     1      -2.933  -2.442  24.417  0.00  0.00    +0.089 A 
ATOM     37  C   UNL     1      -4.383  -4.005  24.301  0.00  0.00    +0.197 A 
ATOM     41  H   UNL     1      -5.786  -2.923  23.125  0.00  0.00    +0.167 HD
ENDBRANCH  24  28
ENDBRANCH  19  10
ENDBRANCH  14  19
BRANCH  16  22
ATOM     22  C   UNL     1      -5.846   3.500  26.764  0.00  0.00    +0.190 C 
BRANCH  22   6
ATOM      6  O   UNL     1      -6.097   2.618  25.682  0.00  0.00    -0.392 OA
ATOM     40  H   UNL     1      -7.052   2.652  25.499  0.00  0.00    +0.210 HD
ENDBRANCH  22   6
ENDBRANCH  16  22
TORSDOF 9
ENDMDL
