MODEL 1
REMARK VINA RESULT:      -2.4      0.000      0.000
REMARK  Name = 40779881
REMARK  6 active torsions:
REMARK  status: ('A' for Active; 'I' for Inactive)
REMARK    1  A    between atoms: N_6  and  C_15
REMARK    2  A    between atoms: N_7  and  C_16
REMARK    3  A    between atoms: C_9  and  C_15
REMARK    4  A    between atoms: C_10  and  C_16
REMARK    5  A    between atoms: C_22  and  C_26
REMARK    6  A    between atoms: C_31  and  C_32
REMARK                            x       y       z     vdW  Elec       q    Type
REMARK                         _______ _______ _______ _____ _____    ______ ____
ROOT
ATOM      5  N   UNL     1      -5.189  -8.621  10.384  0.00  0.00    -0.298 NA
ATOM      8  C   UNL     1      -7.476  -9.698   9.772  0.00  0.00    -0.002 C 
ATOM      9  C   UNL     1      -7.365  -9.466  11.296  0.00  0.00    +0.023 C 
ATOM     10  C   UNL     1      -4.973  -9.839   9.557  0.00  0.00    +0.074 C 
ATOM     11  C   UNL     1      -6.304 -10.581   9.305  0.00  0.00    +0.024 C 
ATOM     12  C   UNL     1      -5.940  -8.963  11.616  0.00  0.00    +0.090 C 
ATOM     13  C   UNL     1      -7.309  -8.324   9.097  0.00  0.00    +0.019 C 
ATOM     14  C   UNL     1      -6.006  -7.671   9.593  0.00  0.00    +0.085 C 
ENDROOT
BRANCH   9  15
ATOM     15  C   UNL     1      -7.725 -10.700  12.121  0.00  0.00    +0.110 C 
BRANCH  15   6
ATOM      6  N   UNL     1      -8.610 -10.327  13.195  0.00  0.00    -0.329 N 
ATOM     17  C   UNL     1      -9.883  -9.649  12.964  0.00  0.00    +0.110 C 
ATOM     18  C   UNL     1      -8.183  -9.967  14.466  0.00  0.00    +0.033 A 
ATOM     19  C   UNL     1     -10.439  -9.270  14.351  0.00  0.00    +0.056 C 
ATOM     20  C   UNL     1      -9.202  -9.334  15.188  0.00  0.00    -0.025 A 
ATOM     21  C   UNL     1      -6.946 -10.169  15.056  0.00  0.00    +0.023 A 
ATOM     23  C   UNL     1      -9.021  -8.899  16.490  0.00  0.00    +0.005 A 
ATOM     24  C   UNL     1      -6.743  -9.728  16.367  0.00  0.00    +0.002 A 
ATOM     25  C   UNL     1      -7.773  -9.098  17.080  0.00  0.00    +0.000 A 
ENDBRANCH  15   6
ENDBRANCH   9  15
BRANCH  10  16
ATOM     16  C   UNL     1      -3.909 -10.766  10.148  0.00  0.00    +0.123 C 
BRANCH  16   7
ATOM      4  O   UNL     1      -2.589 -10.476  12.682  0.00  0.00    -0.270 OA
ATOM      7  N   UNL     1      -2.710 -10.018  10.411  0.00  0.00    -0.310 N 
ATOM     22  C   UNL     1      -2.140  -9.933  11.675  0.00  0.00    +0.244 C 
ATOM     33  H   UNL     1      -2.319  -9.494   9.635  0.00  0.00    +0.149 HD
BRANCH  22  26
ATOM     26  C   UNL     1      -0.915  -9.100  11.787  0.00  0.00    +0.037 A 
ATOM     27  C   UNL     1       0.051  -9.139  10.781  0.00  0.00    +0.013 A 
ATOM     28  C   UNL     1      -0.730  -8.279  12.899  0.00  0.00    +0.013 A 
ATOM     29  C   UNL     1       1.201  -8.357  10.887  0.00  0.00    +0.013 A 
ATOM     30  C   UNL     1       0.421  -7.497  13.005  0.00  0.00    +0.013 A 
ATOM     31  C   UNL     1       1.386  -7.536  11.999  0.00  0.00    +0.055 A 
BRANCH  31  32
ATOM      1  F   UNL     1       3.251  -6.823  13.316  0.00  0.00    -0.166 F 
ATOM      2  F   UNL     1       2.362  -5.369  11.967  0.00  0.00    -0.166 F 
ATOM      3  F   UNL     1       3.568  -6.998  11.178  0.00  0.00    -0.166 F 
ATOM     32  C   UNL     1       2.617  -6.701  12.113  0.00  0.00    +0.417 C 
ENDBRANCH  31  32
ENDBRANCH  22  26
ENDBRANCH  16   7
ENDBRANCH  10  16
TORSDOF 6
ENDMDL
MODEL 2
REMARK VINA RESULT:      -0.3      1.263      2.155
REMARK  Name = 40779881
REMARK  6 active torsions:
REMARK  status: ('A' for Active; 'I' for Inactive)
REMARK    1  A    between atoms: N_6  and  C_15
REMARK    2  A    between atoms: N_7  and  C_16
REMARK    3  A    between atoms: C_9  and  C_15
REMARK    4  A    between atoms: C_10  and  C_16
REMARK    5  A    between atoms: C_22  and  C_26
REMARK    6  A    between atoms: C_31  and  C_32
REMARK                            x       y       z     vdW  Elec       q    Type
REMARK                         _______ _______ _______ _____ _____    ______ ____
ROOT
ATOM      5  N   UNL     1      -4.938  -8.624  11.123  0.00  0.00    -0.298 NA
ATOM      8  C   UNL     1      -7.305  -9.700  11.073  0.00  0.00    -0.002 C 
ATOM      9  C   UNL     1      -6.841  -9.454  12.527  0.00  0.00    +0.023 C 
ATOM     10  C   UNL     1      -4.921  -9.850  10.280  0.00  0.00    +0.074 C 
ATOM     11  C   UNL     1      -6.274 -10.591  10.354  0.00  0.00    +0.024 C 
ATOM     12  C   UNL     1      -5.380  -8.951  12.500  0.00  0.00    +0.090 C 
ATOM     13  C   UNL     1      -7.299  -8.333  10.364  0.00  0.00    +0.019 C 
ATOM     14  C   UNL     1      -5.917  -7.678  10.536  0.00  0.00    +0.085 C 
ENDROOT
BRANCH   9  15
ATOM     15  C   UNL     1      -6.998 -10.680  13.425  0.00  0.00    +0.110 C 
BRANCH  15   6
ATOM      6  N   UNL     1      -6.363 -10.437  14.696  0.00  0.00    -0.329 N 
ATOM     17  C   UNL     1      -4.966 -10.777  14.952  0.00  0.00    +0.110 C 
ATOM     18  C   UNL     1      -7.023 -10.479  15.916  0.00  0.00    +0.033 A 
ATOM     19  C   UNL     1      -4.721 -10.530  16.455  0.00  0.00    +0.056 C 
ATOM     20  C   UNL     1      -6.119 -10.546  16.984  0.00  0.00    -0.025 A 
ATOM     21  C   UNL     1      -8.385 -10.447  16.169  0.00  0.00    +0.023 A 
ATOM     23  C   UNL     1      -6.539 -10.579  18.303  0.00  0.00    +0.005 A 
ATOM     24  C   UNL     1      -8.826 -10.489  17.495  0.00  0.00    +0.002 A 
ATOM     25  C   UNL     1      -7.911 -10.554  18.555  0.00  0.00    +0.000 A 
ENDBRANCH  15   6
ENDBRANCH   9  15
BRANCH  10  16
ATOM     16  C   UNL     1      -3.748 -10.773  10.616  0.00  0.00    +0.123 C 
BRANCH  16   7
ATOM      4  O   UNL     1      -2.233 -10.446  13.034  0.00  0.00    -0.270 OA
ATOM      7  N   UNL     1      -2.552  -9.993  10.781  0.00  0.00    -0.310 N 
ATOM     22  C   UNL     1      -1.883  -9.893  11.995  0.00  0.00    +0.244 C 
ATOM     33  H   UNL     1      -2.240  -9.460   9.976  0.00  0.00    +0.149 HD
BRANCH  22  26
ATOM     26  C   UNL     1      -0.675  -9.027  12.006  0.00  0.00    +0.037 A 
ATOM     27  C   UNL     1       0.301  -9.177  11.022  0.00  0.00    +0.013 A 
ATOM     28  C   UNL     1      -0.518  -8.065  13.004  0.00  0.00    +0.013 A 
ATOM     29  C   UNL     1       1.435  -8.365  11.034  0.00  0.00    +0.013 A 
ATOM     30  C   UNL     1       0.617  -7.253  13.017  0.00  0.00    +0.013 A 
ATOM     31  C   UNL     1       1.593  -7.403  12.032  0.00  0.00    +0.055 A 
BRANCH  31  32
ATOM      1  F   UNL     1       2.574  -5.264  11.603  0.00  0.00    -0.166 F 
ATOM      2  F   UNL     1       3.807  -7.019  11.255  0.00  0.00    -0.166 F 
ATOM      3  F   UNL     1       3.357  -6.384  13.286  0.00  0.00    -0.166 F 
ATOM     32  C   UNL     1       2.806  -6.535  12.046  0.00  0.00    +0.417 C 
ENDBRANCH  31  32
ENDBRANCH  22  26
ENDBRANCH  16   7
ENDBRANCH  10  16
TORSDOF 6
ENDMDL
MODEL 3
REMARK VINA RESULT:       0.0     14.227     16.359
REMARK  Name = 40779881
REMARK  6 active torsions:
REMARK  status: ('A' for Active; 'I' for Inactive)
REMARK    1  A    between atoms: N_6  and  C_15
REMARK    2  A    between atoms: N_7  and  C_16
REMARK    3  A    between atoms: C_9  and  C_15
REMARK    4  A    between atoms: C_10  and  C_16
REMARK    5  A    between atoms: C_22  and  C_26
REMARK    6  A    between atoms: C_31  and  C_32
REMARK                            x       y       z     vdW  Elec       q    Type
REMARK                         _______ _______ _______ _____ _____    ______ ____
ROOT
ATOM      5  N   UNL     1      -2.972  -2.253  24.372  0.00  0.00    -0.298 NA
ATOM      8  C   UNL     1      -3.329  -0.227  25.963  0.00  0.00    -0.002 C 
ATOM      9  C   UNL     1      -4.376  -0.227  24.826  0.00  0.00    +0.023 C 
ATOM     10  C   UNL     1      -1.698  -1.503  24.534  0.00  0.00    +0.074 C 
ATOM     11  C   UNL     1      -1.915  -0.211  25.353  0.00  0.00    +0.024 C 
ATOM     12  C   UNL     1      -4.029  -1.362  23.836  0.00  0.00    +0.090 C 
ATOM     13  C   UNL     1      -3.486  -1.561  26.716  0.00  0.00    +0.019 C 
ATOM     14  C   UNL     1      -3.399  -2.724  25.711  0.00  0.00    +0.085 C 
ENDROOT
BRANCH   9  15
ATOM     15  C   UNL     1      -4.496   1.121  24.118  0.00  0.00    +0.110 C 
BRANCH  15   6
ATOM      6  N   UNL     1      -4.027   2.171  24.986  0.00  0.00    -0.329 N 
ATOM     17  C   UNL     1      -4.937   3.063  25.701  0.00  0.00    +0.110 C 
ATOM     18  C   UNL     1      -2.841   2.866  24.797  0.00  0.00    +0.033 A 
ATOM     19  C   UNL     1      -4.060   4.141  26.371  0.00  0.00    +0.056 C 
ATOM     20  C   UNL     1      -2.804   4.034  25.569  0.00  0.00    -0.025 A 
ATOM     21  C   UNL     1      -1.761   2.539  23.992  0.00  0.00    +0.023 A 
ATOM     23  C   UNL     1      -1.712   4.886  25.563  0.00  0.00    +0.005 A 
ATOM     24  C   UNL     1      -0.654   3.393  23.967  0.00  0.00    +0.002 A 
ATOM     25  C   UNL     1      -0.629   4.558  24.748  0.00  0.00    +0.000 A 
ENDBRANCH  15   6
ENDBRANCH   9  15
BRANCH  10  16
ATOM     16  C   UNL     1      -1.012  -1.219  23.195  0.00  0.00    +0.123 C 
BRANCH  16   7
ATOM      4  O   UNL     1       0.894  -0.306  21.251  0.00  0.00    -0.270 OA
ATOM      7  N   UNL     1       0.390  -0.986  23.411  0.00  0.00    -0.310 N 
ATOM     22  C   UNL     1       1.240  -0.542  22.406  0.00  0.00    +0.244 C 
ATOM     33  H   UNL     1       0.755  -1.218  24.328  0.00  0.00    +0.149 HD
BRANCH  22  26
ATOM     26  C   UNL     1       2.667  -0.373  22.783  0.00  0.00    +0.037 A 
ATOM     27  C   UNL     1       3.344   0.800  22.449  0.00  0.00    +0.013 A 
ATOM     28  C   UNL     1       3.330  -1.389  23.471  0.00  0.00    +0.013 A 
ATOM     29  C   UNL     1       4.685   0.957  22.802  0.00  0.00    +0.013 A 
ATOM     30  C   UNL     1       4.671  -1.232  23.824  0.00  0.00    +0.013 A 
ATOM     31  C   UNL     1       5.348  -0.059  23.490  0.00  0.00    +0.055 A 
BRANCH  31  32
ATOM      1  F   UNL     1       7.650  -0.176  22.852  0.00  0.00    -0.166 F 
ATOM      2  F   UNL     1       7.150  -0.701  24.901  0.00  0.00    -0.166 F 
ATOM      3  F   UNL     1       7.099   1.377  24.262  0.00  0.00    -0.166 F 
ATOM     32  C   UNL     1       6.781   0.109  23.867  0.00  0.00    +0.417 C 
ENDBRANCH  31  32
ENDBRANCH  22  26
ENDBRANCH  16   7
ENDBRANCH  10  16
TORSDOF 6
ENDMDL
MODEL 4
REMARK VINA RESULT:       0.9     14.244     16.073
REMARK  Name = 40779881
REMARK  6 active torsions:
REMARK  status: ('A' for Active; 'I' for Inactive)
REMARK    1  A    between atoms: N_6  and  C_15
REMARK    2  A    between atoms: N_7  and  C_16
REMARK    3  A    between atoms: C_9  and  C_15
REMARK    4  A    between atoms: C_10  and  C_16
REMARK    5  A    between atoms: C_22  and  C_26
REMARK    6  A    between atoms: C_31  and  C_32
REMARK                            x       y       z     vdW  Elec       q    Type
REMARK                         _______ _______ _______ _____ _____    ______ ____
ROOT
ATOM      5  N   UNL     1      -1.451   3.050  24.525  0.00  0.00    -0.298 NA
ATOM      8  C   UNL     1      -4.007   3.529  24.585  0.00  0.00    -0.002 C 
ATOM      9  C   UNL     1      -3.579   2.660  25.790  0.00  0.00    +0.023 C 
ATOM     10  C   UNL     1      -2.067   2.686  23.221  0.00  0.00    +0.074 C 
ATOM     11  C   UNL     1      -3.605   2.819  23.278  0.00  0.00    +0.024 C 
ATOM     12  C   UNL     1      -2.088   2.288  25.626  0.00  0.00    +0.090 C 
ATOM     13  C   UNL     1      -3.193   4.834  24.664  0.00  0.00    +0.019 C 
ATOM     14  C   UNL     1      -1.696   4.493  24.759  0.00  0.00    +0.085 C 
ENDROOT
BRANCH   9  15
ATOM     15  C   UNL     1      -4.452   1.420  25.978  0.00  0.00    +0.110 C 
BRANCH  15   6
ATOM      6  N   UNL     1      -4.043   0.392  25.055  0.00  0.00    -0.329 N 
ATOM     17  C   UNL     1      -4.998  -0.363  24.247  0.00  0.00    +0.110 C 
ATOM     18  C   UNL     1      -2.932  -0.420  25.237  0.00  0.00    +0.033 A 
ATOM     19  C   UNL     1      -4.194  -1.470  23.535  0.00  0.00    +0.056 C 
ATOM     20  C   UNL     1      -2.967  -1.533  24.386  0.00  0.00    -0.025 A 
ATOM     21  C   UNL     1      -1.862  -0.249  26.100  0.00  0.00    +0.023 A 
ATOM     23  C   UNL     1      -1.957  -2.479  24.370  0.00  0.00    +0.005 A 
ATOM     24  C   UNL     1      -0.838  -1.201  26.104  0.00  0.00    +0.002 A 
ATOM     25  C   UNL     1      -0.884  -2.308  25.245  0.00  0.00    +0.000 A 
ENDBRANCH  15   6
ENDBRANCH   9  15
BRANCH  10  16
ATOM     16  C   UNL     1      -1.634   1.300  22.737  0.00  0.00    +0.123 C 
BRANCH  16   7
ATOM      4  O   UNL     1      -0.084  -1.060  22.212  0.00  0.00    -0.270 OA
ATOM      7  N   UNL     1      -0.218   1.143  22.930  0.00  0.00    -0.310 N 
ATOM     22  C   UNL     1       0.451  -0.042  22.648  0.00  0.00    +0.244 C 
ATOM     33  H   UNL     1       0.276   1.925  23.345  0.00  0.00    +0.149 HD
BRANCH  22  26
ATOM     26  C   UNL     1       1.910  -0.053  22.926  0.00  0.00    +0.037 A 
ATOM     27  C   UNL     1       2.679   1.081  22.661  0.00  0.00    +0.013 A 
ATOM     28  C   UNL     1       2.511  -1.197  23.450  0.00  0.00    +0.013 A 
ATOM     29  C   UNL     1       4.050   1.070  22.921  0.00  0.00    +0.013 A 
ATOM     30  C   UNL     1       3.881  -1.208  23.710  0.00  0.00    +0.013 A 
ATOM     31  C   UNL     1       4.651  -0.074  23.446  0.00  0.00    +0.055 A 
BRANCH  31  32
ATOM      1  F   UNL     1       6.479  -0.961  24.707  0.00  0.00    -0.166 F 
ATOM      2  F   UNL     1       6.584   1.131  24.125  0.00  0.00    -0.166 F 
ATOM      3  F   UNL     1       6.876  -0.432  22.642  0.00  0.00    -0.166 F 
ATOM     32  C   UNL     1       6.116  -0.086  23.723  0.00  0.00    +0.417 C 
ENDBRANCH  31  32
ENDBRANCH  22  26
ENDBRANCH  16   7
ENDBRANCH  10  16
TORSDOF 6
ENDMDL
MODEL 5
REMARK VINA RESULT:       1.1     14.700     16.878
REMARK  Name = 40779881
REMARK  6 active torsions:
REMARK  status: ('A' for Active; 'I' for Inactive)
REMARK    1  A    between atoms: N_6  and  C_15
REMARK    2  A    between atoms: N_7  and  C_16
REMARK    3  A    between atoms: C_9  and  C_15
REMARK    4  A    between atoms: C_10  and  C_16
REMARK    5  A    between atoms: C_22  and  C_26
REMARK    6  A    between atoms: C_31  and  C_32
REMARK                            x       y       z     vdW  Elec       q    Type
REMARK                         _______ _______ _______ _____ _____    ______ ____
ROOT
ATOM      5  N   UNL     1      -1.709  -2.726  23.744  0.00  0.00    -0.298 NA
ATOM      8  C   UNL     1      -3.916  -2.599  25.114  0.00  0.00    -0.002 C 
ATOM      9  C   UNL     1      -3.701  -1.307  24.292  0.00  0.00    +0.023 C 
ATOM     10  C   UNL     1      -1.439  -3.038  25.173  0.00  0.00    +0.074 C 
ATOM     11  C   UNL     1      -2.702  -2.823  26.036  0.00  0.00    +0.024 C 
ATOM     12  C   UNL     1      -2.313  -1.378  23.616  0.00  0.00    +0.090 C 
ATOM     13  C   UNL     1      -3.949  -3.766  24.111  0.00  0.00    +0.019 C 
ATOM     14  C   UNL     1      -2.684  -3.720  23.236  0.00  0.00    +0.085 C 
ENDROOT
BRANCH   9  15
ATOM     15  C   UNL     1      -3.860  -0.033  25.120  0.00  0.00    +0.110 C 
BRANCH  15   6
ATOM      6  N   UNL     1      -3.997   1.103  24.244  0.00  0.00    -0.329 N 
ATOM     17  C   UNL     1      -3.107   1.331  23.108  0.00  0.00    +0.110 C 
ATOM     18  C   UNL     1      -4.468   2.345  24.647  0.00  0.00    +0.033 A 
ATOM     19  C   UNL     1      -3.465   2.719  22.539  0.00  0.00    +0.056 C 
ATOM     20  C   UNL     1      -4.178   3.334  23.700  0.00  0.00    -0.025 A 
ATOM     21  C   UNL     1      -5.159   2.679  25.801  0.00  0.00    +0.023 A 
ATOM     23  C   UNL     1      -4.565   4.653  23.871  0.00  0.00    +0.005 A 
ATOM     24  C   UNL     1      -5.549   4.008  25.993  0.00  0.00    +0.002 A 
ATOM     25  C   UNL     1      -5.255   4.988  25.035  0.00  0.00    +0.000 A 
ENDBRANCH  15   6
ENDBRANCH   9  15
BRANCH  10  16
ATOM     16  C   UNL     1      -0.238  -2.265  25.723  0.00  0.00    +0.123 C 
BRANCH  16   7
ATOM      4  O   UNL     1       0.883  -0.415  23.833  0.00  0.00    -0.270 OA
ATOM      7  N   UNL     1      -0.497  -0.852  25.647  0.00  0.00    -0.310 N 
ATOM     22  C   UNL     1       0.094  -0.032  24.693  0.00  0.00    +0.244 C 
ATOM     33  H   UNL     1      -1.094  -0.459  26.365  0.00  0.00    +0.149 HD
BRANCH  22  26
ATOM     26  C   UNL     1      -0.258   1.410  24.763  0.00  0.00    +0.037 A 
ATOM     27  C   UNL     1       0.142   2.276  23.745  0.00  0.00    +0.013 A 
ATOM     28  C   UNL     1      -0.988   1.897  25.846  0.00  0.00    +0.013 A 
ATOM     29  C   UNL     1      -0.187   3.630  23.812  0.00  0.00    +0.013 A 
ATOM     30  C   UNL     1      -1.317   3.251  25.913  0.00  0.00    +0.013 A 
ATOM     31  C   UNL     1      -0.917   4.118  24.895  0.00  0.00    +0.055 A 
BRANCH  31  32
ATOM      1  F   UNL     1      -1.905   6.029  23.850  0.00  0.00    -0.166 F 
ATOM      2  F   UNL     1      -0.174   6.365  25.121  0.00  0.00    -0.166 F 
ATOM      3  F   UNL     1      -2.100   5.877  26.005  0.00  0.00    -0.166 F 
ATOM     32  C   UNL     1      -1.269   5.565  24.966  0.00  0.00    +0.417 C 
ENDBRANCH  31  32
ENDBRANCH  22  26
ENDBRANCH  16   7
ENDBRANCH  10  16
TORSDOF 6
ENDMDL
