MODEL 1
REMARK VINA RESULT:      -0.6      0.000      0.000
REMARK  Name = 44716338
REMARK  9 active torsions:
REMARK  status: ('A' for Active; 'I' for Inactive)
REMARK    1  A    between atoms: O_1  and  C_30
REMARK    2  A    between atoms: O_1  and  C_31
REMARK    3  A    between atoms: N_3  and  C_20
REMARK    4  A    between atoms: N_4  and  C_14
REMARK    5  A    between atoms: N_4  and  C_24
REMARK    6  A    between atoms: C_7  and  C_13
REMARK    7  A    between atoms: C_8  and  C_14
REMARK    8  A    between atoms: C_16  and  C_17
REMARK    9  A    between atoms: C_24  and  C_25
REMARK                            x       y       z     vdW  Elec       q    Type
REMARK                         _______ _______ _______ _____ _____    ______ ____
ROOT
ATOM      2  N   UNL     1      -3.878  -0.667  25.907  0.00  0.00    -0.298 NA
ATOM      6  C   UNL     1      -2.717  -2.167  24.123  0.00  0.00    +0.002 C 
ATOM      7  C   UNL     1      -1.657  -1.453  25.008  0.00  0.00    +0.055 C 
ATOM      8  C   UNL     1      -4.444  -0.386  24.561  0.00  0.00    +0.071 C 
ATOM      9  C   UNL     1      -3.629  -1.110  23.467  0.00  0.00    +0.024 C 
ATOM     10  C   UNL     1      -2.414  -0.431  25.904  0.00  0.00    +0.094 C 
ATOM     11  C   UNL     1      -3.601  -3.002  25.074  0.00  0.00    +0.019 C 
ATOM     12  C   UNL     1      -4.117  -2.099  26.209  0.00  0.00    +0.085 C 
ENDROOT
BRANCH   7  13
ATOM      3  N   UNL     1      -0.487   0.377  23.694  0.00  0.00    -0.271 N 
ATOM      5  N   UNL     1       0.685   0.745  23.150  0.00  0.00    -0.176 NA
ATOM     13  C   UNL     1      -0.448  -0.834  24.321  0.00  0.00    +0.044 A 
ATOM     15  C   UNL     1       0.841  -1.289  24.180  0.00  0.00    +0.048 A 
ATOM     16  C   UNL     1       1.493  -0.275  23.451  0.00  0.00    +0.066 A 
ATOM     20  C   UNL     1      -1.629   1.252  23.567  0.00  0.00    +0.172 C 
BRANCH  16  17
ATOM     17  C   UNL     1       2.944  -0.245  23.006  0.00  0.00    +0.040 C 
ATOM     18  C   UNL     1       3.818  -1.200  23.836  0.00  0.00    +0.010 C 
ATOM     19  C   UNL     1       3.518   1.182  23.023  0.00  0.00    +0.010 C 
ATOM     21  C   UNL     1       5.274  -1.170  23.374  0.00  0.00    +0.001 C 
ATOM     22  C   UNL     1       4.976   1.204  22.564  0.00  0.00    +0.001 C 
ATOM     23  C   UNL     1       5.838   0.248  23.384  0.00  0.00    +0.000 C 
ENDBRANCH  16  17
ENDBRANCH   7  13
BRANCH   8  14
ATOM     14  C   UNL     1      -4.565   1.114  24.282  0.00  0.00    +0.100 C 
BRANCH  14   4
ATOM      4  N   UNL     1      -5.831   1.630  24.779  0.00  0.00    -0.311 NA
ATOM     32  H   UNL     1      -6.321   0.882  25.272  0.00  0.00    +0.122 HD
BRANCH   4  24
ATOM     24  C   UNL     1      -5.619   2.742  25.697  0.00  0.00    +0.116 C 
BRANCH  24  25
ATOM     25  C   UNL     1      -4.288   3.410  25.470  0.00  0.00    -0.033 A 
ATOM     26  C   UNL     1      -3.323   3.402  26.478  0.00  0.00    +0.008 A 
ATOM     27  C   UNL     1      -4.021   4.037  24.253  0.00  0.00    +0.008 A 
ATOM     28  C   UNL     1      -2.091   4.020  26.267  0.00  0.00    +0.046 A 
ATOM     29  C   UNL     1      -2.789   4.655  24.042  0.00  0.00    +0.046 A 
ATOM     30  C   UNL     1      -1.823   4.647  25.050  0.00  0.00    +0.120 A 
BRANCH  30   1
ATOM      1  O   UNL     1      -0.620   5.249  24.844  0.00  0.00    -0.495 OA
ATOM     31  C   UNL     1       0.162   4.778  23.748  0.00  0.00    +0.277 C 
ENDBRANCH  30   1
ENDBRANCH  24  25
ENDBRANCH   4  24
ENDBRANCH  14   4
ENDBRANCH   8  14
TORSDOF 7
ENDMDL
MODEL 2
REMARK VINA RESULT:       0.3      1.942      4.531
REMARK  Name = 44716338
REMARK  9 active torsions:
REMARK  status: ('A' for Active; 'I' for Inactive)
REMARK    1  A    between atoms: O_1  and  C_30
REMARK    2  A    between atoms: O_1  and  C_31
REMARK    3  A    between atoms: N_3  and  C_20
REMARK    4  A    between atoms: N_4  and  C_14
REMARK    5  A    between atoms: N_4  and  C_24
REMARK    6  A    between atoms: C_7  and  C_13
REMARK    7  A    between atoms: C_8  and  C_14
REMARK    8  A    between atoms: C_16  and  C_17
REMARK    9  A    between atoms: C_24  and  C_25
REMARK                            x       y       z     vdW  Elec       q    Type
REMARK                         _______ _______ _______ _____ _____    ______ ____
ROOT
ATOM      2  N   UNL     1      -3.361   4.191  24.140  0.00  0.00    -0.298 NA
ATOM      6  C   UNL     1      -1.513   3.369  25.780  0.00  0.00    +0.002 C 
ATOM      7  C   UNL     1      -0.964   3.430  24.327  0.00  0.00    +0.055 C 
ATOM      8  C   UNL     1      -3.888   3.090  24.989  0.00  0.00    +0.071 C 
ATOM      9  C   UNL     1      -2.753   2.452  25.819  0.00  0.00    +0.024 C 
ATOM     10  C   UNL     1      -2.168   3.729  23.389  0.00  0.00    +0.094 C 
ATOM     11  C   UNL     1      -1.991   4.794  26.135  0.00  0.00    +0.019 C 
ATOM     12  C   UNL     1      -2.946   5.296  25.037  0.00  0.00    +0.085 C 
ENDROOT
BRANCH   7  13
ATOM      3  N   UNL     1      -0.651   1.172  23.212  0.00  0.00    -0.271 N 
ATOM      5  N   UNL     1       0.263   0.255  22.848  0.00  0.00    -0.176 NA
ATOM     13  C   UNL     1      -0.120   2.266  23.830  0.00  0.00    +0.044 A 
ATOM     15  C   UNL     1       1.237   2.051  23.872  0.00  0.00    +0.048 A 
ATOM     16  C   UNL     1       1.414   0.798  23.253  0.00  0.00    +0.066 A 
ATOM     20  C   UNL     1      -2.047   0.925  22.932  0.00  0.00    +0.172 C 
BRANCH  16  17
ATOM     17  C   UNL     1       2.719   0.058  23.022  0.00  0.00    +0.040 C 
ATOM     18  C   UNL     1       2.912  -1.088  24.029  0.00  0.00    +0.010 C 
ATOM     19  C   UNL     1       3.927   1.010  23.032  0.00  0.00    +0.010 C 
ATOM     21  C   UNL     1       4.223  -1.834  23.782  0.00  0.00    +0.001 C 
ATOM     22  C   UNL     1       5.234   0.257  22.789  0.00  0.00    +0.001 C 
ATOM     23  C   UNL     1       5.419  -0.886  23.784  0.00  0.00    +0.000 C 
ENDBRANCH  16  17
ENDBRANCH   7  13
BRANCH   8  14
ATOM     14  C   UNL     1      -4.656   2.045  24.176  0.00  0.00    +0.100 C 
BRANCH  14   4
ATOM      4  N   UNL     1      -5.673   1.402  24.993  0.00  0.00    -0.311 NA
ATOM     32  H   UNL     1      -6.555   1.903  24.876  0.00  0.00    +0.122 HD
BRANCH   4  24
ATOM     24  C   UNL     1      -5.862   0.012  24.596  0.00  0.00    +0.116 C 
BRANCH  24  25
ATOM     25  C   UNL     1      -4.588  -0.783  24.716  0.00  0.00    -0.033 A 
ATOM     26  C   UNL     1      -4.302  -1.785  23.788  0.00  0.00    +0.008 A 
ATOM     27  C   UNL     1      -3.695  -0.517  25.753  0.00  0.00    +0.008 A 
ATOM     28  C   UNL     1      -3.123  -2.521  23.899  0.00  0.00    +0.046 A 
ATOM     29  C   UNL     1      -2.515  -1.252  25.864  0.00  0.00    +0.046 A 
ATOM     30  C   UNL     1      -2.229  -2.255  24.937  0.00  0.00    +0.120 A 
BRANCH  30   1
ATOM      1  O   UNL     1      -1.077  -2.972  25.044  0.00  0.00    -0.495 OA
ATOM     31  C   UNL     1       0.080  -2.277  25.506  0.00  0.00    +0.277 C 
ENDBRANCH  30   1
ENDBRANCH  24  25
ENDBRANCH   4  24
ENDBRANCH  14   4
ENDBRANCH   8  14
TORSDOF 7
ENDMDL
MODEL 3
REMARK VINA RESULT:       1.5      1.910      4.687
REMARK  Name = 44716338
REMARK  9 active torsions:
REMARK  status: ('A' for Active; 'I' for Inactive)
REMARK    1  A    between atoms: O_1  and  C_30
REMARK    2  A    between atoms: O_1  and  C_31
REMARK    3  A    between atoms: N_3  and  C_20
REMARK    4  A    between atoms: N_4  and  C_14
REMARK    5  A    between atoms: N_4  and  C_24
REMARK    6  A    between atoms: C_7  and  C_13
REMARK    7  A    between atoms: C_8  and  C_14
REMARK    8  A    between atoms: C_16  and  C_17
REMARK    9  A    between atoms: C_24  and  C_25
REMARK                            x       y       z     vdW  Elec       q    Type
REMARK                         _______ _______ _______ _____ _____    ______ ____
ROOT
ATOM      2  N   UNL     1      -3.955   3.948  24.257  0.00  0.00    -0.298 NA
ATOM      6  C   UNL     1      -1.591   4.432  25.237  0.00  0.00    +0.002 C 
ATOM      7  C   UNL     1      -1.475   3.711  23.865  0.00  0.00    +0.055 C 
ATOM      8  C   UNL     1      -3.884   3.481  25.667  0.00  0.00    +0.071 C 
ATOM      9  C   UNL     1      -2.436   3.568  26.197  0.00  0.00    +0.024 C 
ATOM     10  C   UNL     1      -2.909   3.279  23.445  0.00  0.00    +0.094 C 
ATOM     11  C   UNL     1      -2.378   5.737  24.988  0.00  0.00    +0.019 C 
ATOM     12  C   UNL     1      -3.686   5.406  24.248  0.00  0.00    +0.085 C 
ENDROOT
BRANCH   7  13
ATOM      3  N   UNL     1      -0.776   1.371  23.174  0.00  0.00    -0.271 N 
ATOM      5  N   UNL     1       0.252   0.504  23.152  0.00  0.00    -0.176 NA
ATOM     13  C   UNL     1      -0.469   2.576  23.733  0.00  0.00    +0.044 A 
ATOM     15  C   UNL     1       0.852   2.494  24.102  0.00  0.00    +0.048 A 
ATOM     16  C   UNL     1       1.244   1.196  23.719  0.00  0.00    +0.066 A 
ATOM     20  C   UNL     1      -2.052   0.964  22.633  0.00  0.00    +0.172 C 
BRANCH  16  17
ATOM     17  C   UNL     1       2.610   0.556  23.886  0.00  0.00    +0.040 C 
ATOM     18  C   UNL     1       3.701   1.330  23.125  0.00  0.00    +0.010 C 
ATOM     19  C   UNL     1       2.601  -0.927  23.478  0.00  0.00    +0.010 C 
ATOM     21  C   UNL     1       5.074   0.684  23.307  0.00  0.00    +0.001 C 
ATOM     22  C   UNL     1       3.978  -1.564  23.658  0.00  0.00    +0.001 C 
ATOM     23  C   UNL     1       5.059  -0.789  22.910  0.00  0.00    +0.000 C 
ENDBRANCH  16  17
ENDBRANCH   7  13
BRANCH   8  14
ATOM     14  C   UNL     1      -4.473   2.080  25.847  0.00  0.00    +0.100 C 
BRANCH  14   4
ATOM      4  N   UNL     1      -5.340   1.738  24.730  0.00  0.00    -0.311 NA
ATOM     32  H   UNL     1      -4.859   1.965  23.858  0.00  0.00    +0.122 HD
BRANCH   4  24
ATOM     24  C   UNL     1      -5.665   0.318  24.735  0.00  0.00    +0.116 C 
BRANCH  24  25
ATOM     25  C   UNL     1      -4.427  -0.541  24.766  0.00  0.00    -0.033 A 
ATOM     26  C   UNL     1      -3.341  -0.169  25.559  0.00  0.00    +0.008 A 
ATOM     27  C   UNL     1      -4.368  -1.706  24.003  0.00  0.00    +0.008 A 
ATOM     28  C   UNL     1      -2.196  -0.965  25.587  0.00  0.00    +0.046 A 
ATOM     29  C   UNL     1      -3.223  -2.501  24.031  0.00  0.00    +0.046 A 
ATOM     30  C   UNL     1      -2.136  -2.130  24.824  0.00  0.00    +0.120 A 
BRANCH  30   1
ATOM      1  O   UNL     1      -1.019  -2.907  24.852  0.00  0.00    -0.495 OA
ATOM     31  C   UNL     1       0.132  -2.364  25.499  0.00  0.00    +0.277 C 
ENDBRANCH  30   1
ENDBRANCH  24  25
ENDBRANCH   4  24
ENDBRANCH  14   4
ENDBRANCH   8  14
TORSDOF 7
ENDMDL
MODEL 4
REMARK VINA RESULT:       2.2      1.772      2.631
REMARK  Name = 44716338
REMARK  9 active torsions:
REMARK  status: ('A' for Active; 'I' for Inactive)
REMARK    1  A    between atoms: O_1  and  C_30
REMARK    2  A    between atoms: O_1  and  C_31
REMARK    3  A    between atoms: N_3  and  C_20
REMARK    4  A    between atoms: N_4  and  C_14
REMARK    5  A    between atoms: N_4  and  C_24
REMARK    6  A    between atoms: C_7  and  C_13
REMARK    7  A    between atoms: C_8  and  C_14
REMARK    8  A    between atoms: C_16  and  C_17
REMARK    9  A    between atoms: C_24  and  C_25
REMARK                            x       y       z     vdW  Elec       q    Type
REMARK                         _______ _______ _______ _____ _____    ______ ____
ROOT
ATOM      2  N   UNL     1      -4.086   1.525  24.990  0.00  0.00    -0.298 NA
ATOM      6  C   UNL     1      -3.594  -0.673  23.681  0.00  0.00    +0.002 C 
ATOM      7  C   UNL     1      -2.543  -0.462  24.806  0.00  0.00    +0.055 C 
ATOM      8  C   UNL     1      -4.086   1.794  23.527  0.00  0.00    +0.071 C 
ATOM      9  C   UNL     1      -3.593   0.556  22.747  0.00  0.00    +0.024 C 
ATOM     10  C   UNL     1      -2.780   0.955  25.403  0.00  0.00    +0.094 C 
ATOM     11  C   UNL     1      -4.976  -0.721  24.366  0.00  0.00    +0.019 C 
ATOM     12  C   UNL     1      -5.139   0.518  25.265  0.00  0.00    +0.085 C 
ENDROOT
BRANCH   7  13
ATOM      3  N   UNL     1      -0.403  -1.824  24.885  0.00  0.00    -0.271 N 
ATOM      5  N   UNL     1       0.882  -1.855  24.491  0.00  0.00    -0.176 NA
ATOM     13  C   UNL     1      -1.078  -0.712  24.477  0.00  0.00    +0.044 A 
ATOM     15  C   UNL     1      -0.173   0.037  23.765  0.00  0.00    +0.048 A 
ATOM     16  C   UNL     1       1.017  -0.716  23.806  0.00  0.00    +0.066 A 
ATOM     20  C   UNL     1      -0.926  -2.918  25.671  0.00  0.00    +0.172 C 
BRANCH  16  17
ATOM     17  C   UNL     1       2.354  -0.367  23.180  0.00  0.00    +0.040 C 
ATOM     18  C   UNL     1       3.509  -1.158  23.819  0.00  0.00    +0.010 C 
ATOM     19  C   UNL     1       2.631   1.145  23.226  0.00  0.00    +0.010 C 
ATOM     21  C   UNL     1       4.850  -0.808  23.175  0.00  0.00    +0.001 C 
ATOM     22  C   UNL     1       3.975   1.487  22.584  0.00  0.00    +0.001 C 
ATOM     23  C   UNL     1       5.117   0.694  23.214  0.00  0.00    +0.000 C 
ENDBRANCH  16  17
ENDBRANCH   7  13
BRANCH   8  14
ATOM     14  C   UNL     1      -3.289   3.049  23.166  0.00  0.00    +0.100 C 
BRANCH  14   4
ATOM      4  N   UNL     1      -3.965   4.244  23.644  0.00  0.00    -0.311 NA
ATOM     32  H   UNL     1      -4.702   3.968  24.295  0.00  0.00    +0.122 HD
BRANCH   4  24
ATOM     24  C   UNL     1      -3.036   5.133  24.330  0.00  0.00    +0.116 C 
BRANCH  24  25
ATOM     25  C   UNL     1      -1.952   4.369  25.043  0.00  0.00    -0.033 A 
ATOM     26  C   UNL     1      -0.742   4.109  24.399  0.00  0.00    +0.008 A 
ATOM     27  C   UNL     1      -2.157   3.923  26.348  0.00  0.00    +0.008 A 
ATOM     28  C   UNL     1       0.261   3.402  25.060  0.00  0.00    +0.046 A 
ATOM     29  C   UNL     1      -1.154   3.216  27.010  0.00  0.00    +0.046 A 
ATOM     30  C   UNL     1       0.057   2.955  26.365  0.00  0.00    +0.120 A 
BRANCH  30   1
ATOM      1  O   UNL     1       1.036   2.266  27.011  0.00  0.00    -0.495 OA
ATOM     31  C   UNL     1       1.257   2.586  28.384  0.00  0.00    +0.277 C 
ENDBRANCH  30   1
ENDBRANCH  24  25
ENDBRANCH   4  24
ENDBRANCH  14   4
ENDBRANCH   8  14
TORSDOF 7
ENDMDL
MODEL 5
REMARK VINA RESULT:       2.5      2.191      7.368
REMARK  Name = 44716338
REMARK  9 active torsions:
REMARK  status: ('A' for Active; 'I' for Inactive)
REMARK    1  A    between atoms: O_1  and  C_30
REMARK    2  A    between atoms: O_1  and  C_31
REMARK    3  A    between atoms: N_3  and  C_20
REMARK    4  A    between atoms: N_4  and  C_14
REMARK    5  A    between atoms: N_4  and  C_24
REMARK    6  A    between atoms: C_7  and  C_13
REMARK    7  A    between atoms: C_8  and  C_14
REMARK    8  A    between atoms: C_16  and  C_17
REMARK    9  A    between atoms: C_24  and  C_25
REMARK                            x       y       z     vdW  Elec       q    Type
REMARK                         _______ _______ _______ _____ _____    ______ ____
ROOT
ATOM      2  N   UNL     1      -0.301   4.171  25.377  0.00  0.00    -0.298 NA
ATOM      6  C   UNL     1      -2.337   4.064  23.757  0.00  0.00    +0.002 C 
ATOM      7  C   UNL     1      -2.701   3.438  25.132  0.00  0.00    +0.055 C 
ATOM      8  C   UNL     1       0.119   3.597  24.071  0.00  0.00    +0.071 C 
ATOM      9  C   UNL     1      -1.109   3.333  23.174  0.00  0.00    +0.024 C 
ATOM     10  C   UNL     1      -1.391   3.355  25.966  0.00  0.00    +0.094 C 
ATOM     11  C   UNL     1      -1.909   5.522  24.031  0.00  0.00    +0.019 C 
ATOM     12  C   UNL     1      -0.826   5.534  25.125  0.00  0.00    +0.085 C 
ENDROOT
BRANCH   7  13
ATOM      3  N   UNL     1      -4.811   2.054  25.409  0.00  0.00    -0.271 N 
ATOM      5  N   UNL     1      -5.306   0.805  25.368  0.00  0.00    -0.176 NA
ATOM     13  C   UNL     1      -3.475   2.127  25.142  0.00  0.00    +0.044 A 
ATOM     15  C   UNL     1      -3.068   0.836  24.909  0.00  0.00    +0.048 A 
ATOM     16  C   UNL     1      -4.236   0.065  25.061  0.00  0.00    +0.066 A 
ATOM     20  C   UNL     1      -5.696   3.153  25.720  0.00  0.00    +0.172 C 
BRANCH  16  17
ATOM     17  C   UNL     1      -4.377  -1.439  24.917  0.00  0.00    +0.040 C 
ATOM     18  C   UNL     1      -3.186  -2.187  25.541  0.00  0.00    +0.010 C 
ATOM     19  C   UNL     1      -4.583  -1.857  23.450  0.00  0.00    +0.010 C 
ATOM     21  C   UNL     1      -3.341  -3.701  25.399  0.00  0.00    +0.001 C 
ATOM     22  C   UNL     1      -4.732  -3.371  23.316  0.00  0.00    +0.001 C 
ATOM     23  C   UNL     1      -3.554  -4.111  23.944  0.00  0.00    +0.000 C 
ENDBRANCH  16  17
ENDBRANCH   7  13
BRANCH   8  14
ATOM     14  C   UNL     1       0.984   2.345  24.237  0.00  0.00    +0.100 C 
BRANCH  14   4
ATOM      4  N   UNL     1       0.249   1.155  23.841  0.00  0.00    -0.311 NA
ATOM     32  H   UNL     1      -0.690   1.429  23.549  0.00  0.00    +0.122 HD
BRANCH   4  24
ATOM     24  C   UNL     1       0.909   0.475  22.734  0.00  0.00    +0.116 C 
BRANCH  24  25
ATOM     25  C   UNL     1       2.356   0.185  23.037  0.00  0.00    -0.033 A 
ATOM     26  C   UNL     1       2.725  -1.061  23.547  0.00  0.00    +0.008 A 
ATOM     27  C   UNL     1       3.326   1.160  22.808  0.00  0.00    +0.008 A 
ATOM     28  C   UNL     1       4.064  -1.329  23.827  0.00  0.00    +0.046 A 
ATOM     29  C   UNL     1       4.665   0.891  23.088  0.00  0.00    +0.046 A 
ATOM     30  C   UNL     1       5.035  -0.354  23.599  0.00  0.00    +0.120 A 
BRANCH  30   1
ATOM      1  O   UNL     1       6.342  -0.616  23.871  0.00  0.00    -0.495 OA
ATOM     31  C   UNL     1       7.257  -0.557  22.778  0.00  0.00    +0.277 C 
ENDBRANCH  30   1
ENDBRANCH  24  25
ENDBRANCH   4  24
ENDBRANCH  14   4
ENDBRANCH   8  14
TORSDOF 7
ENDMDL
MODEL 6
REMARK VINA RESULT:       2.8      2.177      6.716
REMARK  Name = 44716338
REMARK  9 active torsions:
REMARK  status: ('A' for Active; 'I' for Inactive)
REMARK    1  A    between atoms: O_1  and  C_30
REMARK    2  A    between atoms: O_1  and  C_31
REMARK    3  A    between atoms: N_3  and  C_20
REMARK    4  A    between atoms: N_4  and  C_14
REMARK    5  A    between atoms: N_4  and  C_24
REMARK    6  A    between atoms: C_7  and  C_13
REMARK    7  A    between atoms: C_8  and  C_14
REMARK    8  A    between atoms: C_16  and  C_17
REMARK    9  A    between atoms: C_24  and  C_25
REMARK                            x       y       z     vdW  Elec       q    Type
REMARK                         _______ _______ _______ _____ _____    ______ ____
ROOT
ATOM      2  N   UNL     1      -1.674   5.237  25.671  0.00  0.00    -0.298 NA
ATOM      6  C   UNL     1      -3.095   4.436  23.640  0.00  0.00    +0.002 C 
ATOM      7  C   UNL     1      -3.736   3.962  24.975  0.00  0.00    +0.055 C 
ATOM      8  C   UNL     1      -0.798   4.577  24.667  0.00  0.00    +0.071 C 
ATOM      9  C   UNL     1      -1.645   3.914  23.559  0.00  0.00    +0.024 C 
ATOM     10  C   UNL     1      -2.735   4.300  26.116  0.00  0.00    +0.094 C 
ATOM     11  C   UNL     1      -3.020   5.976  23.705  0.00  0.00    +0.019 C 
ATOM     12  C   UNL     1      -2.325   6.395  25.014  0.00  0.00    +0.085 C 
ENDROOT
BRANCH   7  13
ATOM      3  N   UNL     1      -5.511   2.212  25.454  0.00  0.00    -0.271 N 
ATOM      5  N   UNL     1      -5.764   0.892  25.460  0.00  0.00    -0.176 NA
ATOM     13  C   UNL     1      -4.245   2.530  25.058  0.00  0.00    +0.044 A 
ATOM     15  C   UNL     1      -3.626   1.335  24.785  0.00  0.00    +0.048 A 
ATOM     16  C   UNL     1      -4.609   0.361  25.050  0.00  0.00    +0.066 A 
ATOM     20  C   UNL     1      -6.553   3.131  25.851  0.00  0.00    +0.172 C 
BRANCH  16  17
ATOM     17  C   UNL     1      -4.477  -1.145  24.917  0.00  0.00    +0.040 C 
ATOM     18  C   UNL     1      -3.286  -1.688  25.726  0.00  0.00    +0.010 C 
ATOM     19  C   UNL     1      -4.390  -1.586  23.446  0.00  0.00    +0.010 C 
ATOM     21  C   UNL     1      -3.167  -3.207  25.595  0.00  0.00    +0.001 C 
ATOM     22  C   UNL     1      -4.267  -3.104  23.323  0.00  0.00    +0.001 C 
ATOM     23  C   UNL     1      -3.091  -3.640  24.134  0.00  0.00    +0.000 C 
ENDBRANCH  16  17
ENDBRANCH   7  13
BRANCH   8  14
ATOM     14  C   UNL     1       0.179   3.588  25.306  0.00  0.00    +0.100 C 
BRANCH  14   4
ATOM      4  N   UNL     1      -0.448   2.890  26.418  0.00  0.00    -0.311 NA
ATOM     32  H   UNL     1      -1.290   3.398  26.693  0.00  0.00    +0.122 HD
BRANCH   4  24
ATOM     24  C   UNL     1      -0.815   1.531  26.043  0.00  0.00    +0.116 C 
BRANCH  24  25
ATOM     25  C   UNL     1      -0.018   1.039  24.863  0.00  0.00    -0.033 A 
ATOM     26  C   UNL     1       1.145   1.709  24.481  0.00  0.00    +0.008 A 
ATOM     27  C   UNL     1      -0.440  -0.085  24.155  0.00  0.00    +0.008 A 
ATOM     28  C   UNL     1       1.884   1.253  23.389  0.00  0.00    +0.046 A 
ATOM     29  C   UNL     1       0.298  -0.540  23.064  0.00  0.00    +0.046 A 
ATOM     30  C   UNL     1       1.461   0.129  22.680  0.00  0.00    +0.120 A 
BRANCH  30   1
ATOM      1  O   UNL     1       2.183  -0.316  21.616  0.00  0.00    -0.495 OA
ATOM     31  C   UNL     1       3.541   0.113  21.528  0.00  0.00    +0.277 C 
ENDBRANCH  30   1
ENDBRANCH  24  25
ENDBRANCH   4  24
ENDBRANCH  14   4
ENDBRANCH   8  14
TORSDOF 7
ENDMDL
MODEL 7
REMARK VINA RESULT:       3.0      2.839      5.391
REMARK  Name = 44716338
REMARK  9 active torsions:
REMARK  status: ('A' for Active; 'I' for Inactive)
REMARK    1  A    between atoms: O_1  and  C_30
REMARK    2  A    between atoms: O_1  and  C_31
REMARK    3  A    between atoms: N_3  and  C_20
REMARK    4  A    between atoms: N_4  and  C_14
REMARK    5  A    between atoms: N_4  and  C_24
REMARK    6  A    between atoms: C_7  and  C_13
REMARK    7  A    between atoms: C_8  and  C_14
REMARK    8  A    between atoms: C_16  and  C_17
REMARK    9  A    between atoms: C_24  and  C_25
REMARK                            x       y       z     vdW  Elec       q    Type
REMARK                         _______ _______ _______ _____ _____    ______ ____
ROOT
ATOM      2  N   UNL     1      -5.060   2.490  23.875  0.00  0.00    -0.298 NA
ATOM      6  C   UNL     1      -4.480   3.582  26.167  0.00  0.00    +0.002 C 
ATOM      7  C   UNL     1      -3.295   3.739  25.174  0.00  0.00    +0.055 C 
ATOM      8  C   UNL     1      -5.349   1.537  24.980  0.00  0.00    +0.071 C 
ATOM      9  C   UNL     1      -4.820   2.086  26.323  0.00  0.00    +0.024 C 
ATOM     10  C   UNL     1      -3.633   2.894  23.912  0.00  0.00    +0.094 C 
ATOM     11  C   UNL     1      -5.703   4.260  25.511  0.00  0.00    +0.019 C 
ATOM     12  C   UNL     1      -5.890   3.699  24.090  0.00  0.00    +0.085 C 
ENDROOT
BRANCH   7  13
ATOM      3  N   UNL     1      -0.765   3.811  24.992  0.00  0.00    -0.271 N 
ATOM      5  N   UNL     1       0.381   3.490  25.618  0.00  0.00    -0.176 NA
ATOM     13  C   UNL     1      -1.888   3.472  25.688  0.00  0.00    +0.044 A 
ATOM     15  C   UNL     1      -1.447   2.889  26.851  0.00  0.00    +0.048 A 
ATOM     16  C   UNL     1      -0.042   2.927  26.754  0.00  0.00    +0.066 A 
ATOM     20  C   UNL     1      -0.705   4.453  23.699  0.00  0.00    +0.172 C 
BRANCH  16  17
ATOM     17  C   UNL     1       0.969   2.417  27.764  0.00  0.00    +0.040 C 
ATOM     18  C   UNL     1       0.401   2.422  29.194  0.00  0.00    +0.010 C 
ATOM     19  C   UNL     1       2.292   3.198  27.695  0.00  0.00    +0.010 C 
ATOM     21  C   UNL     1       1.422   1.897  30.203  0.00  0.00    +0.001 C 
ATOM     22  C   UNL     1       3.306   2.671  28.709  0.00  0.00    +0.001 C 
ATOM     23  C   UNL     1       2.737   2.668  30.125  0.00  0.00    +0.000 C 
ENDBRANCH  16  17
ENDBRANCH   7  13
BRANCH   8  14
ATOM     14  C   UNL     1      -4.819   0.131  24.690  0.00  0.00    +0.100 C 
BRANCH  14   4
ATOM      4  N   UNL     1      -4.066  -0.380  25.824  0.00  0.00    -0.311 NA
ATOM     32  H   UNL     1      -4.720  -0.741  26.519  0.00  0.00    +0.122 HD
BRANCH   4  24
ATOM     24  C   UNL     1      -3.168  -1.453  25.416  0.00  0.00    +0.116 C 
BRANCH  24  25
ATOM     25  C   UNL     1      -1.898  -0.920  24.807  0.00  0.00    -0.033 A 
ATOM     26  C   UNL     1      -1.914   0.284  24.102  0.00  0.00    +0.008 A 
ATOM     27  C   UNL     1      -0.706  -1.630  24.949  0.00  0.00    +0.008 A 
ATOM     28  C   UNL     1      -0.737   0.777  23.540  0.00  0.00    +0.046 A 
ATOM     29  C   UNL     1       0.471  -1.137  24.387  0.00  0.00    +0.046 A 
ATOM     30  C   UNL     1       0.456   0.068  23.681  0.00  0.00    +0.120 A 
BRANCH  30   1
ATOM      1  O   UNL     1       1.604   0.549  23.132  0.00  0.00    -0.495 OA
ATOM     31  C   UNL     1       2.174  -0.198  22.059  0.00  0.00    +0.277 C 
ENDBRANCH  30   1
ENDBRANCH  24  25
ENDBRANCH   4  24
ENDBRANCH  14   4
ENDBRANCH   8  14
TORSDOF 7
ENDMDL
