MODEL 1
REMARK VINA RESULT:      -6.3      0.000      0.000
REMARK  Name = 38030183
REMARK  8 active torsions:
REMARK  status: ('A' for Active; 'I' for Inactive)
REMARK    1  A    between atoms: O_1  and  C_12
REMARK    2  A    between atoms: C_4  and  C_8
REMARK    3  A    between atoms: C_6  and  C_11
REMARK    4  A    between atoms: C_7  and  C_12
REMARK    5  A    between atoms: C_8  and  C_13
REMARK    6  A    between atoms: C_8  and  C_14
REMARK    7  A    between atoms: C_9  and  C_16
REMARK    8  A    between atoms: C_11  and  C_15
REMARK                            x       y       z     vdW  Elec       q    Type
REMARK                         _______ _______ _______ _____ _____    ______ ____
ROOT
ATOM      4  C   UNL     1      -0.844   0.833  24.597  0.00  0.00    +0.001 C 
ATOM      5  C   UNL     1      -1.851   0.501  25.709  0.00  0.00    +0.012 C 
ATOM      6  C   UNL     1      -2.848  -0.594  25.286  0.00  0.00    +0.023 C 
ATOM      7  C   UNL     1      -0.043  -0.432  24.200  0.00  0.00    +0.040 C 
ATOM      9  C   UNL     1      -2.149  -1.770  24.634  0.00  0.00    -0.073 C 
ATOM     10  C   UNL     1      -0.891  -1.683  24.166  0.00  0.00    -0.022 C 
ATOM     16  C   UNL     1      -2.913  -3.063  24.572  0.00  0.00    +0.039 C 
ENDROOT
BRANCH   4   8
ATOM      8  C   UNL     1       0.077   1.968  25.054  0.00  0.00    -0.013 C 
ATOM     13  C   UNL     1      -0.102   3.190  24.159  0.00  0.00    +0.007 C 
ATOM     14  C   UNL     1      -0.197   2.322  26.513  0.00  0.00    +0.007 C 
ENDBRANCH   4   8
BRANCH   6  11
ATOM     11  C   UNL     1      -3.936  -0.025  24.368  0.00  0.00    +0.103 C 
BRANCH  11  15
ATOM      2  O   UNL     1      -5.602   0.591  25.955  0.00  0.00    -0.276 OA
ATOM      3  N   UNL     1      -4.549   2.301  24.813  0.00  0.00    -0.301 N 
ATOM     15  C   UNL     1      -4.775   0.973  25.125  0.00  0.00    +0.216 C 
ATOM     17  C   UNL     1      -5.282   3.385  25.449  0.00  0.00    +0.108 C 
ATOM     18  C   UNL     1      -3.585   2.818  23.845  0.00  0.00    +0.108 C 
ATOM     19  C   UNL     1      -4.511   4.640  25.070  0.00  0.00    +0.020 C 
ATOM     20  C   UNL     1      -3.947   4.289  23.699  0.00  0.00    +0.020 C 
ENDBRANCH  11  15
ENDBRANCH   6  11
BRANCH   7  12
ATOM     12  C   UNL     1       0.646  -0.246  22.843  0.00  0.00    +0.163 C 
BRANCH  12   1
ATOM      1  O   UNL     1       2.035  -0.106  23.067  0.00  0.00    -0.394 OA
ATOM     21  H   UNL     1       2.158   0.063  24.016  0.00  0.00    +0.209 HD
ENDBRANCH  12   1
ENDBRANCH   7  12
TORSDOF 5
ENDMDL
MODEL 2
REMARK VINA RESULT:      -5.9      2.091      5.338
REMARK  Name = 38030183
REMARK  8 active torsions:
REMARK  status: ('A' for Active; 'I' for Inactive)
REMARK    1  A    between atoms: O_1  and  C_12
REMARK    2  A    between atoms: C_4  and  C_8
REMARK    3  A    between atoms: C_6  and  C_11
REMARK    4  A    between atoms: C_7  and  C_12
REMARK    5  A    between atoms: C_8  and  C_13
REMARK    6  A    between atoms: C_8  and  C_14
REMARK    7  A    between atoms: C_9  and  C_16
REMARK    8  A    between atoms: C_11  and  C_15
REMARK                            x       y       z     vdW  Elec       q    Type
REMARK                         _______ _______ _______ _____ _____    ______ ____
ROOT
ATOM      4  C   UNL     1      -3.629   2.326  24.840  0.00  0.00    +0.001 C 
ATOM      5  C   UNL     1      -2.751   1.663  23.768  0.00  0.00    +0.012 C 
ATOM      6  C   UNL     1      -2.606   0.146  23.989  0.00  0.00    +0.023 C 
ATOM      7  C   UNL     1      -5.044   1.694  24.847  0.00  0.00    +0.040 C 
ATOM      9  C   UNL     1      -3.942  -0.512  24.272  0.00  0.00    -0.073 C 
ATOM     10  C   UNL     1      -5.023   0.197  24.641  0.00  0.00    -0.022 C 
ATOM     16  C   UNL     1      -4.019  -2.000  24.076  0.00  0.00    +0.039 C 
ENDROOT
BRANCH   4   8
ATOM      8  C   UNL     1      -3.683   3.838  24.604  0.00  0.00    -0.013 C 
ATOM     13  C   UNL     1      -2.398   4.499  25.091  0.00  0.00    +0.007 C 
ATOM     14  C   UNL     1      -3.919   4.138  23.126  0.00  0.00    +0.007 C 
ENDBRANCH   4   8
BRANCH   6  11
ATOM     11  C   UNL     1      -1.600  -0.156  25.106  0.00  0.00    +0.103 C 
BRANCH  11  15
ATOM      2  O   UNL     1      -0.300   1.725  25.774  0.00  0.00    -0.276 OA
ATOM      3  N   UNL     1       0.477   0.487  23.985  0.00  0.00    -0.301 N 
ATOM     15  C   UNL     1      -0.419   0.776  24.997  0.00  0.00    +0.216 C 
ATOM     17  C   UNL     1       1.664   1.295  23.744  0.00  0.00    +0.108 C 
ATOM     18  C   UNL     1       0.396  -0.620  23.036  0.00  0.00    +0.108 C 
ATOM     19  C   UNL     1       2.507   0.459  22.794  0.00  0.00    +0.020 C 
ATOM     20  C   UNL     1       1.459  -0.304  21.994  0.00  0.00    +0.020 C 
ENDBRANCH  11  15
ENDBRANCH   6  11
BRANCH   7  12
ATOM     12  C   UNL     1      -5.789   2.021  26.146  0.00  0.00    +0.163 C 
BRANCH  12   1
ATOM      1  O   UNL     1      -6.184   3.377  26.101  0.00  0.00    -0.394 OA
ATOM     21  H   UNL     1      -6.497   3.557  25.199  0.00  0.00    +0.209 HD
ENDBRANCH  12   1
ENDBRANCH   7  12
TORSDOF 5
ENDMDL
MODEL 3
REMARK VINA RESULT:      -5.8      2.363      4.972
REMARK  Name = 38030183
REMARK  8 active torsions:
REMARK  status: ('A' for Active; 'I' for Inactive)
REMARK    1  A    between atoms: O_1  and  C_12
REMARK    2  A    between atoms: C_4  and  C_8
REMARK    3  A    between atoms: C_6  and  C_11
REMARK    4  A    between atoms: C_7  and  C_12
REMARK    5  A    between atoms: C_8  and  C_13
REMARK    6  A    between atoms: C_8  and  C_14
REMARK    7  A    between atoms: C_9  and  C_16
REMARK    8  A    between atoms: C_11  and  C_15
REMARK                            x       y       z     vdW  Elec       q    Type
REMARK                         _______ _______ _______ _____ _____    ______ ____
ROOT
ATOM      4  C   UNL     1      -2.737   2.197  24.300  0.00  0.00    +0.001 C 
ATOM      5  C   UNL     1      -3.927   1.430  23.705  0.00  0.00    +0.012 C 
ATOM      6  C   UNL     1      -4.990   1.088  24.767  0.00  0.00    +0.023 C 
ATOM      7  C   UNL     1      -3.217   3.516  24.955  0.00  0.00    +0.040 C 
ATOM      9  C   UNL     1      -5.322   2.284  25.636  0.00  0.00    -0.073 C 
ATOM     10  C   UNL     1      -4.525   3.365  25.697  0.00  0.00    -0.022 C 
ATOM     16  C   UNL     1      -6.615   2.229  26.399  0.00  0.00    +0.039 C 
ENDROOT
BRANCH   4   8
ATOM      8  C   UNL     1      -1.688   2.451  23.212  0.00  0.00    -0.013 C 
ATOM     13  C   UNL     1      -0.408   1.680  23.517  0.00  0.00    +0.007 C 
ATOM     14  C   UNL     1      -2.239   2.066  21.842  0.00  0.00    +0.007 C 
ENDBRANCH   4   8
BRANCH   6  11
ATOM     11  C   UNL     1      -4.552  -0.106  25.622  0.00  0.00    +0.103 C 
BRANCH  11  15
ATOM      2  O   UNL     1      -4.649  -1.796  23.945  0.00  0.00    -0.276 OA
ATOM      3  N   UNL     1      -2.591  -1.383  24.910  0.00  0.00    -0.301 N 
ATOM     15  C   UNL     1      -3.946  -1.172  24.743  0.00  0.00    +0.216 C 
ATOM     17  C   UNL     1      -1.859  -2.381  24.144  0.00  0.00    +0.108 C 
ATOM     18  C   UNL     1      -1.704  -0.678  25.832  0.00  0.00    +0.108 C 
ATOM     19  C   UNL     1      -0.395  -2.056  24.395  0.00  0.00    +0.020 C 
ATOM     20  C   UNL     1      -0.413  -1.483  25.807  0.00  0.00    +0.020 C 
ENDBRANCH  11  15
ENDBRANCH   6  11
BRANCH   7  12
ATOM     12  C   UNL     1      -2.153   4.081  25.903  0.00  0.00    +0.163 C 
BRANCH  12   1
ATOM      1  O   UNL     1      -1.582   5.224  25.298  0.00  0.00    -0.394 OA
ATOM     21  H   UNL     1      -0.641   5.032  25.150  0.00  0.00    +0.209 HD
ENDBRANCH  12   1
ENDBRANCH   7  12
TORSDOF 5
ENDMDL
MODEL 4
REMARK VINA RESULT:      -5.5      1.977      4.649
REMARK  Name = 38030183
REMARK  8 active torsions:
REMARK  status: ('A' for Active; 'I' for Inactive)
REMARK    1  A    between atoms: O_1  and  C_12
REMARK    2  A    between atoms: C_4  and  C_8
REMARK    3  A    between atoms: C_6  and  C_11
REMARK    4  A    between atoms: C_7  and  C_12
REMARK    5  A    between atoms: C_8  and  C_13
REMARK    6  A    between atoms: C_8  and  C_14
REMARK    7  A    between atoms: C_9  and  C_16
REMARK    8  A    between atoms: C_11  and  C_15
REMARK                            x       y       z     vdW  Elec       q    Type
REMARK                         _______ _______ _______ _____ _____    ______ ____
ROOT
ATOM      4  C   UNL     1      -2.134   2.925  24.915  0.00  0.00    +0.001 C 
ATOM      5  C   UNL     1      -0.751   2.651  25.524  0.00  0.00    +0.012 C 
ATOM      6  C   UNL     1      -0.270   1.213  25.256  0.00  0.00    +0.023 C 
ATOM      7  C   UNL     1      -2.105   2.696  23.383  0.00  0.00    +0.040 C 
ATOM      9  C   UNL     1      -0.461   0.817  23.805  0.00  0.00    -0.073 C 
ATOM     10  C   UNL     1      -1.275   1.500  22.980  0.00  0.00    -0.022 C 
ATOM     16  C   UNL     1       0.340  -0.355  23.311  0.00  0.00    +0.039 C 
ENDROOT
BRANCH   4   8
ATOM      8  C   UNL     1      -2.583   4.346  25.269  0.00  0.00    -0.013 C 
ATOM     13  C   UNL     1      -3.164   4.385  26.679  0.00  0.00    +0.007 C 
ATOM     14  C   UNL     1      -1.418   5.322  25.138  0.00  0.00    +0.007 C 
ENDBRANCH   4   8
BRANCH   6  11
ATOM     11  C   UNL     1      -0.962   0.215  26.191  0.00  0.00    +0.103 C 
BRANCH  11  15
ATOM      2  O   UNL     1      -0.020  -1.870  25.528  0.00  0.00    -0.276 OA
ATOM      3  N   UNL     1      -2.231  -1.488  24.978  0.00  0.00    -0.301 N 
ATOM     15  C   UNL     1      -1.016  -1.144  25.541  0.00  0.00    +0.216 C 
ATOM     17  C   UNL     1      -2.444  -2.762  24.307  0.00  0.00    +0.108 C 
ATOM     18  C   UNL     1      -3.446  -0.678  24.962  0.00  0.00    +0.108 C 
ATOM     19  C   UNL     1      -3.953  -2.857  24.141  0.00  0.00    +0.020 C 
ATOM     20  C   UNL     1      -4.370  -1.399  23.991  0.00  0.00    +0.020 C 
ENDBRANCH  11  15
ENDBRANCH   6  11
BRANCH   7  12
ATOM     12  C   UNL     1      -3.523   2.548  22.820  0.00  0.00    +0.163 C 
BRANCH  12   1
ATOM      1  O   UNL     1      -4.403   2.292  23.896  0.00  0.00    -0.394 OA
ATOM     21  H   UNL     1      -4.090   2.812  24.655  0.00  0.00    +0.209 HD
ENDBRANCH  12   1
ENDBRANCH   7  12
TORSDOF 5
ENDMDL
MODEL 5
REMARK VINA RESULT:      -5.4      1.552      4.614
REMARK  Name = 38030183
REMARK  8 active torsions:
REMARK  status: ('A' for Active; 'I' for Inactive)
REMARK    1  A    between atoms: O_1  and  C_12
REMARK    2  A    between atoms: C_4  and  C_8
REMARK    3  A    between atoms: C_6  and  C_11
REMARK    4  A    between atoms: C_7  and  C_12
REMARK    5  A    between atoms: C_8  and  C_13
REMARK    6  A    between atoms: C_8  and  C_14
REMARK    7  A    between atoms: C_9  and  C_16
REMARK    8  A    between atoms: C_11  and  C_15
REMARK                            x       y       z     vdW  Elec       q    Type
REMARK                         _______ _______ _______ _____ _____    ______ ____
ROOT
ATOM      4  C   UNL     1      -3.515   1.314  23.988  0.00  0.00    +0.001 C 
ATOM      5  C   UNL     1      -2.745   0.292  23.138  0.00  0.00    +0.012 C 
ATOM      6  C   UNL     1      -2.349  -0.958  23.946  0.00  0.00    +0.023 C 
ATOM      7  C   UNL     1      -4.802   0.676  24.566  0.00  0.00    +0.040 C 
ATOM      9  C   UNL     1      -3.509  -1.492  24.762  0.00  0.00    -0.073 C 
ATOM     10  C   UNL     1      -4.603  -0.753  25.017  0.00  0.00    -0.022 C 
ATOM     16  C   UNL     1      -3.404  -2.913  25.239  0.00  0.00    +0.039 C 
ENDROOT
BRANCH   4   8
ATOM      8  C   UNL     1      -3.825   2.557  23.148  0.00  0.00    -0.013 C 
ATOM     13  C   UNL     1      -3.798   3.808  24.020  0.00  0.00    +0.007 C 
ATOM     14  C   UNL     1      -2.834   2.681  21.994  0.00  0.00    +0.007 C 
ENDBRANCH   4   8
BRANCH   6  11
ATOM     11  C   UNL     1      -1.136  -0.676  24.839  0.00  0.00    +0.103 C 
BRANCH  11  15
ATOM      2  O   UNL     1       0.516   0.024  23.272  0.00  0.00    -0.276 OA
ATOM      3  N   UNL     1      -0.347   1.635  24.684  0.00  0.00    -0.301 N 
ATOM     15  C   UNL     1      -0.245   0.350  24.185  0.00  0.00    +0.216 C 
ATOM     17  C   UNL     1       0.450   2.737  24.166  0.00  0.00    +0.108 C 
ATOM     18  C   UNL     1      -1.229   2.087  25.758  0.00  0.00    +0.108 C 
ATOM     19  C   UNL     1      -0.199   3.983  24.748  0.00  0.00    +0.020 C 
ATOM     20  C   UNL     1      -0.740   3.490  26.084  0.00  0.00    +0.020 C 
ENDBRANCH  11  15
ENDBRANCH   6  11
BRANCH   7  12
ATOM     12  C   UNL     1      -5.356   1.506  25.730  0.00  0.00    +0.163 C 
BRANCH  12   1
ATOM      1  O   UNL     1      -6.607   2.037  25.340  0.00  0.00    -0.394 OA
ATOM     21  H   UNL     1      -7.243   1.301  25.333  0.00  0.00    +0.209 HD
ENDBRANCH  12   1
ENDBRANCH   7  12
TORSDOF 5
ENDMDL
MODEL 6
REMARK VINA RESULT:      -4.8      2.390      6.262
REMARK  Name = 38030183
REMARK  8 active torsions:
REMARK  status: ('A' for Active; 'I' for Inactive)
REMARK    1  A    between atoms: O_1  and  C_12
REMARK    2  A    between atoms: C_4  and  C_8
REMARK    3  A    between atoms: C_6  and  C_11
REMARK    4  A    between atoms: C_7  and  C_12
REMARK    5  A    between atoms: C_8  and  C_13
REMARK    6  A    between atoms: C_8  and  C_14
REMARK    7  A    between atoms: C_9  and  C_16
REMARK    8  A    between atoms: C_11  and  C_15
REMARK                            x       y       z     vdW  Elec       q    Type
REMARK                         _______ _______ _______ _____ _____    ______ ____
ROOT
ATOM      4  C   UNL     1      -3.148   0.561  24.795  0.00  0.00    +0.001 C 
ATOM      5  C   UNL     1      -1.740   0.464  25.401  0.00  0.00    +0.012 C 
ATOM      6  C   UNL     1      -0.838   1.636  24.970  0.00  0.00    +0.023 C 
ATOM      7  C   UNL     1      -3.830   1.885  25.221  0.00  0.00    +0.040 C 
ATOM      9  C   UNL     1      -1.545   2.970  25.109  0.00  0.00    -0.073 C 
ATOM     10  C   UNL     1      -2.881   3.061  25.234  0.00  0.00    -0.022 C 
ATOM     16  C   UNL     1      -0.676   4.196  25.148  0.00  0.00    +0.039 C 
ENDROOT
BRANCH   4   8
ATOM      8  C   UNL     1      -3.974  -0.662  25.207  0.00  0.00    -0.013 C 
ATOM     13  C   UNL     1      -4.288  -1.526  23.990  0.00  0.00    +0.007 C 
ATOM     14  C   UNL     1      -3.235  -1.471  26.269  0.00  0.00    +0.007 C 
ENDBRANCH   4   8
BRANCH   6  11
ATOM     11  C   UNL     1      -0.318   1.438  23.543  0.00  0.00    +0.103 C 
BRANCH  11  15
ATOM      2  O   UNL     1      -0.064  -0.929  23.633  0.00  0.00    -0.276 OA
ATOM      3  N   UNL     1       1.829   0.320  23.194  0.00  0.00    -0.301 N 
ATOM     15  C   UNL     1       0.482   0.163  23.461  0.00  0.00    +0.216 C 
ATOM     17  C   UNL     1       2.738  -0.812  23.091  0.00  0.00    +0.108 C 
ATOM     18  C   UNL     1       2.535   1.580  22.976  0.00  0.00    +0.108 C 
ATOM     19  C   UNL     1       4.003  -0.230  22.479  0.00  0.00    +0.020 C 
ATOM     20  C   UNL     1       4.008   1.199  23.007  0.00  0.00    +0.020 C 
ENDBRANCH  11  15
ENDBRANCH   6  11
BRANCH   7  12
ATOM     12  C   UNL     1      -5.028   2.205  24.319  0.00  0.00    +0.163 C 
BRANCH  12   1
ATOM      1  O   UNL     1      -6.204   2.115  25.097  0.00  0.00    -0.394 OA
ATOM     21  H   UNL     1      -6.704   1.345  24.777  0.00  0.00    +0.209 HD
ENDBRANCH  12   1
ENDBRANCH   7  12
TORSDOF 5
ENDMDL
MODEL 7
REMARK VINA RESULT:      -4.8      2.254      5.457
REMARK  Name = 38030183
REMARK  8 active torsions:
REMARK  status: ('A' for Active; 'I' for Inactive)
REMARK    1  A    between atoms: O_1  and  C_12
REMARK    2  A    between atoms: C_4  and  C_8
REMARK    3  A    between atoms: C_6  and  C_11
REMARK    4  A    between atoms: C_7  and  C_12
REMARK    5  A    between atoms: C_8  and  C_13
REMARK    6  A    between atoms: C_8  and  C_14
REMARK    7  A    between atoms: C_9  and  C_16
REMARK    8  A    between atoms: C_11  and  C_15
REMARK                            x       y       z     vdW  Elec       q    Type
REMARK                         _______ _______ _______ _____ _____    ______ ____
ROOT
ATOM      4  C   UNL     1      -3.412   2.944  24.774  0.00  0.00    +0.001 C 
ATOM      5  C   UNL     1      -3.104   1.645  25.534  0.00  0.00    +0.012 C 
ATOM      6  C   UNL     1      -1.592   1.367  25.624  0.00  0.00    +0.023 C 
ATOM      7  C   UNL     1      -2.732   4.150  25.469  0.00  0.00    +0.040 C 
ATOM      9  C   UNL     1      -0.817   2.599  26.048  0.00  0.00    -0.073 C 
ATOM     10  C   UNL     1      -1.348   3.833  25.984  0.00  0.00    -0.022 C 
ATOM     16  C   UNL     1       0.566   2.376  26.591  0.00  0.00    +0.039 C 
ENDROOT
BRANCH   4   8
ATOM      8  C   UNL     1      -4.928   3.132  24.663  0.00  0.00    -0.013 C 
ATOM     13  C   UNL     1      -5.640   1.786  24.760  0.00  0.00    +0.007 C 
ATOM     14  C   UNL     1      -5.427   4.086  25.744  0.00  0.00    +0.007 C 
ENDBRANCH   4   8
BRANCH   6  11
ATOM     11  C   UNL     1      -1.053   0.809  24.303  0.00  0.00    +0.103 C 
BRANCH  11  15
ATOM      2  O   UNL     1       0.224  -1.185  24.562  0.00  0.00    -0.276 OA
ATOM      3  N   UNL     1      -2.059  -1.421  24.304  0.00  0.00    -0.301 N 
ATOM     15  C   UNL     1      -0.892  -0.687  24.405  0.00  0.00    +0.216 C 
ATOM     17  C   UNL     1      -2.072  -2.874  24.376  0.00  0.00    +0.108 C 
ATOM     18  C   UNL     1      -3.409  -0.894  24.122  0.00  0.00    +0.108 C 
ATOM     19  C   UNL     1      -3.539  -3.234  24.550  0.00  0.00    +0.020 C 
ATOM     20  C   UNL     1      -4.253  -2.118  23.798  0.00  0.00    +0.020 C 
ENDBRANCH  11  15
ENDBRANCH   6  11
BRANCH   7  12
ATOM     12  C   UNL     1      -2.664   5.361  24.531  0.00  0.00    +0.163 C 
BRANCH  12   1
ATOM      1  O   UNL     1      -1.423   6.008  24.733  0.00  0.00    -0.394 OA
ATOM     21  H   UNL     1      -0.734   5.434  24.360  0.00  0.00    +0.209 HD
ENDBRANCH  12   1
ENDBRANCH   7  12
TORSDOF 5
ENDMDL
MODEL 8
REMARK VINA RESULT:      -4.4      2.166      5.530
REMARK  Name = 38030183
REMARK  8 active torsions:
REMARK  status: ('A' for Active; 'I' for Inactive)
REMARK    1  A    between atoms: O_1  and  C_12
REMARK    2  A    between atoms: C_4  and  C_8
REMARK    3  A    between atoms: C_6  and  C_11
REMARK    4  A    between atoms: C_7  and  C_12
REMARK    5  A    between atoms: C_8  and  C_13
REMARK    6  A    between atoms: C_8  and  C_14
REMARK    7  A    between atoms: C_9  and  C_16
REMARK    8  A    between atoms: C_11  and  C_15
REMARK                            x       y       z     vdW  Elec       q    Type
REMARK                         _______ _______ _______ _____ _____    ______ ____
ROOT
ATOM      4  C   UNL     1      -3.512   1.992  24.697  0.00  0.00    +0.001 C 
ATOM      5  C   UNL     1      -3.354   2.714  26.044  0.00  0.00    +0.012 C 
ATOM      6  C   UNL     1      -2.095   3.600  26.086  0.00  0.00    +0.023 C 
ATOM      7  C   UNL     1      -3.596   3.019  23.540  0.00  0.00    +0.040 C 
ATOM      9  C   UNL     1      -1.966   4.455  24.841  0.00  0.00    -0.073 C 
ATOM     10  C   UNL     1      -2.655   4.188  23.717  0.00  0.00    -0.022 C 
ATOM     16  C   UNL     1      -1.061   5.651  24.931  0.00  0.00    +0.039 C 
ENDROOT
BRANCH   4   8
ATOM      8  C   UNL     1      -4.743   1.081  24.739  0.00  0.00    -0.013 C 
ATOM     13  C   UNL     1      -4.374  -0.284  25.310  0.00  0.00    +0.007 C 
ATOM     14  C   UNL     1      -5.856   1.727  25.559  0.00  0.00    +0.007 C 
ENDBRANCH   4   8
BRANCH   6  11
ATOM     11  C   UNL     1      -0.833   2.758  26.305  0.00  0.00    +0.103 C 
BRANCH  11  15
ATOM      2  O   UNL     1       0.014   2.844  24.080  0.00  0.00    -0.276 OA
ATOM      3  N   UNL     1      -0.507   0.760  24.931  0.00  0.00    -0.301 N 
ATOM     15  C   UNL     1      -0.399   2.137  25.001  0.00  0.00    +0.216 C 
ATOM     17  C   UNL     1      -0.136   0.011  23.740  0.00  0.00    +0.108 C 
ATOM     18  C   UNL     1      -0.983  -0.133  25.984  0.00  0.00    +0.108 C 
ATOM     19  C   UNL     1      -0.097  -1.438  24.198  0.00  0.00    +0.020 C 
ATOM     20  C   UNL     1      -1.158  -1.476  25.291  0.00  0.00    +0.020 C 
ENDBRANCH  11  15
ENDBRANCH   6  11
BRANCH   7  12
ATOM     12  C   UNL     1      -3.332   2.350  22.187  0.00  0.00    +0.163 C 
BRANCH  12   1
ATOM      1  O   UNL     1      -1.938   2.151  22.055  0.00  0.00    -0.394 OA
ATOM     21  H   UNL     1      -1.688   2.444  21.163  0.00  0.00    +0.209 HD
ENDBRANCH  12   1
ENDBRANCH   7  12
TORSDOF 5
ENDMDL
MODEL 9
REMARK VINA RESULT:      -4.1      1.846      4.536
REMARK  Name = 38030183
REMARK  8 active torsions:
REMARK  status: ('A' for Active; 'I' for Inactive)
REMARK    1  A    between atoms: O_1  and  C_12
REMARK    2  A    between atoms: C_4  and  C_8
REMARK    3  A    between atoms: C_6  and  C_11
REMARK    4  A    between atoms: C_7  and  C_12
REMARK    5  A    between atoms: C_8  and  C_13
REMARK    6  A    between atoms: C_8  and  C_14
REMARK    7  A    between atoms: C_9  and  C_16
REMARK    8  A    between atoms: C_11  and  C_15
REMARK                            x       y       z     vdW  Elec       q    Type
REMARK                         _______ _______ _______ _____ _____    ______ ____
ROOT
ATOM      4  C   UNL     1      -1.813   2.148  24.159  0.00  0.00    +0.001 C 
ATOM      5  C   UNL     1      -3.188   2.749  23.829  0.00  0.00    +0.012 C 
ATOM      6  C   UNL     1      -3.903   3.290  25.081  0.00  0.00    +0.023 C 
ATOM      7  C   UNL     1      -0.903   3.213  24.822  0.00  0.00    +0.040 C 
ATOM      9  C   UNL     1      -2.981   4.139  25.934  0.00  0.00    -0.073 C 
ATOM     10  C   UNL     1      -1.644   4.100  25.794  0.00  0.00    -0.022 C 
ATOM     16  C   UNL     1      -3.633   5.067  26.920  0.00  0.00    +0.039 C 
ENDROOT
BRANCH   4   8
ATOM      8  C   UNL     1      -1.181   1.571  22.888  0.00  0.00    -0.013 C 
ATOM     13  C   UNL     1      -0.552   0.212  23.177  0.00  0.00    +0.007 C 
ATOM     14  C   UNL     1      -2.222   1.461  21.779  0.00  0.00    +0.007 C 
ENDBRANCH   4   8
BRANCH   6  11
ATOM     11  C   UNL     1      -4.516   2.151  25.903  0.00  0.00    +0.103 C 
BRANCH  11  15
ATOM      2  O   UNL     1      -6.090   1.314  24.324  0.00  0.00    -0.276 OA
ATOM      3  N   UNL     1      -4.369  -0.096  24.947  0.00  0.00    -0.301 N 
ATOM     15  C   UNL     1      -5.071   1.095  24.982  0.00  0.00    +0.216 C 
ATOM     17  C   UNL     1      -4.780  -1.216  24.115  0.00  0.00    +0.108 C 
ATOM     18  C   UNL     1      -3.157  -0.417  25.696  0.00  0.00    +0.108 C 
ATOM     19  C   UNL     1      -3.586  -2.158  24.128  0.00  0.00    +0.020 C 
ATOM     20  C   UNL     1      -2.978  -1.916  25.504  0.00  0.00    +0.020 C 
ENDBRANCH  11  15
ENDBRANCH   6  11
BRANCH   7  12
ATOM     12  C   UNL     1       0.287   2.557  25.532  0.00  0.00    +0.163 C 
BRANCH  12   1
ATOM      1  O   UNL     1      -0.198   1.478  26.306  0.00  0.00    -0.394 OA
ATOM     21  H   UNL     1      -0.986   1.793  26.778  0.00  0.00    +0.209 HD
ENDBRANCH  12   1
ENDBRANCH   7  12
TORSDOF 5
ENDMDL
MODEL 10
REMARK VINA RESULT:      -3.4      2.145      3.789
REMARK  Name = 38030183
REMARK  8 active torsions:
REMARK  status: ('A' for Active; 'I' for Inactive)
REMARK    1  A    between atoms: O_1  and  C_12
REMARK    2  A    between atoms: C_4  and  C_8
REMARK    3  A    between atoms: C_6  and  C_11
REMARK    4  A    between atoms: C_7  and  C_12
REMARK    5  A    between atoms: C_8  and  C_13
REMARK    6  A    between atoms: C_8  and  C_14
REMARK    7  A    between atoms: C_9  and  C_16
REMARK    8  A    between atoms: C_11  and  C_15
REMARK                            x       y       z     vdW  Elec       q    Type
REMARK                         _______ _______ _______ _____ _____    ______ ____
ROOT
ATOM      4  C   UNL     1      -2.493  -0.316  24.573  0.00  0.00    +0.001 C 
ATOM      5  C   UNL     1      -2.364   0.043  23.085  0.00  0.00    +0.012 C 
ATOM      6  C   UNL     1      -0.998   0.675  22.754  0.00  0.00    +0.023 C 
ATOM      7  C   UNL     1      -1.379  -1.310  24.987  0.00  0.00    +0.040 C 
ATOM      9  C   UNL     1       0.147  -0.109  23.363  0.00  0.00    -0.073 C 
ATOM     10  C   UNL     1      -0.044  -1.001  24.351  0.00  0.00    -0.022 C 
ATOM     16  C   UNL     1       1.512   0.123  22.779  0.00  0.00    +0.039 C 
ENDROOT
BRANCH   4   8
ATOM      8  C   UNL     1      -3.890  -0.880  24.850  0.00  0.00    -0.013 C 
ATOM     13  C   UNL     1      -4.935   0.229  24.778  0.00  0.00    +0.007 C 
ATOM     14  C   UNL     1      -4.219  -1.998  23.865  0.00  0.00    +0.007 C 
ENDBRANCH   4   8
BRANCH   6  11
ATOM     11  C   UNL     1      -0.950   2.143  23.189  0.00  0.00    +0.103 C 
BRANCH  11  15
ATOM      2  O   UNL     1      -2.920   2.810  22.028  0.00  0.00    -0.276 OA
ATOM      3  N   UNL     1      -2.847   3.215  24.301  0.00  0.00    -0.301 N 
ATOM     15  C   UNL     1      -2.329   2.748  23.108  0.00  0.00    +0.216 C 
ATOM     17  C   UNL     1      -4.162   3.833  24.389  0.00  0.00    +0.108 C 
ATOM     18  C   UNL     1      -2.202   3.169  25.611  0.00  0.00    +0.108 C 
ATOM     19  C   UNL     1      -4.456   3.889  25.880  0.00  0.00    +0.020 C 
ATOM     20  C   UNL     1      -3.072   4.052  26.493  0.00  0.00    +0.020 C 
ENDBRANCH  11  15
ENDBRANCH   6  11
BRANCH   7  12
ATOM     12  C   UNL     1      -1.220  -1.358  26.511  0.00  0.00    +0.163 C 
BRANCH  12   1
ATOM      1  O   UNL     1      -0.874  -0.063  26.961  0.00  0.00    -0.394 OA
ATOM     21  H   UNL     1      -1.000   0.545  26.214  0.00  0.00    +0.209 HD
ENDBRANCH  12   1
ENDBRANCH   7  12
TORSDOF 5
ENDMDL
