MODEL 1
REMARK VINA RESULT:       3.0      0.000      0.000
REMARK  Name = 11882571
REMARK  13 active torsions:
REMARK  status: ('A' for Active; 'I' for Inactive)
REMARK    1  A    between atoms: S_1  and  N_13
REMARK    2  A    between atoms: S_1  and  C_24
REMARK    3  A    between atoms: O_5  and  C_16
REMARK    4  A    between atoms: O_6  and  C_19
REMARK    5  A    between atoms: O_7  and  C_21
REMARK    6  A    between atoms: O_12  and  C_38
REMARK    7  A    between atoms: N_13  and  C_17
REMARK    8  A    between atoms: N_14  and  C_23
REMARK    9  A    between atoms: C_16  and  C_22
REMARK   10  A    between atoms: C_23  and  C_25
REMARK   11  A    between atoms: C_23  and  C_26
REMARK   12  A    between atoms: C_25  and  C_29
REMARK   13  A    between atoms: C_30  and  C_35
REMARK                            x       y       z     vdW  Elec       q    Type
REMARK                         _______ _______ _______ _____ _____    ______ ____
ROOT
ATOM     16  C   UNL     1      -2.305   2.782  23.537  0.00  0.00    +0.145 C 
ATOM     17  C   UNL     1      -0.372   1.357  24.354  0.00  0.00    +0.111 C 
ATOM     18  C   UNL     1      -1.889   1.452  24.171  0.00  0.00    +0.067 C 
ATOM     19  C   UNL     1       0.196   2.551  25.129  0.00  0.00    +0.162 C 
ATOM     20  C   UNL     1      -1.755   3.966  24.328  0.00  0.00    +0.078 C 
ATOM     21  C   UNL     1      -0.239   3.885  24.512  0.00  0.00    +0.148 C 
ENDROOT
BRANCH  16  22
ATOM      8  O   UNL     1      -4.350   3.481  22.520  0.00  0.00    -0.273 OA
ATOM     14  N   UNL     1      -4.436   2.235  24.484  0.00  0.00    -0.301 N 
ATOM     22  C   UNL     1      -3.799   2.875  23.436  0.00  0.00    +0.245 C 
ATOM     43  H   UNL     1      -3.893   1.797  25.221  0.00  0.00    +0.150 HD
BRANCH  14  23
ATOM     23  C   UNL     1      -5.874   2.200  24.633  0.00  0.00    +0.163 C 
BRANCH  23  26
ATOM     11  O   UNL     1      -6.227   4.301  25.803  0.00  0.00    -0.274 OA
ATOM     15  N   UNL     1      -6.585   2.336  26.938  0.00  0.00    -0.328 N 
ATOM     26  C   UNL     1      -6.223   3.071  25.830  0.00  0.00    +0.231 C 
ATOM     44  H   UNL     1      -6.857   2.795  27.801  0.00  0.00    +0.145 HD
ATOM     45  H   UNL     1      -6.581   1.321  26.946  0.00  0.00    +0.145 HD
ENDBRANCH  23  26
BRANCH  23  25
ATOM     25  C   UNL     1      -6.400   0.774  24.839  0.00  0.00    +0.067 C 
BRANCH  25  29
ATOM     29  C   UNL     1      -5.297  -0.256  24.872  0.00  0.00    -0.045 A 
ATOM     33  C   UNL     1      -5.144  -1.149  23.812  0.00  0.00    +0.007 A 
ATOM     34  C   UNL     1      -4.432  -0.315  25.964  0.00  0.00    +0.007 A 
ATOM     36  C   UNL     1      -4.125  -2.100  23.843  0.00  0.00    +0.045 A 
ATOM     37  C   UNL     1      -3.412  -1.267  25.996  0.00  0.00    +0.045 A 
ATOM     38  C   UNL     1      -3.259  -2.160  24.935  0.00  0.00    +0.117 A 
BRANCH  38  12
ATOM     12  O   UNL     1      -2.264  -3.087  24.965  0.00  0.00    -0.507 OA
ATOM     46  H   UNL     1      -1.842  -3.070  25.841  0.00  0.00    +0.292 HD
ENDBRANCH  38  12
ENDBRANCH  25  29
ENDBRANCH  23  25
ENDBRANCH  14  23
ENDBRANCH  16  22
BRANCH  16   5
ATOM      5  O   UNL     1      -1.839   2.861  22.195  0.00  0.00    -0.379 OA
ATOM     40  H   UNL     1      -1.562   3.777  22.023  0.00  0.00    +0.211 HD
ENDBRANCH  16   5
BRANCH  19   6
ATOM      6  O   UNL     1       1.623   2.468  25.082  0.00  0.00    -0.388 OA
ATOM     41  H   UNL     1       1.891   2.389  24.151  0.00  0.00    +0.210 HD
ENDBRANCH  19   6
BRANCH  21   7
ATOM      7  O   UNL     1       0.150   4.959  25.370  0.00  0.00    -0.389 OA
ATOM     42  H   UNL     1      -0.603   5.570  25.435  0.00  0.00    +0.210 HD
ENDBRANCH  21   7
BRANCH  17  13
ATOM     13  N   UNL     1      -0.063   0.104  25.097  0.00  0.00    -0.184 NA
ATOM     39  H   UNL     1      -0.485   0.008  26.028  0.00  0.00    +0.148 HD
BRANCH  13   1
ATOM      1  S   UNL     1       0.399  -1.284  24.243  0.00  0.00    +0.059 S 
ATOM      9  O   UNL     1      -0.651  -1.655  23.314  0.00  0.00    -0.153 OA
ATOM     10  O   UNL     1       0.915  -2.257  25.187  0.00  0.00    -0.153 OA
BRANCH   1  24
ATOM     24  C   UNL     1       1.777  -0.697  23.303  0.00  0.00    +0.106 A 
ATOM     27  C   UNL     1       3.038  -0.613  23.893  0.00  0.00    +0.041 A 
ATOM     28  C   UNL     1       1.602  -0.320  21.971  0.00  0.00    +0.028 A 
ATOM     30  C   UNL     1       4.125  -0.151  23.150  0.00  0.00    +0.057 A 
ATOM     31  C   UNL     1       2.689   0.141  21.229  0.00  0.00    +0.002 A 
ATOM     32  C   UNL     1       3.950   0.226  21.818  0.00  0.00    +0.012 A 
BRANCH  30  35
ATOM      2  F   UNL     1       5.649  -0.922  24.824  0.00  0.00    -0.166 F 
ATOM      3  F   UNL     1       6.498  -0.332  22.918  0.00  0.00    -0.166 F 
ATOM      4  F   UNL     1       5.737   1.181  24.281  0.00  0.00    -0.166 F 
ATOM     35  C   UNL     1       5.474  -0.060  23.779  0.00  0.00    +0.417 C 
ENDBRANCH  30  35
ENDBRANCH   1  24
ENDBRANCH  13   1
ENDBRANCH  17  13
TORSDOF 13
ENDMDL
MODEL 2
REMARK VINA RESULT:       3.1      3.475      7.225
REMARK  Name = 11882571
REMARK  13 active torsions:
REMARK  status: ('A' for Active; 'I' for Inactive)
REMARK    1  A    between atoms: S_1  and  N_13
REMARK    2  A    between atoms: S_1  and  C_24
REMARK    3  A    between atoms: O_5  and  C_16
REMARK    4  A    between atoms: O_6  and  C_19
REMARK    5  A    between atoms: O_7  and  C_21
REMARK    6  A    between atoms: O_12  and  C_38
REMARK    7  A    between atoms: N_13  and  C_17
REMARK    8  A    between atoms: N_14  and  C_23
REMARK    9  A    between atoms: C_16  and  C_22
REMARK   10  A    between atoms: C_23  and  C_25
REMARK   11  A    between atoms: C_23  and  C_26
REMARK   12  A    between atoms: C_25  and  C_29
REMARK   13  A    between atoms: C_30  and  C_35
REMARK                            x       y       z     vdW  Elec       q    Type
REMARK                         _______ _______ _______ _____ _____    ______ ____
ROOT
ATOM     16  C   UNL     1      -0.633   2.020  25.517  0.00  0.00    +0.145 C 
ATOM     17  C   UNL     1      -2.191   3.895  26.218  0.00  0.00    +0.111 C 
ATOM     18  C   UNL     1      -2.053   2.394  25.949  0.00  0.00    +0.067 C 
ATOM     19  C   UNL     1      -1.722   4.744  25.031  0.00  0.00    +0.162 C 
ATOM     20  C   UNL     1      -0.183   2.853  24.320  0.00  0.00    +0.078 C 
ATOM     21  C   UNL     1      -0.310   4.355  24.579  0.00  0.00    +0.148 C 
ENDROOT
BRANCH  16  22
ATOM      8  O   UNL     1      -0.855  -0.308  26.009  0.00  0.00    -0.273 OA
ATOM     14  N   UNL     1      -0.073   0.333  23.911  0.00  0.00    -0.301 N 
ATOM     22  C   UNL     1      -0.547   0.557  25.191  0.00  0.00    +0.245 C 
ATOM     43  H   UNL     1       0.196   1.114  23.322  0.00  0.00    +0.150 HD
BRANCH  14  23
ATOM     23  C   UNL     1       0.124  -0.991  23.362  0.00  0.00    +0.163 C 
BRANCH  23  26
ATOM     11  O   UNL     1       1.650  -1.902  25.020  0.00  0.00    -0.274 OA
ATOM     15  N   UNL     1      -0.511  -2.681  24.968  0.00  0.00    -0.328 N 
ATOM     26  C   UNL     1       0.529  -1.898  24.514  0.00  0.00    +0.231 C 
ATOM     44  H   UNL     1      -0.380  -3.321  25.744  0.00  0.00    +0.145 HD
ATOM     45  H   UNL     1      -1.433  -2.665  24.544  0.00  0.00    +0.145 HD
ENDBRANCH  23  26
BRANCH  23  25
ATOM     25  C   UNL     1       1.196  -1.008  22.266  0.00  0.00    +0.067 C 
BRANCH  25  29
ATOM     29  C   UNL     1       2.537  -0.512  22.752  0.00  0.00    -0.045 A 
ATOM     33  C   UNL     1       3.434  -1.397  23.348  0.00  0.00    +0.007 A 
ATOM     34  C   UNL     1       2.876   0.832  22.605  0.00  0.00    +0.007 A 
ATOM     36  C   UNL     1       4.672  -0.938  23.796  0.00  0.00    +0.045 A 
ATOM     37  C   UNL     1       4.115   1.293  23.053  0.00  0.00    +0.045 A 
ATOM     38  C   UNL     1       5.013   0.407  23.649  0.00  0.00    +0.117 A 
BRANCH  38  12
ATOM     12  O   UNL     1       6.221   0.855  24.086  0.00  0.00    -0.507 OA
ATOM     46  H   UNL     1       6.822   0.933  23.325  0.00  0.00    +0.292 HD
ENDBRANCH  38  12
ENDBRANCH  25  29
ENDBRANCH  23  25
ENDBRANCH  14  23
ENDBRANCH  16  22
BRANCH  16   5
ATOM      5  O   UNL     1       0.281   2.214  26.590  0.00  0.00    -0.379 OA
ATOM     40  H   UNL     1      -0.055   2.934  27.149  0.00  0.00    +0.211 HD
ENDBRANCH  16   5
BRANCH  19   6
ATOM      6  O   UNL     1      -1.709   6.112  25.446  0.00  0.00    -0.388 OA
ATOM     41  H   UNL     1      -1.954   6.662  24.682  0.00  0.00    +0.210 HD
ENDBRANCH  19   6
BRANCH  21   7
ATOM      7  O   UNL     1       0.007   5.032  23.362  0.00  0.00    -0.389 OA
ATOM     42  H   UNL     1      -0.234   5.967  23.474  0.00  0.00    +0.210 HD
ENDBRANCH  21   7
BRANCH  17  13
ATOM     13  N   UNL     1      -3.622   4.196  26.495  0.00  0.00    -0.184 NA
ATOM     39  H   UNL     1      -3.814   4.805  27.300  0.00  0.00    +0.148 HD
BRANCH  13   1
ATOM      1  S   UNL     1      -4.760   4.081  25.246  0.00  0.00    +0.059 S 
ATOM      9  O   UNL     1      -4.702   5.275  24.424  0.00  0.00    -0.153 OA
ATOM     10  O   UNL     1      -6.023   3.645  25.810  0.00  0.00    -0.153 OA
BRANCH   1  24
ATOM     24  C   UNL     1      -4.127   2.732  24.294  0.00  0.00    +0.106 A 
ATOM     27  C   UNL     1      -4.299   1.422  24.741  0.00  0.00    +0.041 A 
ATOM     28  C   UNL     1      -3.457   2.979  23.095  0.00  0.00    +0.028 A 
ATOM     30  C   UNL     1      -3.800   0.359  23.988  0.00  0.00    +0.057 A 
ATOM     31  C   UNL     1      -2.959   1.915  22.344  0.00  0.00    +0.002 A 
ATOM     32  C   UNL     1      -3.131   0.605  22.790  0.00  0.00    +0.012 A 
BRANCH  30  35
ATOM      2  F   UNL     1      -5.151  -1.615  24.046  0.00  0.00    -0.166 F 
ATOM      3  F   UNL     1      -3.001  -1.895  24.051  0.00  0.00    -0.166 F 
ATOM      4  F   UNL     1      -4.000  -1.136  25.826  0.00  0.00    -0.166 F 
ATOM     35  C   UNL     1      -3.985  -1.043  24.465  0.00  0.00    +0.417 C 
ENDBRANCH  30  35
ENDBRANCH   1  24
ENDBRANCH  13   1
ENDBRANCH  17  13
TORSDOF 13
ENDMDL
MODEL 3
REMARK VINA RESULT:       3.2      1.758      4.264
REMARK  Name = 11882571
REMARK  13 active torsions:
REMARK  status: ('A' for Active; 'I' for Inactive)
REMARK    1  A    between atoms: S_1  and  N_13
REMARK    2  A    between atoms: S_1  and  C_24
REMARK    3  A    between atoms: O_5  and  C_16
REMARK    4  A    between atoms: O_6  and  C_19
REMARK    5  A    between atoms: O_7  and  C_21
REMARK    6  A    between atoms: O_12  and  C_38
REMARK    7  A    between atoms: N_13  and  C_17
REMARK    8  A    between atoms: N_14  and  C_23
REMARK    9  A    between atoms: C_16  and  C_22
REMARK   10  A    between atoms: C_23  and  C_25
REMARK   11  A    between atoms: C_23  and  C_26
REMARK   12  A    between atoms: C_25  and  C_29
REMARK   13  A    between atoms: C_30  and  C_35
REMARK                            x       y       z     vdW  Elec       q    Type
REMARK                         _______ _______ _______ _____ _____    ______ ____
ROOT
ATOM     16  C   UNL     1      -3.389  -0.773  25.505  0.00  0.00    +0.145 C 
ATOM     17  C   UNL     1      -0.905  -0.389  25.846  0.00  0.00    +0.111 C 
ATOM     18  C   UNL     1      -2.270   0.265  25.616  0.00  0.00    +0.067 C 
ATOM     19  C   UNL     1      -0.585  -1.451  24.789  0.00  0.00    +0.162 C 
ATOM     20  C   UNL     1      -3.073  -1.813  24.434  0.00  0.00    +0.078 C 
ATOM     21  C   UNL     1      -1.714  -2.479  24.656  0.00  0.00    +0.148 C 
ENDROOT
BRANCH  16  22
ATOM      8  O   UNL     1      -5.522  -0.605  24.442  0.00  0.00    -0.273 OA
ATOM     14  N   UNL     1      -4.838   1.100  25.872  0.00  0.00    -0.301 N 
ATOM     22  C   UNL     1      -4.701  -0.107  25.210  0.00  0.00    +0.245 C 
ATOM     43  H   UNL     1      -4.084   1.451  26.454  0.00  0.00    +0.150 HD
BRANCH  14  23
ATOM     23  C   UNL     1      -6.001   1.949  25.738  0.00  0.00    +0.163 C 
BRANCH  23  26
ATOM     11  O   UNL     1      -5.596   2.209  23.356  0.00  0.00    -0.274 OA
ATOM     15  N   UNL     1      -7.697   1.595  24.054  0.00  0.00    -0.328 N 
ATOM     26  C   UNL     1      -6.383   1.955  24.266  0.00  0.00    +0.231 C 
ATOM     44  H   UNL     1      -8.078   1.544  23.115  0.00  0.00    +0.145 HD
ATOM     45  H   UNL     1      -8.336   1.384  24.814  0.00  0.00    +0.145 HD
ENDBRANCH  23  26
BRANCH  23  25
ATOM     25  C   UNL     1      -5.734   3.377  26.227  0.00  0.00    +0.067 C 
BRANCH  25  29
ATOM     29  C   UNL     1      -4.367   3.883  25.835  0.00  0.00    -0.045 A 
ATOM     33  C   UNL     1      -4.172   4.469  24.584  0.00  0.00    +0.007 A 
ATOM     34  C   UNL     1      -3.300   3.764  26.725  0.00  0.00    +0.007 A 
ATOM     36  C   UNL     1      -2.909   4.936  24.223  0.00  0.00    +0.045 A 
ATOM     37  C   UNL     1      -2.035   4.232  26.364  0.00  0.00    +0.045 A 
ATOM     38  C   UNL     1      -1.840   4.817  25.113  0.00  0.00    +0.117 A 
BRANCH  38  12
ATOM     12  O   UNL     1      -0.608   5.275  24.760  0.00  0.00    -0.507 OA
ATOM     46  H   UNL     1      -0.147   5.585  25.558  0.00  0.00    +0.292 HD
ENDBRANCH  38  12
ENDBRANCH  25  29
ENDBRANCH  23  25
ENDBRANCH  14  23
ENDBRANCH  16  22
BRANCH  16   5
ATOM      5  O   UNL     1      -3.583  -1.432  26.752  0.00  0.00    -0.379 OA
ATOM     40  H   UNL     1      -4.070  -2.257  26.587  0.00  0.00    +0.211 HD
ENDBRANCH  16   5
BRANCH  19   6
ATOM      6  O   UNL     1       0.607  -2.130  25.193  0.00  0.00    -0.388 OA
ATOM     41  H   UNL     1       1.308  -1.917  24.554  0.00  0.00    +0.210 HD
ENDBRANCH  19   6
BRANCH  21   7
ATOM      7  O   UNL     1      -1.461  -3.328  23.536  0.00  0.00    -0.389 OA
ATOM     42  H   UNL     1      -0.504  -3.500  23.509  0.00  0.00    +0.210 HD
ENDBRANCH  21   7
BRANCH  17  13
ATOM     13  N   UNL     1       0.140   0.670  25.804  0.00  0.00    -0.184 NA
ATOM     39  H   UNL     1       0.977   0.511  26.378  0.00  0.00    +0.148 HD
BRANCH  13   1
ATOM      1  S   UNL     1       0.231   1.705  24.466  0.00  0.00    +0.059 S 
ATOM      9  O   UNL     1       0.794   2.978  24.873  0.00  0.00    -0.153 OA
ATOM     10  O   UNL     1      -1.036   1.660  23.760  0.00  0.00    -0.153 OA
BRANCH   1  24
ATOM     24  C   UNL     1       1.419   0.884  23.445  0.00  0.00    +0.106 A 
ATOM     27  C   UNL     1       2.765   0.879  23.809  0.00  0.00    +0.041 A 
ATOM     28  C   UNL     1       1.008   0.239  22.278  0.00  0.00    +0.028 A 
ATOM     30  C   UNL     1       3.702   0.230  23.004  0.00  0.00    +0.057 A 
ATOM     31  C   UNL     1       1.945  -0.410  21.474  0.00  0.00    +0.002 A 
ATOM     32  C   UNL     1       3.291  -0.414  21.837  0.00  0.00    +0.012 A 
BRANCH  30  35
ATOM      2  F   UNL     1       5.980  -0.146  22.379  0.00  0.00    -0.166 F 
ATOM      3  F   UNL     1       5.601   1.442  23.806  0.00  0.00    -0.166 F 
ATOM      4  F   UNL     1       5.405  -0.635  24.418  0.00  0.00    -0.166 F 
ATOM     35  C   UNL     1       5.142   0.225  23.392  0.00  0.00    +0.417 C 
ENDBRANCH  30  35
ENDBRANCH   1  24
ENDBRANCH  13   1
ENDBRANCH  17  13
TORSDOF 13
ENDMDL
MODEL 4
REMARK VINA RESULT:       3.2      1.845      4.510
REMARK  Name = 11882571
REMARK  13 active torsions:
REMARK  status: ('A' for Active; 'I' for Inactive)
REMARK    1  A    between atoms: S_1  and  N_13
REMARK    2  A    between atoms: S_1  and  C_24
REMARK    3  A    between atoms: O_5  and  C_16
REMARK    4  A    between atoms: O_6  and  C_19
REMARK    5  A    between atoms: O_7  and  C_21
REMARK    6  A    between atoms: O_12  and  C_38
REMARK    7  A    between atoms: N_13  and  C_17
REMARK    8  A    between atoms: N_14  and  C_23
REMARK    9  A    between atoms: C_16  and  C_22
REMARK   10  A    between atoms: C_23  and  C_25
REMARK   11  A    between atoms: C_23  and  C_26
REMARK   12  A    between atoms: C_25  and  C_29
REMARK   13  A    between atoms: C_30  and  C_35
REMARK                            x       y       z     vdW  Elec       q    Type
REMARK                         _______ _______ _______ _____ _____    ______ ____
ROOT
ATOM     16  C   UNL     1      -3.415  -0.272  25.108  0.00  0.00    +0.145 C 
ATOM     17  C   UNL     1      -1.177  -1.434  24.836  0.00  0.00    +0.111 C 
ATOM     18  C   UNL     1      -1.947  -0.117  24.704  0.00  0.00    +0.067 C 
ATOM     19  C   UNL     1      -1.852  -2.580  24.074  0.00  0.00    +0.162 C 
ATOM     20  C   UNL     1      -4.086  -1.399  24.327  0.00  0.00    +0.078 C 
ATOM     21  C   UNL     1      -3.329  -2.722  24.456  0.00  0.00    +0.148 C 
ENDROOT
BRANCH  16  22
ATOM      8  O   UNL     1      -5.208   1.260  25.492  0.00  0.00    -0.273 OA
ATOM     14  N   UNL     1      -3.538   1.837  23.976  0.00  0.00    -0.301 N 
ATOM     22  C   UNL     1      -4.159   1.015  24.901  0.00  0.00    +0.245 C 
ATOM     43  H   UNL     1      -2.693   1.528  23.506  0.00  0.00    +0.150 HD
BRANCH  14  23
ATOM     23  C   UNL     1      -4.066   3.124  23.582  0.00  0.00    +0.163 C 
BRANCH  23  26
ATOM     11  O   UNL     1      -4.483   4.034  21.367  0.00  0.00    -0.274 OA
ATOM     15  N   UNL     1      -2.851   2.435  21.609  0.00  0.00    -0.328 N 
ATOM     26  C   UNL     1      -3.856   3.253  22.080  0.00  0.00    +0.231 C 
ATOM     44  H   UNL     1      -2.598   2.435  20.627  0.00  0.00    +0.145 HD
ATOM     45  H   UNL     1      -2.338   1.798  22.210  0.00  0.00    +0.145 HD
ENDBRANCH  23  26
BRANCH  23  25
ATOM     25  C   UNL     1      -3.381   4.281  24.318  0.00  0.00    +0.067 C 
BRANCH  25  29
ATOM     29  C   UNL     1      -2.147   3.845  25.071  0.00  0.00    -0.045 A 
ATOM     33  C   UNL     1      -2.240   3.489  26.416  0.00  0.00    +0.007 A 
ATOM     34  C   UNL     1      -0.914   3.799  24.421  0.00  0.00    +0.007 A 
ATOM     36  C   UNL     1      -1.101   3.087  27.112  0.00  0.00    +0.045 A 
ATOM     37  C   UNL     1       0.227   3.396  25.116  0.00  0.00    +0.045 A 
ATOM     38  C   UNL     1       0.133   3.041  26.461  0.00  0.00    +0.117 A 
BRANCH  38  12
ATOM     12  O   UNL     1       1.245   2.647  27.140  0.00  0.00    -0.507 OA
ATOM     46  H   UNL     1       1.900   3.365  27.116  0.00  0.00    +0.292 HD
ENDBRANCH  38  12
ENDBRANCH  25  29
ENDBRANCH  23  25
ENDBRANCH  14  23
ENDBRANCH  16  22
BRANCH  16   5
ATOM      5  O   UNL     1      -3.523  -0.540  26.501  0.00  0.00    -0.379 OA
ATOM     40  H   UNL     1      -2.709  -0.231  26.934  0.00  0.00    +0.211 HD
ENDBRANCH  16   5
BRANCH  19   6
ATOM      6  O   UNL     1      -1.173  -3.793  24.410  0.00  0.00    -0.388 OA
ATOM     41  H   UNL     1      -0.225  -3.668  24.235  0.00  0.00    +0.210 HD
ENDBRANCH  19   6
BRANCH  21   7
ATOM      7  O   UNL     1      -3.960  -3.666  23.590  0.00  0.00    -0.389 OA
ATOM     42  H   UNL     1      -4.413  -3.165  22.890  0.00  0.00    +0.210 HD
ENDBRANCH  21   7
BRANCH  17  13
ATOM     13  N   UNL     1       0.196  -1.235  24.297  0.00  0.00    -0.184 NA
ATOM     39  H   UNL     1       0.904  -1.923  24.581  0.00  0.00    +0.148 HD
BRANCH  13   1
ATOM      1  S   UNL     1       0.416  -0.355  22.866  0.00  0.00    +0.059 S 
ATOM      9  O   UNL     1      -0.422   0.830  22.891  0.00  0.00    -0.153 OA
ATOM     10  O   UNL     1       0.349  -1.271  21.744  0.00  0.00    -0.153 OA
BRANCH   1  24
ATOM     24  C   UNL     1       2.099   0.166  23.008  0.00  0.00    +0.106 A 
ATOM     27  C   UNL     1       3.077  -0.741  23.419  0.00  0.00    +0.041 A 
ATOM     28  C   UNL     1       2.450   1.482  22.707  0.00  0.00    +0.028 A 
ATOM     30  C   UNL     1       4.405  -0.330  23.529  0.00  0.00    +0.057 A 
ATOM     31  C   UNL     1       3.778   1.892  22.818  0.00  0.00    +0.002 A 
ATOM     32  C   UNL     1       4.756   0.986  23.229  0.00  0.00    +0.012 A 
BRANCH  30  35
ATOM      2  F   UNL     1       5.011  -2.589  24.030  0.00  0.00    -0.166 F 
ATOM      3  F   UNL     1       6.543  -1.333  23.148  0.00  0.00    -0.166 F 
ATOM      4  F   UNL     1       5.937  -1.018  25.212  0.00  0.00    -0.166 F 
ATOM     35  C   UNL     1       5.451  -1.298  23.968  0.00  0.00    +0.417 C 
ENDBRANCH  30  35
ENDBRANCH   1  24
ENDBRANCH  13   1
ENDBRANCH  17  13
TORSDOF 13
ENDMDL
MODEL 5
REMARK VINA RESULT:       3.3      1.592      4.220
REMARK  Name = 11882571
REMARK  13 active torsions:
REMARK  status: ('A' for Active; 'I' for Inactive)
REMARK    1  A    between atoms: S_1  and  N_13
REMARK    2  A    between atoms: S_1  and  C_24
REMARK    3  A    between atoms: O_5  and  C_16
REMARK    4  A    between atoms: O_6  and  C_19
REMARK    5  A    between atoms: O_7  and  C_21
REMARK    6  A    between atoms: O_12  and  C_38
REMARK    7  A    between atoms: N_13  and  C_17
REMARK    8  A    between atoms: N_14  and  C_23
REMARK    9  A    between atoms: C_16  and  C_22
REMARK   10  A    between atoms: C_23  and  C_25
REMARK   11  A    between atoms: C_23  and  C_26
REMARK   12  A    between atoms: C_25  and  C_29
REMARK   13  A    between atoms: C_30  and  C_35
REMARK                            x       y       z     vdW  Elec       q    Type
REMARK                         _______ _______ _______ _____ _____    ______ ____
ROOT
ATOM     16  C   UNL     1      -3.606  -0.725  25.417  0.00  0.00    +0.145 C 
ATOM     17  C   UNL     1      -1.120  -1.228  25.457  0.00  0.00    +0.111 C 
ATOM     18  C   UNL     1      -2.193  -0.144  25.328  0.00  0.00    +0.067 C 
ATOM     19  C   UNL     1      -1.323  -2.368  24.454  0.00  0.00    +0.162 C 
ATOM     20  C   UNL     1      -3.807  -1.844  24.398  0.00  0.00    +0.078 C 
ATOM     21  C   UNL     1      -2.744  -2.938  24.522  0.00  0.00    +0.148 C 
ENDROOT
BRANCH  16  22
ATOM      8  O   UNL     1      -5.463   0.291  24.311  0.00  0.00    -0.273 OA
ATOM     14  N   UNL     1      -4.506   1.375  26.135  0.00  0.00    -0.301 N 
ATOM     22  C   UNL     1      -4.634   0.349  25.216  0.00  0.00    +0.245 C 
ATOM     43  H   UNL     1      -3.760   1.355  26.823  0.00  0.00    +0.150 HD
BRANCH  14  23
ATOM     23  C   UNL     1      -5.361   2.542  26.142  0.00  0.00    +0.163 C 
BRANCH  23  26
ATOM     11  O   UNL     1      -7.361   1.701  27.237  0.00  0.00    -0.274 OA
ATOM     15  N   UNL     1      -7.420   2.066  24.970  0.00  0.00    -0.328 N 
ATOM     26  C   UNL     1      -6.797   2.044  26.200  0.00  0.00    +0.231 C 
ATOM     44  H   UNL     1      -8.386   1.775  24.870  0.00  0.00    +0.145 HD
ATOM     45  H   UNL     1      -6.944   2.356  24.121  0.00  0.00    +0.145 HD
ENDBRANCH  23  26
BRANCH  23  25
ATOM     25  C   UNL     1      -5.150   3.421  24.905  0.00  0.00    +0.067 C 
BRANCH  25  29
ATOM     29  C   UNL     1      -3.695   3.738  24.654  0.00  0.00    -0.045 A 
ATOM     33  C   UNL     1      -3.073   3.286  23.490  0.00  0.00    +0.007 A 
ATOM     34  C   UNL     1      -2.974   4.482  25.588  0.00  0.00    +0.007 A 
ATOM     36  C   UNL     1      -1.730   3.580  23.259  0.00  0.00    +0.045 A 
ATOM     37  C   UNL     1      -1.629   4.775  25.357  0.00  0.00    +0.045 A 
ATOM     38  C   UNL     1      -1.007   4.323  24.193  0.00  0.00    +0.117 A 
BRANCH  38  12
ATOM     12  O   UNL     1       0.304   4.610  23.967  0.00  0.00    -0.507 OA
ATOM     46  H   UNL     1       0.417   4.849  23.031  0.00  0.00    +0.292 HD
ENDBRANCH  38  12
ENDBRANCH  25  29
ENDBRANCH  23  25
ENDBRANCH  14  23
ENDBRANCH  16  22
BRANCH  16   5
ATOM      5  O   UNL     1      -3.853  -1.234  26.723  0.00  0.00    -0.379 OA
ATOM     40  H   UNL     1      -4.245  -0.522  27.257  0.00  0.00    +0.211 HD
ENDBRANCH  16   5
BRANCH  19   6
ATOM      6  O   UNL     1      -0.397  -3.410  24.776  0.00  0.00    -0.388 OA
ATOM     41  H   UNL     1      -0.839  -4.031  25.380  0.00  0.00    +0.210 HD
ENDBRANCH  19   6
BRANCH  21   7
ATOM      7  O   UNL     1      -2.945  -3.857  23.448  0.00  0.00    -0.389 OA
ATOM     42  H   UNL     1      -3.500  -3.416  22.783  0.00  0.00    +0.210 HD
ENDBRANCH  21   7
BRANCH  17  13
ATOM     13  N   UNL     1       0.212  -0.606  25.223  0.00  0.00    -0.184 NA
ATOM     39  H   UNL     1       1.030  -1.218  25.332  0.00  0.00    +0.148 HD
BRANCH  13   1
ATOM      1  S   UNL     1       0.331   0.780  24.255  0.00  0.00    +0.059 S 
ATOM      9  O   UNL     1       0.628   1.930  25.088  0.00  0.00    -0.153 OA
ATOM     10  O   UNL     1      -0.802   0.809  23.348  0.00  0.00    -0.153 OA
BRANCH   1  24
ATOM     24  C   UNL     1       1.763   0.427  23.281  0.00  0.00    +0.106 A 
ATOM     27  C   UNL     1       3.028   0.445  23.868  0.00  0.00    +0.041 A 
ATOM     28  C   UNL     1       1.627   0.127  21.925  0.00  0.00    +0.028 A 
ATOM     30  C   UNL     1       4.157   0.165  23.098  0.00  0.00    +0.057 A 
ATOM     31  C   UNL     1       2.756  -0.153  21.156  0.00  0.00    +0.002 A 
ATOM     32  C   UNL     1       4.021  -0.134  21.743  0.00  0.00    +0.012 A 
BRANCH  30  35
ATOM      2  F   UNL     1       5.621  -0.632  24.814  0.00  0.00    -0.166 F 
ATOM      3  F   UNL     1       6.510  -0.210  22.883  0.00  0.00    -0.166 F 
ATOM      4  F   UNL     1       5.868   1.427  24.162  0.00  0.00    -0.166 F 
ATOM     35  C   UNL     1       5.510   0.184  23.726  0.00  0.00    +0.417 C 
ENDBRANCH  30  35
ENDBRANCH   1  24
ENDBRANCH  13   1
ENDBRANCH  17  13
TORSDOF 13
ENDMDL
MODEL 6
REMARK VINA RESULT:       3.5      2.874      7.051
REMARK  Name = 11882571
REMARK  13 active torsions:
REMARK  status: ('A' for Active; 'I' for Inactive)
REMARK    1  A    between atoms: S_1  and  N_13
REMARK    2  A    between atoms: S_1  and  C_24
REMARK    3  A    between atoms: O_5  and  C_16
REMARK    4  A    between atoms: O_6  and  C_19
REMARK    5  A    between atoms: O_7  and  C_21
REMARK    6  A    between atoms: O_12  and  C_38
REMARK    7  A    between atoms: N_13  and  C_17
REMARK    8  A    between atoms: N_14  and  C_23
REMARK    9  A    between atoms: C_16  and  C_22
REMARK   10  A    between atoms: C_23  and  C_25
REMARK   11  A    between atoms: C_23  and  C_26
REMARK   12  A    between atoms: C_25  and  C_29
REMARK   13  A    between atoms: C_30  and  C_35
REMARK                            x       y       z     vdW  Elec       q    Type
REMARK                         _______ _______ _______ _____ _____    ______ ____
ROOT
ATOM     16  C   UNL     1      -0.715   2.840  24.814  0.00  0.00    +0.145 C 
ATOM     17  C   UNL     1      -3.247   2.975  24.895  0.00  0.00    +0.111 C 
ATOM     18  C   UNL     1      -2.032   2.315  24.238  0.00  0.00    +0.067 C 
ATOM     19  C   UNL     1      -3.179   4.505  24.838  0.00  0.00    +0.162 C 
ATOM     20  C   UNL     1      -0.645   4.363  24.731  0.00  0.00    +0.078 C 
ATOM     21  C   UNL     1      -1.851   5.035  25.391  0.00  0.00    +0.148 C 
ENDROOT
BRANCH  16  22
ATOM      8  O   UNL     1       1.493   2.857  23.901  0.00  0.00    -0.273 OA
ATOM     14  N   UNL     1       0.204   0.929  23.700  0.00  0.00    -0.301 N 
ATOM     22  C   UNL     1       0.456   2.229  24.101  0.00  0.00    +0.245 C 
ATOM     43  H   UNL     1      -0.702   0.507  23.873  0.00  0.00    +0.150 HD
BRANCH  14  23
ATOM     23  C   UNL     1       1.163   0.126  22.973  0.00  0.00    +0.163 C 
BRANCH  23  26
ATOM     11  O   UNL     1      -0.586  -1.443  22.351  0.00  0.00    -0.274 OA
ATOM     15  N   UNL     1       0.821  -0.658  20.714  0.00  0.00    -0.328 N 
ATOM     26  C   UNL     1       0.375  -0.753  22.014  0.00  0.00    +0.231 C 
ATOM     44  H   UNL     1       0.372  -1.182  19.970  0.00  0.00    +0.145 HD
ATOM     45  H   UNL     1       1.614  -0.082  20.448  0.00  0.00    +0.145 HD
ENDBRANCH  23  26
BRANCH  23  25
ATOM     25  C   UNL     1       2.021  -0.736  23.906  0.00  0.00    +0.067 C 
BRANCH  25  29
ATOM     29  C   UNL     1       3.501  -0.581  23.648  0.00  0.00    -0.045 A 
ATOM     33  C   UNL     1       3.990   0.594  23.077  0.00  0.00    +0.007 A 
ATOM     34  C   UNL     1       4.377  -1.613  23.981  0.00  0.00    +0.007 A 
ATOM     36  C   UNL     1       5.357   0.736  22.839  0.00  0.00    +0.045 A 
ATOM     37  C   UNL     1       5.745  -1.471  23.743  0.00  0.00    +0.045 A 
ATOM     38  C   UNL     1       6.234  -0.296  23.172  0.00  0.00    +0.117 A 
BRANCH  38  12
ATOM     12  O   UNL     1       7.568  -0.157  22.941  0.00  0.00    -0.507 OA
ATOM     46  H   UNL     1       7.845  -0.819  22.285  0.00  0.00    +0.292 HD
ENDBRANCH  38  12
ENDBRANCH  25  29
ENDBRANCH  23  25
ENDBRANCH  14  23
ENDBRANCH  16  22
BRANCH  16   5
ATOM      5  O   UNL     1      -0.571   2.440  26.171  0.00  0.00    -0.379 OA
ATOM     40  H   UNL     1       0.372   2.279  26.343  0.00  0.00    +0.211 HD
ENDBRANCH  16   5
BRANCH  19   6
ATOM      6  O   UNL     1      -4.246   5.024  25.635  0.00  0.00    -0.388 OA
ATOM     41  H   UNL     1      -3.872   5.328  26.480  0.00  0.00    +0.210 HD
ENDBRANCH  19   6
BRANCH  21   7
ATOM      7  O   UNL     1      -1.753   6.437  25.142  0.00  0.00    -0.389 OA
ATOM     42  H   UNL     1      -1.061   6.792  25.727  0.00  0.00    +0.210 HD
ENDBRANCH  21   7
BRANCH  17  13
ATOM     13  N   UNL     1      -4.474   2.517  24.189  0.00  0.00    -0.184 NA
ATOM     39  H   UNL     1      -4.483   2.626  23.167  0.00  0.00    +0.148 HD
BRANCH  13   1
ATOM      1  S   UNL     1      -5.473   1.356  24.913  0.00  0.00    +0.059 S 
ATOM      9  O   UNL     1      -6.660   1.162  24.101  0.00  0.00    -0.153 OA
ATOM     10  O   UNL     1      -5.598   1.668  26.324  0.00  0.00    -0.153 OA
BRANCH   1  24
ATOM     24  C   UNL     1      -4.486  -0.106  24.793  0.00  0.00    +0.106 A 
ATOM     27  C   UNL     1      -3.244  -0.163  25.427  0.00  0.00    +0.041 A 
ATOM     28  C   UNL     1      -4.950  -1.203  24.067  0.00  0.00    +0.028 A 
ATOM     30  C   UNL     1      -2.466  -1.317  25.333  0.00  0.00    +0.057 A 
ATOM     31  C   UNL     1      -4.172  -2.357  23.974  0.00  0.00    +0.002 A 
ATOM     32  C   UNL     1      -2.930  -2.414  24.607  0.00  0.00    +0.012 A 
BRANCH  30  35
ATOM      2  F   UNL     1      -1.218  -1.348  27.373  0.00  0.00    -0.166 F 
ATOM      3  F   UNL     1      -0.428  -2.508  25.720  0.00  0.00    -0.166 F 
ATOM      4  F   UNL     1      -0.327  -0.337  25.667  0.00  0.00    -0.166 F 
ATOM     35  C   UNL     1      -1.139  -1.378  26.010  0.00  0.00    +0.417 C 
ENDBRANCH  30  35
ENDBRANCH   1  24
ENDBRANCH  13   1
ENDBRANCH  17  13
TORSDOF 13
ENDMDL
MODEL 7
REMARK VINA RESULT:       4.4      3.422      6.175
REMARK  Name = 11882571
REMARK  13 active torsions:
REMARK  status: ('A' for Active; 'I' for Inactive)
REMARK    1  A    between atoms: S_1  and  N_13
REMARK    2  A    between atoms: S_1  and  C_24
REMARK    3  A    between atoms: O_5  and  C_16
REMARK    4  A    between atoms: O_6  and  C_19
REMARK    5  A    between atoms: O_7  and  C_21
REMARK    6  A    between atoms: O_12  and  C_38
REMARK    7  A    between atoms: N_13  and  C_17
REMARK    8  A    between atoms: N_14  and  C_23
REMARK    9  A    between atoms: C_16  and  C_22
REMARK   10  A    between atoms: C_23  and  C_25
REMARK   11  A    between atoms: C_23  and  C_26
REMARK   12  A    between atoms: C_25  and  C_29
REMARK   13  A    between atoms: C_30  and  C_35
REMARK                            x       y       z     vdW  Elec       q    Type
REMARK                         _______ _______ _______ _____ _____    ______ ____
ROOT
ATOM     16  C   UNL     1      -0.019  -1.121  24.008  0.00  0.00    +0.145 C 
ATOM     17  C   UNL     1       1.364   0.959  24.448  0.00  0.00    +0.111 C 
ATOM     18  C   UNL     1       0.008   0.273  24.637  0.00  0.00    +0.067 C 
ATOM     19  C   UNL     1       1.796   0.997  22.978  0.00  0.00    +0.162 C 
ATOM     20  C   UNL     1       0.389  -1.071  22.538  0.00  0.00    +0.078 C 
ATOM     21  C   UNL     1       1.746  -0.395  22.337  0.00  0.00    +0.148 C 
ENDROOT
BRANCH  16  22
ATOM      8  O   UNL     1      -1.685  -2.775  23.561  0.00  0.00    -0.273 OA
ATOM     14  N   UNL     1      -2.210  -0.997  24.969  0.00  0.00    -0.301 N 
ATOM     22  C   UNL     1      -1.380  -1.738  24.147  0.00  0.00    +0.245 C 
ATOM     43  H   UNL     1      -1.881  -0.128  25.376  0.00  0.00    +0.150 HD
BRANCH  14  23
ATOM     23  C   UNL     1      -3.581  -1.364  25.247  0.00  0.00    +0.163 C 
BRANCH  23  26
ATOM     11  O   UNL     1      -3.226  -3.651  25.990  0.00  0.00    -0.274 OA
ATOM     15  N   UNL     1      -4.344  -3.298  24.015  0.00  0.00    -0.328 N 
ATOM     26  C   UNL     1      -3.669  -2.879  25.142  0.00  0.00    +0.231 C 
ATOM     44  H   UNL     1      -4.488  -4.285  23.831  0.00  0.00    +0.145 HD
ATOM     45  H   UNL     1      -4.708  -2.649  23.324  0.00  0.00    +0.145 HD
ENDBRANCH  23  26
BRANCH  23  25
ATOM     25  C   UNL     1      -4.566  -0.703  24.276  0.00  0.00    +0.067 C 
BRANCH  25  29
ATOM     29  C   UNL     1      -5.048   0.643  24.760  0.00  0.00    -0.045 A 
ATOM     33  C   UNL     1      -4.303   1.354  25.701  0.00  0.00    +0.007 A 
ATOM     34  C   UNL     1      -6.238   1.175  24.265  0.00  0.00    +0.007 A 
ATOM     36  C   UNL     1      -4.748   2.598  26.147  0.00  0.00    +0.045 A 
ATOM     37  C   UNL     1      -6.684   2.420  24.711  0.00  0.00    +0.045 A 
ATOM     38  C   UNL     1      -5.939   3.131  25.652  0.00  0.00    +0.117 A 
BRANCH  38  12
ATOM     12  O   UNL     1      -6.373   4.345  26.087  0.00  0.00    -0.507 OA
ATOM     46  H   UNL     1      -5.603   4.887  26.329  0.00  0.00    +0.292 HD
ENDBRANCH  38  12
ENDBRANCH  25  29
ENDBRANCH  23  25
ENDBRANCH  14  23
ENDBRANCH  16  22
BRANCH  16   5
ATOM      5  O   UNL     1       0.857  -1.999  24.706  0.00  0.00    -0.379 OA
ATOM     40  H   UNL     1       1.748  -1.903  24.329  0.00  0.00    +0.211 HD
ENDBRANCH  16   5
BRANCH  19   6
ATOM      6  O   UNL     1       3.142   1.476  22.927  0.00  0.00    -0.388 OA
ATOM     41  H   UNL     1       3.486   1.317  22.031  0.00  0.00    +0.210 HD
ENDBRANCH  19   6
BRANCH  21   7
ATOM      7  O   UNL     1       1.968  -0.282  20.931  0.00  0.00    -0.389 OA
ATOM     42  H   UNL     1       1.998   0.665  20.713  0.00  0.00    +0.210 HD
ENDBRANCH  21   7
BRANCH  17  13
ATOM     13  N   UNL     1       1.265   2.352  24.962  0.00  0.00    -0.184 NA
ATOM     39  H   UNL     1       1.587   3.097  24.331  0.00  0.00    +0.148 HD
BRANCH  13   1
ATOM      1  S   UNL     1       0.150   2.718  26.184  0.00  0.00    +0.059 S 
ATOM      9  O   UNL     1       0.694   3.753  27.043  0.00  0.00    -0.153 OA
ATOM     10  O   UNL     1      -0.334   1.475  26.756  0.00  0.00    -0.153 OA
BRANCH   1  24
ATOM     24  C   UNL     1      -1.187   3.418  25.265  0.00  0.00    +0.106 A 
ATOM     27  C   UNL     1      -1.652   2.781  24.114  0.00  0.00    +0.041 A 
ATOM     28  C   UNL     1      -1.780   4.607  25.693  0.00  0.00    +0.028 A 
ATOM     30  C   UNL     1      -2.709   3.334  23.391  0.00  0.00    +0.057 A 
ATOM     31  C   UNL     1      -2.836   5.159  24.969  0.00  0.00    +0.002 A 
ATOM     32  C   UNL     1      -3.301   4.522  23.818  0.00  0.00    +0.012 A 
BRANCH  30  35
ATOM      2  F   UNL     1      -2.308   2.656  21.132  0.00  0.00    -0.166 F 
ATOM      3  F   UNL     1      -3.523   1.339  22.352  0.00  0.00    -0.166 F 
ATOM      4  F   UNL     1      -4.336   3.233  21.661  0.00  0.00    -0.166 F 
ATOM     35  C   UNL     1      -3.206   2.653  22.160  0.00  0.00    +0.417 C 
ENDBRANCH  30  35
ENDBRANCH   1  24
ENDBRANCH  13   1
ENDBRANCH  17  13
TORSDOF 13
ENDMDL
MODEL 8
REMARK VINA RESULT:       4.9      1.477      4.204
REMARK  Name = 11882571
REMARK  13 active torsions:
REMARK  status: ('A' for Active; 'I' for Inactive)
REMARK    1  A    between atoms: S_1  and  N_13
REMARK    2  A    between atoms: S_1  and  C_24
REMARK    3  A    between atoms: O_5  and  C_16
REMARK    4  A    between atoms: O_6  and  C_19
REMARK    5  A    between atoms: O_7  and  C_21
REMARK    6  A    between atoms: O_12  and  C_38
REMARK    7  A    between atoms: N_13  and  C_17
REMARK    8  A    between atoms: N_14  and  C_23
REMARK    9  A    between atoms: C_16  and  C_22
REMARK   10  A    between atoms: C_23  and  C_25
REMARK   11  A    between atoms: C_23  and  C_26
REMARK   12  A    between atoms: C_25  and  C_29
REMARK   13  A    between atoms: C_30  and  C_35
REMARK                            x       y       z     vdW  Elec       q    Type
REMARK                         _______ _______ _______ _____ _____    ______ ____
ROOT
ATOM     16  C   UNL     1      -4.135   0.026  24.895  0.00  0.00    +0.145 C 
ATOM     17  C   UNL     1      -2.377  -1.764  24.519  0.00  0.00    +0.111 C 
ATOM     18  C   UNL     1      -2.686  -0.265  24.495  0.00  0.00    +0.067 C 
ATOM     19  C   UNL     1      -3.366  -2.575  23.675  0.00  0.00    +0.162 C 
ATOM     20  C   UNL     1      -5.114  -0.768  24.034  0.00  0.00    +0.078 C 
ATOM     21  C   UNL     1      -4.819  -2.269  24.055  0.00  0.00    +0.148 C 
ENDROOT
BRANCH  16  22
ATOM      8  O   UNL     1      -4.788   2.011  23.738  0.00  0.00    -0.273 OA
ATOM     14  N   UNL     1      -4.222   2.154  25.991  0.00  0.00    -0.301 N 
ATOM     22  C   UNL     1      -4.428   1.494  24.793  0.00  0.00    +0.245 C 
ATOM     43  H   UNL     1      -3.881   1.647  26.801  0.00  0.00    +0.150 HD
BRANCH  14  23
ATOM     23  C   UNL     1      -4.412   3.578  26.152  0.00  0.00    +0.163 C 
BRANCH  23  26
ATOM     11  O   UNL     1      -6.290   4.976  25.500  0.00  0.00    -0.274 OA
ATOM     15  N   UNL     1      -6.676   2.757  25.956  0.00  0.00    -0.328 N 
ATOM     26  C   UNL     1      -5.873   3.873  25.848  0.00  0.00    +0.231 C 
ATOM     44  H   UNL     1      -7.670   2.812  25.764  0.00  0.00    +0.145 HD
ATOM     45  H   UNL     1      -6.318   1.851  26.241  0.00  0.00    +0.145 HD
ENDBRANCH  23  26
BRANCH  23  25
ATOM     25  C   UNL     1      -3.499   4.392  25.227  0.00  0.00    +0.067 C 
BRANCH  25  29
ATOM     29  C   UNL     1      -2.158   3.736  25.003  0.00  0.00    -0.045 A 
ATOM     33  C   UNL     1      -1.312   3.491  26.085  0.00  0.00    +0.007 A 
ATOM     34  C   UNL     1      -1.767   3.375  23.715  0.00  0.00    +0.007 A 
ATOM     36  C   UNL     1      -0.074   2.884  25.878  0.00  0.00    +0.045 A 
ATOM     37  C   UNL     1      -0.527   2.767  23.507  0.00  0.00    +0.045 A 
ATOM     38  C   UNL     1       0.319   2.523  24.589  0.00  0.00    +0.117 A 
BRANCH  38  12
ATOM     12  O   UNL     1       1.527   1.930  24.387  0.00  0.00    -0.507 OA
ATOM     46  H   UNL     1       2.038   1.967  25.214  0.00  0.00    +0.292 HD
ENDBRANCH  38  12
ENDBRANCH  25  29
ENDBRANCH  23  25
ENDBRANCH  14  23
ENDBRANCH  16  22
BRANCH  16   5
ATOM      5  O   UNL     1      -4.348  -0.299  26.263  0.00  0.00    -0.379 OA
ATOM     40  H   UNL     1      -3.490  -0.274  26.720  0.00  0.00    +0.211 HD
ENDBRANCH  16   5
BRANCH  19   6
ATOM      6  O   UNL     1      -3.113  -3.962  23.912  0.00  0.00    -0.388 OA
ATOM     41  H   UNL     1      -3.733  -4.479  23.370  0.00  0.00    +0.210 HD
ENDBRANCH  19   6
BRANCH  21   7
ATOM      7  O   UNL     1      -5.700  -2.895  23.122  0.00  0.00    -0.389 OA
ATOM     42  H   UNL     1      -6.495  -3.171  23.609  0.00  0.00    +0.210 HD
ENDBRANCH  21   7
BRANCH  17  13
ATOM     13  N   UNL     1      -1.001  -1.971  23.989  0.00  0.00    -0.184 NA
ATOM     39  H   UNL     1      -0.905  -2.005  22.966  0.00  0.00    +0.148 HD
BRANCH  13   1
ATOM      1  S   UNL     1       0.336  -1.550  24.940  0.00  0.00    +0.059 S 
ATOM      9  O   UNL     1       0.920  -2.748  25.514  0.00  0.00    -0.153 OA
ATOM     10  O   UNL     1      -0.035  -0.438  25.794  0.00  0.00    -0.153 OA
BRANCH   1  24
ATOM     24  C   UNL     1       1.463  -0.919  23.732  0.00  0.00    +0.106 A 
ATOM     27  C   UNL     1       2.814  -0.773  24.048  0.00  0.00    +0.041 A 
ATOM     28  C   UNL     1       1.001  -0.570  22.463  0.00  0.00    +0.028 A 
ATOM     30  C   UNL     1       3.702  -0.276  23.094  0.00  0.00    +0.057 A 
ATOM     31  C   UNL     1       1.890  -0.074  21.510  0.00  0.00    +0.002 A 
ATOM     32  C   UNL     1       3.240   0.073  21.826  0.00  0.00    +0.012 A 
BRANCH  30  35
ATOM      2  F   UNL     1       5.612  -1.067  24.297  0.00  0.00    -0.166 F 
ATOM      3  F   UNL     1       5.972  -0.193  22.346  0.00  0.00    -0.166 F 
ATOM      4  F   UNL     1       5.421   1.080  24.020  0.00  0.00    -0.166 F 
ATOM     35  C   UNL     1       5.147  -0.120  23.432  0.00  0.00    +0.417 C 
ENDBRANCH  30  35
ENDBRANCH   1  24
ENDBRANCH  13   1
ENDBRANCH  17  13
TORSDOF 13
ENDMDL
MODEL 9
REMARK VINA RESULT:       5.1      2.987      7.473
REMARK  Name = 11882571
REMARK  13 active torsions:
REMARK  status: ('A' for Active; 'I' for Inactive)
REMARK    1  A    between atoms: S_1  and  N_13
REMARK    2  A    between atoms: S_1  and  C_24
REMARK    3  A    between atoms: O_5  and  C_16
REMARK    4  A    between atoms: O_6  and  C_19
REMARK    5  A    between atoms: O_7  and  C_21
REMARK    6  A    between atoms: O_12  and  C_38
REMARK    7  A    between atoms: N_13  and  C_17
REMARK    8  A    between atoms: N_14  and  C_23
REMARK    9  A    between atoms: C_16  and  C_22
REMARK   10  A    between atoms: C_23  and  C_25
REMARK   11  A    between atoms: C_23  and  C_26
REMARK   12  A    between atoms: C_25  and  C_29
REMARK   13  A    between atoms: C_30  and  C_35
REMARK                            x       y       z     vdW  Elec       q    Type
REMARK                         _______ _______ _______ _____ _____    ______ ____
ROOT
ATOM     16  C   UNL     1      -2.469   0.813  23.395  0.00  0.00    +0.145 C 
ATOM     17  C   UNL     1      -4.751   1.741  23.998  0.00  0.00    +0.111 C 
ATOM     18  C   UNL     1      -3.303   2.074  23.631  0.00  0.00    +0.067 C 
ATOM     19  C   UNL     1      -4.842   0.777  25.186  0.00  0.00    +0.162 C 
ATOM     20  C   UNL     1      -2.546  -0.131  24.592  0.00  0.00    +0.078 C 
ATOM     21  C   UNL     1      -3.988  -0.477  24.965  0.00  0.00    +0.148 C 
ENDROOT
BRANCH  16  22
ATOM      8  O   UNL     1      -0.701   2.317  22.827  0.00  0.00    -0.273 OA
ATOM     14  N   UNL     1      -0.202   0.070  23.176  0.00  0.00    -0.301 N 
ATOM     22  C   UNL     1      -1.039   1.169  23.107  0.00  0.00    +0.245 C 
ATOM     43  H   UNL     1      -0.582  -0.850  23.374  0.00  0.00    +0.150 HD
BRANCH  14  23
ATOM     23  C   UNL     1       1.219   0.142  22.918  0.00  0.00    +0.163 C 
BRANCH  23  26
ATOM     11  O   UNL     1       2.521  -0.193  20.894  0.00  0.00    -0.274 OA
ATOM     15  N   UNL     1       0.268  -0.635  20.838  0.00  0.00    -0.328 N 
ATOM     26  C   UNL     1       1.428  -0.221  21.456  0.00  0.00    +0.231 C 
ATOM     44  H   UNL     1       0.270  -0.922  19.865  0.00  0.00    +0.145 HD
ATOM     45  H   UNL     1      -0.628  -0.657  21.315  0.00  0.00    +0.145 HD
ENDBRANCH  23  26
BRANCH  23  25
ATOM     25  C   UNL     1       2.020  -0.802  23.823  0.00  0.00    +0.067 C 
BRANCH  25  29
ATOM     29  C   UNL     1       3.512  -0.606  23.697  0.00  0.00    -0.045 A 
ATOM     33  C   UNL     1       4.026   0.651  23.380  0.00  0.00    +0.007 A 
ATOM     34  C   UNL     1       4.374  -1.683  23.898  0.00  0.00    +0.007 A 
ATOM     36  C   UNL     1       5.404   0.832  23.264  0.00  0.00    +0.045 A 
ATOM     37  C   UNL     1       5.754  -1.503  23.783  0.00  0.00    +0.045 A 
ATOM     38  C   UNL     1       6.268  -0.245  23.465  0.00  0.00    +0.117 A 
BRANCH  38  12
ATOM     12  O   UNL     1       7.612  -0.069  23.353  0.00  0.00    -0.507 OA
ATOM     46  H   UNL     1       7.936   0.395  24.144  0.00  0.00    +0.292 HD
ENDBRANCH  38  12
ENDBRANCH  25  29
ENDBRANCH  23  25
ENDBRANCH  14  23
ENDBRANCH  16  22
BRANCH  16   5
ATOM      5  O   UNL     1      -2.920   0.128  22.232  0.00  0.00    -0.379 OA
ATOM     40  H   UNL     1      -3.799   0.472  21.998  0.00  0.00    +0.211 HD
ENDBRANCH  16   5
BRANCH  19   6
ATOM      6  O   UNL     1      -6.208   0.380  25.328  0.00  0.00    -0.388 OA
ATOM     41  H   UNL     1      -6.257  -0.292  26.029  0.00  0.00    +0.210 HD
ENDBRANCH  19   6
BRANCH  21   7
ATOM      7  O   UNL     1      -3.950  -1.249  26.165  0.00  0.00    -0.389 OA
ATOM     42  H   UNL     1      -4.630  -1.941  26.091  0.00  0.00    +0.210 HD
ENDBRANCH  21   7
BRANCH  17  13
ATOM     13  N   UNL     1      -5.454   3.006  24.345  0.00  0.00    -0.184 NA
ATOM     39  H   UNL     1      -6.365   3.162  23.896  0.00  0.00    +0.148 HD
BRANCH  13   1
ATOM      1  S   UNL     1      -5.098   3.790  25.804  0.00  0.00    +0.059 S 
ATOM      9  O   UNL     1      -5.294   2.871  26.910  0.00  0.00    -0.153 OA
ATOM     10  O   UNL     1      -5.753   5.084  25.805  0.00  0.00    -0.153 OA
BRANCH   1  24
ATOM     24  C   UNL     1      -3.363   4.091  25.646  0.00  0.00    +0.106 A 
ATOM     27  C   UNL     1      -2.447   3.123  26.058  0.00  0.00    +0.041 A 
ATOM     28  C   UNL     1      -2.911   5.296  25.108  0.00  0.00    +0.028 A 
ATOM     30  C   UNL     1      -1.078   3.361  25.932  0.00  0.00    +0.057 A 
ATOM     31  C   UNL     1      -1.542   5.533  24.982  0.00  0.00    +0.002 A 
ATOM     32  C   UNL     1      -0.626   4.565  25.394  0.00  0.00    +0.012 A 
BRANCH  30  35
ATOM      2  F   UNL     1       0.490   2.604  27.572  0.00  0.00    -0.166 F 
ATOM      3  F   UNL     1      -0.645   1.084  26.523  0.00  0.00    -0.166 F 
ATOM      4  F   UNL     1       0.930   2.168  25.488  0.00  0.00    -0.166 F 
ATOM     35  C   UNL     1      -0.098   2.326  26.372  0.00  0.00    +0.417 C 
ENDBRANCH  30  35
ENDBRANCH   1  24
ENDBRANCH  13   1
ENDBRANCH  17  13
TORSDOF 13
ENDMDL
MODEL 10
REMARK VINA RESULT:       5.2      3.578      7.475
REMARK  Name = 11882571
REMARK  13 active torsions:
REMARK  status: ('A' for Active; 'I' for Inactive)
REMARK    1  A    between atoms: S_1  and  N_13
REMARK    2  A    between atoms: S_1  and  C_24
REMARK    3  A    between atoms: O_5  and  C_16
REMARK    4  A    between atoms: O_6  and  C_19
REMARK    5  A    between atoms: O_7  and  C_21
REMARK    6  A    between atoms: O_12  and  C_38
REMARK    7  A    between atoms: N_13  and  C_17
REMARK    8  A    between atoms: N_14  and  C_23
REMARK    9  A    between atoms: C_16  and  C_22
REMARK   10  A    between atoms: C_23  and  C_25
REMARK   11  A    between atoms: C_23  and  C_26
REMARK   12  A    between atoms: C_25  and  C_29
REMARK   13  A    between atoms: C_30  and  C_35
REMARK                            x       y       z     vdW  Elec       q    Type
REMARK                         _______ _______ _______ _____ _____    ______ ____
ROOT
ATOM     16  C   UNL     1      -0.681   2.852  24.863  0.00  0.00    +0.145 C 
ATOM     17  C   UNL     1      -3.208   3.035  24.990  0.00  0.00    +0.111 C 
ATOM     18  C   UNL     1      -2.018   2.342  24.321  0.00  0.00    +0.067 C 
ATOM     19  C   UNL     1      -3.114   4.562  24.906  0.00  0.00    +0.162 C 
ATOM     20  C   UNL     1      -0.586   4.372  24.754  0.00  0.00    +0.078 C 
ATOM     21  C   UNL     1      -1.766   5.076  25.425  0.00  0.00    +0.148 C 
ENDROOT
BRANCH  16  22
ATOM      8  O   UNL     1       1.510   2.812  23.913  0.00  0.00    -0.273 OA
ATOM     14  N   UNL     1       0.180   0.908  23.759  0.00  0.00    -0.301 N 
ATOM     22  C   UNL     1       0.464   2.208  24.139  0.00  0.00    +0.245 C 
ATOM     43  H   UNL     1      -0.732   0.508  23.954  0.00  0.00    +0.150 HD
BRANCH  14  23
ATOM     23  C   UNL     1       1.109   0.077  23.027  0.00  0.00    +0.163 C 
BRANCH  23  26
ATOM     11  O   UNL     1      -0.644  -1.521  22.497  0.00  0.00    -0.274 OA
ATOM     15  N   UNL     1       0.659  -0.710  20.787  0.00  0.00    -0.328 N 
ATOM     26  C   UNL     1       0.286  -0.815  22.110  0.00  0.00    +0.231 C 
ATOM     44  H   UNL     1       0.179  -1.240  20.068  0.00  0.00    +0.145 HD
ATOM     45  H   UNL     1       1.425  -0.120  20.480  0.00  0.00    +0.145 HD
ENDBRANCH  23  26
BRANCH  23  25
ATOM     25  C   UNL     1       1.982  -0.774  23.957  0.00  0.00    +0.067 C 
BRANCH  25  29
ATOM     29  C   UNL     1       3.457  -0.614  23.682  0.00  0.00    -0.045 A 
ATOM     33  C   UNL     1       3.935   0.557  23.094  0.00  0.00    +0.007 A 
ATOM     34  C   UNL     1       4.342  -1.639  24.015  0.00  0.00    +0.007 A 
ATOM     36  C   UNL     1       5.298   0.704  22.840  0.00  0.00    +0.045 A 
ATOM     37  C   UNL     1       5.706  -1.493  23.761  0.00  0.00    +0.045 A 
ATOM     38  C   UNL     1       6.184  -0.321  23.173  0.00  0.00    +0.117 A 
BRANCH  38  12
ATOM     12  O   UNL     1       7.514  -0.177  22.926  0.00  0.00    -0.507 OA
ATOM     46  H   UNL     1       7.869  -1.025  22.607  0.00  0.00    +0.292 HD
ENDBRANCH  38  12
ENDBRANCH  25  29
ENDBRANCH  23  25
ENDBRANCH  14  23
ENDBRANCH  16  22
BRANCH  16   5
ATOM      5  O   UNL     1      -0.518   2.472  26.224  0.00  0.00    -0.379 OA
ATOM     40  H   UNL     1      -1.382   2.543  26.666  0.00  0.00    +0.211 HD
ENDBRANCH  16   5
BRANCH  19   6
ATOM      6  O   UNL     1      -4.156   5.114  25.715  0.00  0.00    -0.388 OA
ATOM     41  H   UNL     1      -4.671   5.729  25.167  0.00  0.00    +0.210 HD
ENDBRANCH  19   6
BRANCH  21   7
ATOM      7  O   UNL     1      -1.648   6.472  25.152  0.00  0.00    -0.389 OA
ATOM     42  H   UNL     1      -2.516   6.879  25.317  0.00  0.00    +0.210 HD
ENDBRANCH  21   7
BRANCH  17  13
ATOM     13  N   UNL     1      -4.457   2.588  24.315  0.00  0.00    -0.184 NA
ATOM     39  H   UNL     1      -4.501   2.721  23.298  0.00  0.00    +0.148 HD
BRANCH  13   1
ATOM      1  S   UNL     1      -5.426   1.405  25.044  0.00  0.00    +0.059 S 
ATOM      9  O   UNL     1      -6.487   1.017  24.133  0.00  0.00    -0.153 OA
ATOM     10  O   UNL     1      -5.744   1.834  26.393  0.00  0.00    -0.153 OA
BRANCH   1  24
ATOM     24  C   UNL     1      -4.305   0.046  25.187  0.00  0.00    +0.106 A 
ATOM     27  C   UNL     1      -4.483  -1.091  24.398  0.00  0.00    +0.041 A 
ATOM     28  C   UNL     1      -3.240   0.112  26.086  0.00  0.00    +0.028 A 
ATOM     30  C   UNL     1      -3.597  -2.162  24.511  0.00  0.00    +0.057 A 
ATOM     31  C   UNL     1      -2.354  -0.959  26.197  0.00  0.00    +0.002 A 
ATOM     32  C   UNL     1      -2.532  -2.096  25.410  0.00  0.00    +0.012 A 
BRANCH  30  35
ATOM      2  F   UNL     1      -4.599  -3.175  22.589  0.00  0.00    -0.166 F 
ATOM      3  F   UNL     1      -2.623  -3.872  23.150  0.00  0.00    -0.166 F 
ATOM      4  F   UNL     1      -4.347  -4.413  24.359  0.00  0.00    -0.166 F 
ATOM     35  C   UNL     1      -3.786  -3.378  23.668  0.00  0.00    +0.417 C 
ENDBRANCH  30  35
ENDBRANCH   1  24
ENDBRANCH  13   1
ENDBRANCH  17  13
TORSDOF 13
ENDMDL
