MODEL 1
REMARK VINA RESULT:      -5.2      0.000      0.000
REMARK  Name = 86769003
REMARK  7 active torsions:
REMARK  status: ('A' for Active; 'I' for Inactive)
REMARK    1  A    between atoms: O_3  and  C_8
REMARK    2  A    between atoms: N_5  and  C_7
REMARK    3  A    between atoms: N_5  and  C_12
REMARK    4  A    between atoms: N_6  and  C_11
REMARK    5  A    between atoms: C_9  and  C_11
REMARK    6  A    between atoms: C_12  and  C_13
REMARK    7  A    between atoms: C_14  and  C_16
REMARK                            x       y       z     vdW  Elec       q    Type
REMARK                         _______ _______ _______ _____ _____    ______ ____
ROOT
ATOM      2  O   UNL     1      -3.725   4.542  25.676  0.00  0.00    -0.371 OA
ATOM      7  C   UNL     1      -1.476   4.178  25.002  0.00  0.00    +0.111 C 
ATOM      8  C   UNL     1      -2.379   3.223  24.245  0.00  0.00    +0.164 C 
ATOM      9  C   UNL     1      -3.724   3.924  24.379  0.00  0.00    +0.165 C 
ATOM     10  C   UNL     1      -2.371   4.584  26.162  0.00  0.00    +0.181 C 
ENDROOT
BRANCH   8   3
ATOM      3  O   UNL     1      -1.998   3.067  22.893  0.00  0.00    -0.388 OA
ATOM     25  H   UNL     1      -1.127   2.635  22.868  0.00  0.00    +0.210 HD
ENDBRANCH   8   3
BRANCH   7   5
ATOM      5  N   UNL     1      -0.225   3.578  25.436  0.00  0.00    -0.304 NA
ATOM     24  H   UNL     1       0.221   4.196  26.115  0.00  0.00    +0.123 HD
BRANCH   5  12
ATOM     12  C   UNL     1      -0.453   2.278  26.055  0.00  0.00    +0.124 C 
BRANCH  12  13
ATOM      1  S   UNL     1       0.952   1.364  23.835  0.00  0.00    -0.100 S 
ATOM     13  C   UNL     1      -0.184   1.146  25.099  0.00  0.00    +0.004 A 
ATOM     15  C   UNL     1      -0.744  -0.112  25.079  0.00  0.00    +0.012 A 
ATOM     17  C   UNL     1      -0.233  -0.909  24.015  0.00  0.00    +0.008 A 
ATOM     18  C   UNL     1       0.697  -0.228  23.259  0.00  0.00    +0.045 A 
ENDBRANCH  12  13
ENDBRANCH   5  12
ENDBRANCH   7   5
BRANCH   9  11
ATOM     11  C   UNL     1      -4.908   2.981  24.258  0.00  0.00    +0.138 C 
BRANCH  11   6
ATOM      4  O   UNL     1      -5.531   0.918  26.157  0.00  0.00    -0.270 OA
ATOM      6  N   UNL     1      -4.481   1.612  24.208  0.00  0.00    -0.309 N 
ATOM     14  C   UNL     1      -4.832   0.677  25.176  0.00  0.00    +0.244 C 
ATOM     26  H   UNL     1      -3.843   1.364  23.460  0.00  0.00    +0.149 HD
BRANCH  14  16
ATOM     16  C   UNL     1      -4.288  -0.693  24.993  0.00  0.00    +0.037 A 
ATOM     19  C   UNL     1      -3.621  -1.326  26.042  0.00  0.00    +0.013 A 
ATOM     20  C   UNL     1      -4.446  -1.348  23.771  0.00  0.00    +0.013 A 
ATOM     21  C   UNL     1      -3.111  -2.612  25.870  0.00  0.00    +0.001 A 
ATOM     22  C   UNL     1      -3.936  -2.635  23.599  0.00  0.00    +0.001 A 
ATOM     23  C   UNL     1      -3.268  -3.268  24.648  0.00  0.00    +0.000 A 
ENDBRANCH  14  16
ENDBRANCH  11   6
ENDBRANCH   9  11
TORSDOF 7
ENDMDL
MODEL 2
REMARK VINA RESULT:      -4.9      2.433      4.255
REMARK  Name = 86769003
REMARK  7 active torsions:
REMARK  status: ('A' for Active; 'I' for Inactive)
REMARK    1  A    between atoms: O_3  and  C_8
REMARK    2  A    between atoms: N_5  and  C_7
REMARK    3  A    between atoms: N_5  and  C_12
REMARK    4  A    between atoms: N_6  and  C_11
REMARK    5  A    between atoms: C_9  and  C_11
REMARK    6  A    between atoms: C_12  and  C_13
REMARK    7  A    between atoms: C_14  and  C_16
REMARK                            x       y       z     vdW  Elec       q    Type
REMARK                         _______ _______ _______ _____ _____    ______ ____
ROOT
ATOM      2  O   UNL     1      -0.018   3.335  23.603  0.00  0.00    -0.371 OA
ATOM      7  C   UNL     1      -0.931   3.863  25.732  0.00  0.00    +0.111 C 
ATOM      8  C   UNL     1      -0.449   2.424  25.744  0.00  0.00    +0.164 C 
ATOM      9  C   UNL     1       0.532   2.435  24.579  0.00  0.00    +0.165 C 
ATOM     10  C   UNL     1      -1.030   4.135  24.240  0.00  0.00    +0.181 C 
ENDROOT
BRANCH   8   3
ATOM      3  O   UNL     1       0.179   2.068  26.959  0.00  0.00    -0.388 OA
ATOM     25  H   UNL     1       1.082   2.430  26.955  0.00  0.00    +0.210 HD
ENDBRANCH   8   3
BRANCH   7   5
ATOM      5  N   UNL     1      -2.191   4.062  26.428  0.00  0.00    -0.304 NA
ATOM     24  H   UNL     1      -2.063   4.771  27.151  0.00  0.00    +0.123 HD
BRANCH   5  12
ATOM     12  C   UNL     1      -3.236   4.500  25.510  0.00  0.00    +0.124 C 
BRANCH  12  13
ATOM      1  S   UNL     1      -4.455   2.528  23.974  0.00  0.00    -0.100 S 
ATOM     13  C   UNL     1      -4.340   3.484  25.391  0.00  0.00    +0.004 A 
ATOM     15  C   UNL     1      -5.334   3.186  26.298  0.00  0.00    +0.012 A 
ATOM     17  C   UNL     1      -6.199   2.159  25.824  0.00  0.00    +0.008 A 
ATOM     18  C   UNL     1      -5.836   1.711  24.573  0.00  0.00    +0.045 A 
ENDBRANCH  12  13
ENDBRANCH   5  12
ENDBRANCH   7   5
BRANCH   9  11
ATOM     11  C   UNL     1       0.738   1.065  23.955  0.00  0.00    +0.138 C 
BRANCH  11   6
ATOM      4  O   UNL     1       0.093  -1.358  25.354  0.00  0.00    -0.270 OA
ATOM      6  N   UNL     1      -0.495   0.336  23.881  0.00  0.00    -0.309 N 
ATOM     14  C   UNL     1      -0.722  -0.835  24.598  0.00  0.00    +0.244 C 
ATOM     26  H   UNL     1      -1.185   0.675  23.221  0.00  0.00    +0.149 HD
BRANCH  14  16
ATOM     16  C   UNL     1      -2.041  -1.486  24.393  0.00  0.00    +0.037 A 
ATOM     19  C   UNL     1      -3.164  -0.711  24.101  0.00  0.00    +0.013 A 
ATOM     20  C   UNL     1      -2.158  -2.873  24.494  0.00  0.00    +0.013 A 
ATOM     21  C   UNL     1      -4.403  -1.323  23.908  0.00  0.00    +0.001 A 
ATOM     22  C   UNL     1      -3.396  -3.484  24.301  0.00  0.00    +0.001 A 
ATOM     23  C   UNL     1      -4.519  -2.710  24.008  0.00  0.00    +0.000 A 
ENDBRANCH  14  16
ENDBRANCH  11   6
ENDBRANCH   9  11
TORSDOF 7
ENDMDL
MODEL 3
REMARK VINA RESULT:      -3.9      3.113      6.210
REMARK  Name = 86769003
REMARK  7 active torsions:
REMARK  status: ('A' for Active; 'I' for Inactive)
REMARK    1  A    between atoms: O_3  and  C_8
REMARK    2  A    between atoms: N_5  and  C_7
REMARK    3  A    between atoms: N_5  and  C_12
REMARK    4  A    between atoms: N_6  and  C_11
REMARK    5  A    between atoms: C_9  and  C_11
REMARK    6  A    between atoms: C_12  and  C_13
REMARK    7  A    between atoms: C_14  and  C_16
REMARK                            x       y       z     vdW  Elec       q    Type
REMARK                         _______ _______ _______ _____ _____    ______ ____
ROOT
ATOM      2  O   UNL     1      -2.037   1.893  22.579  0.00  0.00    -0.371 OA
ATOM      7  C   UNL     1      -2.763   2.273  24.809  0.00  0.00    +0.111 C 
ATOM      8  C   UNL     1      -1.723   1.169  24.810  0.00  0.00    +0.164 C 
ATOM      9  C   UNL     1      -1.022   1.427  23.482  0.00  0.00    +0.165 C 
ATOM     10  C   UNL     1      -3.187   2.287  23.349  0.00  0.00    +0.181 C 
ENDROOT
BRANCH   8   3
ATOM      3  O   UNL     1      -0.832   1.259  25.904  0.00  0.00    -0.388 OA
ATOM     25  H   UNL     1      -0.890   2.157  26.273  0.00  0.00    +0.210 HD
ENDBRANCH   8   3
BRANCH   7   5
ATOM      5  N   UNL     1      -3.872   2.031  25.717  0.00  0.00    -0.304 NA
ATOM     24  H   UNL     1      -4.367   2.909  25.878  0.00  0.00    +0.123 HD
BRANCH   5  12
ATOM     12  C   UNL     1      -4.802   1.055  25.163  0.00  0.00    +0.124 C 
BRANCH  12  13
ATOM      1  S   UNL     1      -4.290  -1.269  23.723  0.00  0.00    -0.100 S 
ATOM     13  C   UNL     1      -4.219  -0.334  25.156  0.00  0.00    +0.004 A 
ATOM     15  C   UNL     1      -3.602  -1.011  26.185  0.00  0.00    +0.012 A 
ATOM     17  C   UNL     1      -3.181  -2.313  25.792  0.00  0.00    +0.008 A 
ATOM     18  C   UNL     1      -3.493  -2.584  24.477  0.00  0.00    +0.045 A 
ENDBRANCH  12  13
ENDBRANCH   5  12
ENDBRANCH   7   5
BRANCH   9  11
ATOM     11  C   UNL     1      -0.351   0.192  22.908  0.00  0.00    +0.138 C 
BRANCH  11   6
ATOM      4  O   UNL     1       1.923  -0.249  21.209  0.00  0.00    -0.270 OA
ATOM      6  N   UNL     1       1.022   0.106  23.318  0.00  0.00    -0.309 N 
ATOM     14  C   UNL     1       2.064  -0.111  22.422  0.00  0.00    +0.244 C 
ATOM     26  H   UNL     1       1.200   0.141  24.315  0.00  0.00    +0.149 HD
BRANCH  14  16
ATOM     16  C   UNL     1       3.426  -0.199  23.008  0.00  0.00    +0.037 A 
ATOM     19  C   UNL     1       3.857  -1.388  23.597  0.00  0.00    +0.013 A 
ATOM     20  C   UNL     1       4.275   0.907  22.969  0.00  0.00    +0.013 A 
ATOM     21  C   UNL     1       5.137  -1.471  24.146  0.00  0.00    +0.001 A 
ATOM     22  C   UNL     1       5.554   0.825  23.518  0.00  0.00    +0.001 A 
ATOM     23  C   UNL     1       5.985  -0.364  24.107  0.00  0.00    +0.000 A 
ENDBRANCH  14  16
ENDBRANCH  11   6
ENDBRANCH   9  11
TORSDOF 7
ENDMDL
MODEL 4
REMARK VINA RESULT:      -3.5      1.755      4.833
REMARK  Name = 86769003
REMARK  7 active torsions:
REMARK  status: ('A' for Active; 'I' for Inactive)
REMARK    1  A    between atoms: O_3  and  C_8
REMARK    2  A    between atoms: N_5  and  C_7
REMARK    3  A    between atoms: N_5  and  C_12
REMARK    4  A    between atoms: N_6  and  C_11
REMARK    5  A    between atoms: C_9  and  C_11
REMARK    6  A    between atoms: C_12  and  C_13
REMARK    7  A    between atoms: C_14  and  C_16
REMARK                            x       y       z     vdW  Elec       q    Type
REMARK                         _______ _______ _______ _____ _____    ______ ____
ROOT
ATOM      2  O   UNL     1      -2.718   3.479  23.210  0.00  0.00    -0.371 OA
ATOM      7  C   UNL     1      -4.613   2.697  24.411  0.00  0.00    +0.111 C 
ATOM      8  C   UNL     1      -3.532   3.096  25.398  0.00  0.00    +0.164 C 
ATOM      9  C   UNL     1      -2.679   4.020  24.541  0.00  0.00    +0.165 C 
ATOM     10  C   UNL     1      -3.810   2.545  23.130  0.00  0.00    +0.181 C 
ENDROOT
BRANCH   8   3
ATOM      3  O   UNL     1      -4.049   3.758  26.536  0.00  0.00    -0.388 OA
ATOM     25  H   UNL     1      -4.813   4.291  26.259  0.00  0.00    +0.210 HD
ENDBRANCH   8   3
BRANCH   7   5
ATOM      5  N   UNL     1      -5.323   1.484  24.781  0.00  0.00    -0.304 NA
ATOM     24  H   UNL     1      -5.484   0.925  23.943  0.00  0.00    +0.123 HD
BRANCH   5  12
ATOM     12  C   UNL     1      -4.556   0.697  25.739  0.00  0.00    +0.124 C 
BRANCH  12  13
ATOM      1  S   UNL     1      -2.413  -1.070  25.580  0.00  0.00    -0.100 S 
ATOM     13  C   UNL     1      -3.972  -0.540  25.108  0.00  0.00    +0.004 A 
ATOM     15  C   UNL     1      -4.530  -1.360  24.152  0.00  0.00    +0.012 A 
ATOM     17  C   UNL     1      -3.667  -2.439  23.804  0.00  0.00    +0.008 A 
ATOM     18  C   UNL     1      -2.482  -2.401  24.505  0.00  0.00    +0.045 A 
ENDBRANCH  12  13
ENDBRANCH   5  12
ENDBRANCH   7   5
BRANCH   9  11
ATOM     11  C   UNL     1      -1.239   4.118  25.013  0.00  0.00    +0.138 C 
BRANCH  11   6
ATOM      4  O   UNL     1      -0.264   1.528  25.783  0.00  0.00    -0.270 OA
ATOM      6  N   UNL     1      -0.380   3.262  24.245  0.00  0.00    -0.309 N 
ATOM     14  C   UNL     1       0.045   2.018  24.699  0.00  0.00    +0.244 C 
ATOM     26  H   UNL     1      -0.031   3.637  23.370  0.00  0.00    +0.149 HD
BRANCH  14  16
ATOM     16  C   UNL     1       0.953   1.264  23.797  0.00  0.00    +0.037 A 
ATOM     19  C   UNL     1       2.281   1.665  23.647  0.00  0.00    +0.013 A 
ATOM     20  C   UNL     1       0.477   0.154  23.098  0.00  0.00    +0.013 A 
ATOM     21  C   UNL     1       3.132   0.956  22.800  0.00  0.00    +0.001 A 
ATOM     22  C   UNL     1       1.328  -0.555  22.251  0.00  0.00    +0.001 A 
ATOM     23  C   UNL     1       2.656  -0.154  22.101  0.00  0.00    +0.000 A 
ENDBRANCH  14  16
ENDBRANCH  11   6
ENDBRANCH   9  11
TORSDOF 7
ENDMDL
MODEL 5
REMARK VINA RESULT:      -3.3     19.078     20.823
REMARK  Name = 86769003
REMARK  7 active torsions:
REMARK  status: ('A' for Active; 'I' for Inactive)
REMARK    1  A    between atoms: O_3  and  C_8
REMARK    2  A    between atoms: N_5  and  C_7
REMARK    3  A    between atoms: N_5  and  C_12
REMARK    4  A    between atoms: N_6  and  C_11
REMARK    5  A    between atoms: C_9  and  C_11
REMARK    6  A    between atoms: C_12  and  C_13
REMARK    7  A    between atoms: C_14  and  C_16
REMARK                            x       y       z     vdW  Elec       q    Type
REMARK                         _______ _______ _______ _____ _____    ______ ____
ROOT
ATOM      2  O   UNL     1      12.851 -10.458  30.190  0.00  0.00    -0.371 OA
ATOM      7  C   UNL     1      15.123 -10.718  29.548  0.00  0.00    +0.111 C 
ATOM      8  C   UNL     1      15.032  -9.650  30.621  0.00  0.00    +0.164 C 
ATOM      9  C   UNL     1      13.690  -9.987  31.257  0.00  0.00    +0.165 C 
ATOM     10  C   UNL     1      13.685 -10.781  29.063  0.00  0.00    +0.181 C 
ENDROOT
BRANCH   8   3
ATOM      3  O   UNL     1      16.091  -9.722  31.555  0.00  0.00    -0.388 OA
ATOM     25  H   UNL     1      16.505  -8.844  31.617  0.00  0.00    +0.210 HD
ENDBRANCH   8   3
BRANCH   7   5
ATOM      5  N   UNL     1      16.065 -10.401  28.487  0.00  0.00    -0.304 NA
ATOM     24  H   UNL     1      16.639 -11.223  28.296  0.00  0.00    +0.123 HD
BRANCH   5  12
ATOM     12  C   UNL     1      15.370 -10.012  27.266  0.00  0.00    +0.124 C 
BRANCH  12  13
ATOM      1  S   UNL     1      16.983  -8.657  25.450  0.00  0.00    -0.100 S 
ATOM     13  C   UNL     1      15.858  -8.688  26.741  0.00  0.00    +0.004 A 
ATOM     15  C   UNL     1      15.520  -7.420  27.163  0.00  0.00    +0.012 A 
ATOM     17  C   UNL     1      16.193  -6.411  26.416  0.00  0.00    +0.008 A 
ATOM     18  C   UNL     1      17.021  -6.945  25.452  0.00  0.00    +0.045 A 
ENDBRANCH  12  13
ENDBRANCH   5  12
ENDBRANCH   7   5
BRANCH   9  11
ATOM     11  C   UNL     1      13.034  -8.801  31.941  0.00  0.00    +0.138 C 
BRANCH  11   6
ATOM      4  O   UNL     1      12.309  -6.340  30.650  0.00  0.00    -0.270 OA
ATOM      6  N   UNL     1      13.843  -7.621  31.828  0.00  0.00    -0.309 N 
ATOM     14  C   UNL     1      13.409  -6.468  31.182  0.00  0.00    +0.244 C 
ATOM     26  H   UNL     1      14.790  -7.685  32.184  0.00  0.00    +0.149 HD
BRANCH  14  16
ATOM     16  C   UNL     1      14.375  -5.342  31.128  0.00  0.00    +0.037 A 
ATOM     19  C   UNL     1      14.276  -4.292  32.042  0.00  0.00    +0.013 A 
ATOM     20  C   UNL     1      15.383  -5.333  30.163  0.00  0.00    +0.013 A 
ATOM     21  C   UNL     1      15.184  -3.235  31.992  0.00  0.00    +0.001 A 
ATOM     22  C   UNL     1      16.291  -4.276  30.113  0.00  0.00    +0.001 A 
ATOM     23  C   UNL     1      16.192  -3.226  31.027  0.00  0.00    +0.000 A 
ENDBRANCH  14  16
ENDBRANCH  11   6
ENDBRANCH   9  11
TORSDOF 7
ENDMDL
MODEL 6
REMARK VINA RESULT:      -3.1      2.488      6.125
REMARK  Name = 86769003
REMARK  7 active torsions:
REMARK  status: ('A' for Active; 'I' for Inactive)
REMARK    1  A    between atoms: O_3  and  C_8
REMARK    2  A    between atoms: N_5  and  C_7
REMARK    3  A    between atoms: N_5  and  C_12
REMARK    4  A    between atoms: N_6  and  C_11
REMARK    5  A    between atoms: C_9  and  C_11
REMARK    6  A    between atoms: C_12  and  C_13
REMARK    7  A    between atoms: C_14  and  C_16
REMARK                            x       y       z     vdW  Elec       q    Type
REMARK                         _______ _______ _______ _____ _____    ______ ____
ROOT
ATOM      2  O   UNL     1      -0.974  -0.564  26.246  0.00  0.00    -0.371 OA
ATOM      7  C   UNL     1      -2.484  -2.184  25.385  0.00  0.00    +0.111 C 
ATOM      8  C   UNL     1      -1.606  -1.677  24.256  0.00  0.00    +0.164 C 
ATOM      9  C   UNL     1      -0.427  -1.110  25.035  0.00  0.00    +0.165 C 
ATOM     10  C   UNL     1      -2.302  -1.088  26.423  0.00  0.00    +0.181 C 
ENDROOT
BRANCH   8   3
ATOM      3  O   UNL     1      -1.208  -2.705  23.370  0.00  0.00    -0.388 OA
ATOM     25  H   UNL     1      -2.005  -3.171  23.064  0.00  0.00    +0.210 HD
ENDBRANCH   8   3
BRANCH   7   5
ATOM      5  N   UNL     1      -3.873  -2.376  25.003  0.00  0.00    -0.304 NA
ATOM     24  H   UNL     1      -4.473  -2.100  25.781  0.00  0.00    +0.123 HD
BRANCH   5  12
ATOM     12  C   UNL     1      -4.212  -1.575  23.833  0.00  0.00    +0.124 C 
BRANCH  12  13
ATOM      1  S   UNL     1      -3.565   1.100  23.429  0.00  0.00    -0.100 S 
ATOM     13  C   UNL     1      -4.470  -0.136  24.194  0.00  0.00    +0.004 A 
ATOM     15  C   UNL     1      -5.376   0.372  25.100  0.00  0.00    +0.012 A 
ATOM     17  C   UNL     1      -5.326   1.794  25.166  0.00  0.00    +0.008 A 
ATOM     18  C   UNL     1      -4.384   2.319  24.309  0.00  0.00    +0.045 A 
ENDBRANCH  12  13
ENDBRANCH   5  12
ENDBRANCH   7   5
BRANCH   9  11
ATOM     11  C   UNL     1       0.327  -0.029  24.280  0.00  0.00    +0.138 C 
BRANCH  11   6
ATOM      4  O   UNL     1       0.893   2.061  26.166  0.00  0.00    -0.270 OA
ATOM      6  N   UNL     1      -0.338   1.238  24.380  0.00  0.00    -0.309 N 
ATOM     14  C   UNL     1       0.003   2.195  25.330  0.00  0.00    +0.244 C 
ATOM     26  H   UNL     1      -1.130   1.385  23.764  0.00  0.00    +0.149 HD
BRANCH  14  16
ATOM     16  C   UNL     1      -0.799   3.446  25.319  0.00  0.00    +0.037 A 
ATOM     19  C   UNL     1      -1.992   3.517  26.038  0.00  0.00    +0.013 A 
ATOM     20  C   UNL     1      -0.357   4.551  24.590  0.00  0.00    +0.013 A 
ATOM     21  C   UNL     1      -2.744   4.691  26.028  0.00  0.00    +0.001 A 
ATOM     22  C   UNL     1      -1.109   5.725  24.580  0.00  0.00    +0.001 A 
ATOM     23  C   UNL     1      -2.302   5.796  25.299  0.00  0.00    +0.000 A 
ENDBRANCH  14  16
ENDBRANCH  11   6
ENDBRANCH   9  11
TORSDOF 7
ENDMDL
MODEL 7
REMARK VINA RESULT:      -3.1     19.189     21.075
REMARK  Name = 86769003
REMARK  7 active torsions:
REMARK  status: ('A' for Active; 'I' for Inactive)
REMARK    1  A    between atoms: O_3  and  C_8
REMARK    2  A    between atoms: N_5  and  C_7
REMARK    3  A    between atoms: N_5  and  C_12
REMARK    4  A    between atoms: N_6  and  C_11
REMARK    5  A    between atoms: C_9  and  C_11
REMARK    6  A    between atoms: C_12  and  C_13
REMARK    7  A    between atoms: C_14  and  C_16
REMARK                            x       y       z     vdW  Elec       q    Type
REMARK                         _______ _______ _______ _____ _____    ______ ____
ROOT
ATOM      2  O   UNL     1      14.053 -10.463  28.182  0.00  0.00    -0.371 OA
ATOM      7  C   UNL     1      16.396 -10.265  27.851  0.00  0.00    +0.111 C 
ATOM      8  C   UNL     1      16.037  -9.681  29.204  0.00  0.00    +0.164 C 
ATOM      9  C   UNL     1      14.693 -10.347  29.463  0.00  0.00    +0.165 C 
ATOM     10  C   UNL     1      15.044 -10.271  27.157  0.00  0.00    +0.181 C 
ENDROOT
BRANCH   8   3
ATOM      3  O   UNL     1      16.985  -9.998  30.205  0.00  0.00    -0.388 OA
ATOM     25  H   UNL     1      17.610 -10.648  29.840  0.00  0.00    +0.210 HD
ENDBRANCH   8   3
BRANCH   7   5
ATOM      5  N   UNL     1      17.398  -9.496  27.131  0.00  0.00    -0.304 NA
ATOM     24  H   UNL     1      18.271 -10.026  27.109  0.00  0.00    +0.123 HD
BRANCH   5  12
ATOM     12  C   UNL     1      16.971  -9.226  25.763  0.00  0.00    +0.124 C 
BRANCH  12  13
ATOM      1  S   UNL     1      16.690  -6.600  26.634  0.00  0.00    -0.100 S 
ATOM     13  C   UNL     1      17.055  -7.761  25.428  0.00  0.00    +0.004 A 
ATOM     15  C   UNL     1      17.399  -7.173  24.231  0.00  0.00    +0.012 A 
ATOM     17  C   UNL     1      17.364  -5.751  24.304  0.00  0.00    +0.008 A 
ATOM     18  C   UNL     1      16.993  -5.305  25.554  0.00  0.00    +0.045 A 
ENDBRANCH  12  13
ENDBRANCH   5  12
ENDBRANCH   7   5
BRANCH   9  11
ATOM     11  C   UNL     1      13.805  -9.559  30.411  0.00  0.00    +0.138 C 
BRANCH  11   6
ATOM      4  O   UNL     1      12.378  -7.067  30.371  0.00  0.00    -0.270 OA
ATOM      6  N   UNL     1      14.348  -8.257  30.672  0.00  0.00    -0.309 N 
ATOM     14  C   UNL     1      13.579  -7.098  30.630  0.00  0.00    +0.244 C 
ATOM     26  H   UNL     1      15.348  -8.205  30.824  0.00  0.00    +0.149 HD
BRANCH  14  16
ATOM     16  C   UNL     1      14.295  -5.825  30.900  0.00  0.00    +0.037 A 
ATOM     19  C   UNL     1      15.350  -5.429  30.078  0.00  0.00    +0.013 A 
ATOM     20  C   UNL     1      13.910  -5.024  31.976  0.00  0.00    +0.013 A 
ATOM     21  C   UNL     1      16.021  -4.233  30.331  0.00  0.00    +0.001 A 
ATOM     22  C   UNL     1      14.581  -3.828  32.229  0.00  0.00    +0.001 A 
ATOM     23  C   UNL     1      15.637  -3.432  31.407  0.00  0.00    +0.000 A 
ENDBRANCH  14  16
ENDBRANCH  11   6
ENDBRANCH   9  11
TORSDOF 7
ENDMDL
MODEL 8
REMARK VINA RESULT:      -2.8      2.059      3.888
REMARK  Name = 86769003
REMARK  7 active torsions:
REMARK  status: ('A' for Active; 'I' for Inactive)
REMARK    1  A    between atoms: O_3  and  C_8
REMARK    2  A    between atoms: N_5  and  C_7
REMARK    3  A    between atoms: N_5  and  C_12
REMARK    4  A    between atoms: N_6  and  C_11
REMARK    5  A    between atoms: C_9  and  C_11
REMARK    6  A    between atoms: C_12  and  C_13
REMARK    7  A    between atoms: C_14  and  C_16
REMARK                            x       y       z     vdW  Elec       q    Type
REMARK                         _______ _______ _______ _____ _____    ______ ____
ROOT
ATOM      2  O   UNL     1       0.164   3.732  25.975  0.00  0.00    -0.371 OA
ATOM      7  C   UNL     1       0.415   1.681  24.802  0.00  0.00    +0.111 C 
ATOM      8  C   UNL     1      -0.651   2.515  24.117  0.00  0.00    +0.164 C 
ATOM      9  C   UNL     1      -0.308   3.907  24.629  0.00  0.00    +0.165 C 
ATOM     10  C   UNL     1       0.482   2.342  26.169  0.00  0.00    +0.181 C 
ENDROOT
BRANCH   8   3
ATOM      3  O   UNL     1      -0.581   2.439  22.707  0.00  0.00    -0.388 OA
ATOM     25  H   UNL     1      -0.332   3.315  22.365  0.00  0.00    +0.210 HD
ENDBRANCH   8   3
BRANCH   7   5
ATOM      5  N   UNL     1       0.092   0.266  24.873  0.00  0.00    -0.304 NA
ATOM     24  H   UNL     1       0.923  -0.250  25.168  0.00  0.00    +0.123 HD
BRANCH   5  12
ATOM     12  C   UNL     1      -0.983   0.019  25.826  0.00  0.00    +0.124 C 
BRANCH  12  13
ATOM      1  S   UNL     1      -1.715  -2.343  24.552  0.00  0.00    -0.100 S 
ATOM     13  C   UNL     1      -2.086  -0.812  25.225  0.00  0.00    +0.004 A 
ATOM     15  C   UNL     1      -3.427  -0.514  25.125  0.00  0.00    +0.012 A 
ATOM     17  C   UNL     1      -4.161  -1.556  24.489  0.00  0.00    +0.008 A 
ATOM     18  C   UNL     1      -3.352  -2.611  24.125  0.00  0.00    +0.045 A 
ENDBRANCH  12  13
ENDBRANCH   5  12
ENDBRANCH   7   5
BRANCH   9  11
ATOM     11  C   UNL     1      -1.491   4.859  24.620  0.00  0.00    +0.138 C 
BRANCH  11   6
ATOM      4  O   UNL     1      -2.939   3.876  26.897  0.00  0.00    -0.270 OA
ATOM      6  N   UNL     1      -2.735   4.145  24.601  0.00  0.00    -0.309 N 
ATOM     14  C   UNL     1      -3.368   3.704  25.758  0.00  0.00    +0.244 C 
ATOM     26  H   UNL     1      -3.108   3.908  23.689  0.00  0.00    +0.149 HD
BRANCH  14  16
ATOM     16  C   UNL     1      -4.638   2.956  25.568  0.00  0.00    +0.037 A 
ATOM     19  C   UNL     1      -5.513   2.781  26.641  0.00  0.00    +0.013 A 
ATOM     20  C   UNL     1      -4.955   2.428  24.316  0.00  0.00    +0.013 A 
ATOM     21  C   UNL     1      -6.705   2.080  26.461  0.00  0.00    +0.001 A 
ATOM     22  C   UNL     1      -6.147   1.727  24.136  0.00  0.00    +0.001 A 
ATOM     23  C   UNL     1      -7.022   1.552  25.209  0.00  0.00    +0.000 A 
ENDBRANCH  14  16
ENDBRANCH  11   6
ENDBRANCH   9  11
TORSDOF 7
ENDMDL
MODEL 9
REMARK VINA RESULT:      -2.5     17.517     19.457
REMARK  Name = 86769003
REMARK  7 active torsions:
REMARK  status: ('A' for Active; 'I' for Inactive)
REMARK    1  A    between atoms: O_3  and  C_8
REMARK    2  A    between atoms: N_5  and  C_7
REMARK    3  A    between atoms: N_5  and  C_12
REMARK    4  A    between atoms: N_6  and  C_11
REMARK    5  A    between atoms: C_9  and  C_11
REMARK    6  A    between atoms: C_12  and  C_13
REMARK    7  A    between atoms: C_14  and  C_16
REMARK                            x       y       z     vdW  Elec       q    Type
REMARK                         _______ _______ _______ _____ _____    ______ ____
ROOT
ATOM      2  O   UNL     1      12.589 -10.534  30.424  0.00  0.00    -0.371 OA
ATOM      7  C   UNL     1      14.903 -10.705  29.918  0.00  0.00    +0.111 C 
ATOM      8  C   UNL     1      14.723  -9.764  31.094  0.00  0.00    +0.164 C 
ATOM      9  C   UNL     1      13.346 -10.179  31.592  0.00  0.00    +0.165 C 
ATOM     10  C   UNL     1      13.503 -10.723  29.329  0.00  0.00    +0.181 C 
ENDROOT
BRANCH   8   3
ATOM      3  O   UNL     1      15.717  -9.932  32.085  0.00  0.00    -0.388 OA
ATOM     25  H   UNL     1      16.568  -9.639  31.719  0.00  0.00    +0.210 HD
ENDBRANCH   8   3
BRANCH   7   5
ATOM      5  N   UNL     1      15.911 -10.265  28.967  0.00  0.00    -0.304 NA
ATOM     24  H   UNL     1      16.670 -10.947  28.949  0.00  0.00    +0.123 HD
BRANCH   5  12
ATOM     12  C   UNL     1      15.351 -10.140  27.627  0.00  0.00    +0.124 C 
BRANCH  12  13
ATOM      1  S   UNL     1      15.804  -7.407  27.869  0.00  0.00    -0.100 S 
ATOM     13  C   UNL     1      15.773  -8.858  26.960  0.00  0.00    +0.004 A 
ATOM     15  C   UNL     1      16.161  -8.658  25.653  0.00  0.00    +0.012 A 
ATOM     17  C   UNL     1      16.488  -7.296  25.395  0.00  0.00    +0.008 A 
ATOM     18  C   UNL     1      16.338  -6.506  26.514  0.00  0.00    +0.045 A 
ENDBRANCH  12  13
ENDBRANCH   5  12
ENDBRANCH   7   5
BRANCH   9  11
ATOM     11  C   UNL     1      12.627  -9.081  32.356  0.00  0.00    +0.138 C 
BRANCH  11   6
ATOM      4  O   UNL     1      10.701  -7.014  32.873  0.00  0.00    -0.270 OA
ATOM      6  N   UNL     1      11.205  -9.172  32.185  0.00  0.00    -0.309 N 
ATOM     14  C   UNL     1      10.343  -8.116  32.462  0.00  0.00    +0.244 C 
ATOM     26  H   UNL     1      10.838 -10.078  31.915  0.00  0.00    +0.149 HD
BRANCH  14  16
ATOM     16  C   UNL     1       8.896  -8.378  32.258  0.00  0.00    +0.037 A 
ATOM     19  C   UNL     1       7.944  -7.559  32.867  0.00  0.00    +0.013 A 
ATOM     20  C   UNL     1       8.487  -9.444  31.456  0.00  0.00    +0.013 A 
ATOM     21  C   UNL     1       6.586  -7.806  32.674  0.00  0.00    +0.001 A 
ATOM     22  C   UNL     1       7.128  -9.691  31.263  0.00  0.00    +0.001 A 
ATOM     23  C   UNL     1       6.177  -8.872  31.872  0.00  0.00    +0.000 A 
ENDBRANCH  14  16
ENDBRANCH  11   6
ENDBRANCH   9  11
TORSDOF 7
ENDMDL
MODEL 10
REMARK VINA RESULT:      -2.3     17.605     19.474
REMARK  Name = 86769003
REMARK  7 active torsions:
REMARK  status: ('A' for Active; 'I' for Inactive)
REMARK    1  A    between atoms: O_3  and  C_8
REMARK    2  A    between atoms: N_5  and  C_7
REMARK    3  A    between atoms: N_5  and  C_12
REMARK    4  A    between atoms: N_6  and  C_11
REMARK    5  A    between atoms: C_9  and  C_11
REMARK    6  A    between atoms: C_12  and  C_13
REMARK    7  A    between atoms: C_14  and  C_16
REMARK                            x       y       z     vdW  Elec       q    Type
REMARK                         _______ _______ _______ _____ _____    ______ ____
ROOT
ATOM      2  O   UNL     1      13.043 -10.189  29.984  0.00  0.00    -0.371 OA
ATOM      7  C   UNL     1      15.401  -9.917  29.897  0.00  0.00    +0.111 C 
ATOM      8  C   UNL     1      14.930  -9.699  31.323  0.00  0.00    +0.164 C 
ATOM      9  C   UNL     1      13.582 -10.406  31.298  0.00  0.00    +0.165 C 
ATOM     10  C   UNL     1      14.105  -9.743  29.122  0.00  0.00    +0.181 C 
ENDROOT
BRANCH   8   3
ATOM      3  O   UNL     1      15.805 -10.263  32.279  0.00  0.00    -0.388 OA
ATOM     25  H   UNL     1      16.257 -11.022  31.871  0.00  0.00    +0.210 HD
ENDBRANCH   8   3
BRANCH   7   5
ATOM      5  N   UNL     1      16.440  -8.991  29.477  0.00  0.00    -0.304 NA
ATOM     24  H   UNL     1      17.135  -9.499  28.929  0.00  0.00    +0.123 HD
BRANCH   5  12
ATOM     12  C   UNL     1      15.887  -7.915  28.664  0.00  0.00    +0.124 C 
BRANCH  12  13
ATOM      1  S   UNL     1      17.312  -5.708  29.579  0.00  0.00    -0.100 S 
ATOM     13  C   UNL     1      15.863  -6.605  29.408  0.00  0.00    +0.004 A 
ATOM     15  C   UNL     1      14.793  -5.980  30.009  0.00  0.00    +0.012 A 
ATOM     17  C   UNL     1      15.168  -4.747  30.617  0.00  0.00    +0.008 A 
ATOM     18  C   UNL     1      16.510  -4.478  30.459  0.00  0.00    +0.045 A 
ENDBRANCH  12  13
ENDBRANCH   5  12
ENDBRANCH   7   5
BRANCH   9  11
ATOM     11  C   UNL     1      12.612  -9.887  32.344  0.00  0.00    +0.138 C 
BRANCH  11   6
ATOM      4  O   UNL     1      10.484  -8.032  32.873  0.00  0.00    -0.270 OA
ATOM      6  N   UNL     1      11.254  -9.988  31.892  0.00  0.00    -0.309 N 
ATOM     14  C   UNL     1      10.285  -9.038  32.197  0.00  0.00    +0.244 C 
ATOM     26  H   UNL     1      11.006 -10.832  31.387  0.00  0.00    +0.149 HD
BRANCH  14  16
ATOM     16  C   UNL     1       8.920  -9.301  31.674  0.00  0.00    +0.037 A 
ATOM     19  C   UNL     1       8.618 -10.535  31.097  0.00  0.00    +0.013 A 
ATOM     20  C   UNL     1       7.938  -8.313  31.761  0.00  0.00    +0.013 A 
ATOM     21  C   UNL     1       7.336 -10.781  30.607  0.00  0.00    +0.001 A 
ATOM     22  C   UNL     1       6.656  -8.559  31.271  0.00  0.00    +0.001 A 
ATOM     23  C   UNL     1       6.354  -9.793  30.694  0.00  0.00    +0.000 A 
ENDBRANCH  14  16
ENDBRANCH  11   6
ENDBRANCH   9  11
TORSDOF 7
ENDMDL
