MODEL 1
REMARK VINA RESULT:       1.5      0.000      0.000
REMARK  Name = 9424513
REMARK  2 active torsions:
REMARK  status: ('A' for Active; 'I' for Inactive)
REMARK    1  A    between atoms: C_14  and  C_19
REMARK    2  A    between atoms: C_16  and  C_20
REMARK                            x       y       z     vdW  Elec       q    Type
REMARK                         _______ _______ _______ _____ _____    ______ ____
ROOT
ATOM      3  O   UNL     1      -2.500   4.065  27.594  0.00  0.00    -0.268 OA
ATOM      4  O   UNL     1      -5.659   0.760  25.391  0.00  0.00    -0.269 OA
ATOM      5  N   UNL     1      -2.221   3.296  25.399  0.00  0.00    -0.311 N 
ATOM      6  N   UNL     1      -4.152   1.435  23.735  0.00  0.00    -0.296 N 
ATOM      7  C   UNL     1      -3.891   3.895  23.545  0.00  0.00    +0.027 C 
ATOM      8  C   UNL     1      -1.978   2.428  23.053  0.00  0.00    +0.054 C 
ATOM      9  C   UNL     1      -2.704   3.699  22.614  0.00  0.00    +0.018 C 
ATOM     10  C   UNL     1      -3.363   4.114  24.965  0.00  0.00    +0.130 C 
ATOM     11  C   UNL     1      -4.846   2.692  23.465  0.00  0.00    +0.113 C 
ATOM     12  C   UNL     1      -2.935   1.222  22.938  0.00  0.00    +0.117 C 
ATOM     13  C   UNL     1      -1.454   2.545  24.486  0.00  0.00    +0.034 A 
ATOM     14  C   UNL     1      -0.316   1.931  24.902  0.00  0.00    +0.005 A 
ATOM     15  C   UNL     1      -1.875   3.412  26.757  0.00  0.00    +0.252 A 
ATOM     16  C   UNL     1      -4.639   0.579  24.727  0.00  0.00    +0.253 C 
ATOM     17  C   UNL     1       0.070   2.024  26.297  0.00  0.00    +0.015 A 
ATOM     18  C   UNL     1      -0.652   2.700  27.192  0.00  0.00    +0.071 A 
ENDROOT
BRANCH  14  19
ATOM      2  F   UNL     1      -1.044  -0.630  23.956  0.00  0.00    -0.205 F 
ATOM     19  C   UNL     1       0.533   1.151  23.974  0.00  0.00    +0.019 A 
ATOM     21  C   UNL     1       0.121  -0.106  23.543  0.00  0.00    +0.131 A 
ATOM     22  C   UNL     1       1.743   1.684  23.540  0.00  0.00    +0.011 A 
ATOM     24  C   UNL     1       0.925  -0.837  22.669  0.00  0.00    +0.039 A 
ATOM     25  C   UNL     1       2.549   0.952  22.666  0.00  0.00    +0.001 A 
ATOM     27  C   UNL     1       2.139  -0.308  22.231  0.00  0.00    +0.003 A 
ENDBRANCH  14  19
BRANCH  16  20
ATOM      1  S   UNL     1      -4.092  -2.017  24.047  0.00  0.00    -0.092 S 
ATOM     20  C   UNL     1      -3.875  -0.637  25.031  0.00  0.00    +0.074 A 
ATOM     23  C   UNL     1      -2.965  -0.848  26.037  0.00  0.00    +0.021 A 
ATOM     26  C   UNL     1      -2.433  -2.169  26.003  0.00  0.00    +0.008 A 
ATOM     28  C   UNL     1      -2.960  -2.912  24.969  0.00  0.00    +0.046 A 
ENDBRANCH  16  20
TORSDOF 2
ENDMDL
MODEL 2
REMARK VINA RESULT:       4.1      2.438      4.698
REMARK  Name = 9424513
REMARK  2 active torsions:
REMARK  status: ('A' for Active; 'I' for Inactive)
REMARK    1  A    between atoms: C_14  and  C_19
REMARK    2  A    between atoms: C_16  and  C_20
REMARK                            x       y       z     vdW  Elec       q    Type
REMARK                         _______ _______ _______ _____ _____    ______ ____
ROOT
ATOM      3  O   UNL     1      -3.963   4.010  21.226  0.00  0.00    -0.268 OA
ATOM      4  O   UNL     1      -2.148   5.379  25.763  0.00  0.00    -0.269 OA
ATOM      5  N   UNL     1      -4.243   2.718  23.160  0.00  0.00    -0.311 N 
ATOM      6  N   UNL     1      -3.417   3.447  26.118  0.00  0.00    -0.296 N 
ATOM      7  C   UNL     1      -5.687   3.530  25.119  0.00  0.00    +0.027 C 
ATOM      8  C   UNL     1      -4.503   1.378  25.270  0.00  0.00    +0.054 C 
ATOM      9  C   UNL     1      -5.870   2.047  25.408  0.00  0.00    +0.018 C 
ATOM     10  C   UNL     1      -5.223   3.688  23.669  0.00  0.00    +0.130 C 
ATOM     11  C   UNL     1      -4.694   4.157  26.113  0.00  0.00    +0.113 C 
ATOM     12  C   UNL     1      -3.523   1.991  26.294  0.00  0.00    +0.117 C 
ATOM     13  C   UNL     1      -3.942   1.529  23.854  0.00  0.00    +0.034 A 
ATOM     14  C   UNL     1      -3.152   0.588  23.275  0.00  0.00    +0.005 A 
ATOM     15  C   UNL     1      -3.723   2.996  21.883  0.00  0.00    +0.252 A 
ATOM     16  C   UNL     1      -2.233   4.160  25.909  0.00  0.00    +0.253 C 
ATOM     17  C   UNL     1      -2.593   0.842  21.961  0.00  0.00    +0.015 A 
ATOM     18  C   UNL     1      -2.833   1.971  21.293  0.00  0.00    +0.071 A 
ENDROOT
BRANCH  14  19
ATOM      2  F   UNL     1      -5.069  -1.442  23.704  0.00  0.00    -0.205 F 
ATOM     19  C   UNL     1      -2.828  -0.685  23.957  0.00  0.00    +0.019 A 
ATOM     21  C   UNL     1      -3.817  -1.648  24.139  0.00  0.00    +0.131 A 
ATOM     22  C   UNL     1      -1.533  -0.909  24.413  0.00  0.00    +0.011 A 
ATOM     24  C   UNL     1      -3.507  -2.846  24.782  0.00  0.00    +0.039 A 
ATOM     25  C   UNL     1      -1.223  -2.107  25.058  0.00  0.00    +0.001 A 
ATOM     27  C   UNL     1      -2.210  -3.075  25.242  0.00  0.00    +0.003 A 
ENDBRANCH  14  19
BRANCH  16  20
ATOM      1  S   UNL     1      -0.393   2.913  24.310  0.00  0.00    -0.092 S 
ATOM     20  C   UNL     1      -0.974   3.410  25.838  0.00  0.00    +0.074 A 
ATOM     23  C   UNL     1      -0.147   3.024  26.864  0.00  0.00    +0.021 A 
ATOM     26  C   UNL     1       0.988   2.305  26.389  0.00  0.00    +0.008 A 
ATOM     28  C   UNL     1       0.980   2.173  25.018  0.00  0.00    +0.046 A 
ENDBRANCH  16  20
TORSDOF 2
ENDMDL
MODEL 3
REMARK VINA RESULT:       5.0      2.311      4.243
REMARK  Name = 9424513
REMARK  2 active torsions:
REMARK  status: ('A' for Active; 'I' for Inactive)
REMARK    1  A    between atoms: C_14  and  C_19
REMARK    2  A    between atoms: C_16  and  C_20
REMARK                            x       y       z     vdW  Elec       q    Type
REMARK                         _______ _______ _______ _____ _____    ______ ____
ROOT
ATOM      3  O   UNL     1       0.537   2.180  27.708  0.00  0.00    -0.268 OA
ATOM      4  O   UNL     1      -2.910   4.893  25.156  0.00  0.00    -0.269 OA
ATOM      5  N   UNL     1      -0.334   1.520  25.636  0.00  0.00    -0.311 N 
ATOM      6  N   UNL     1      -2.298   3.123  23.756  0.00  0.00    -0.296 N 
ATOM      7  C   UNL     1       0.154   2.843  23.493  0.00  0.00    +0.027 C 
ATOM      8  C   UNL     1      -1.311   0.867  23.415  0.00  0.00    +0.054 C 
ATOM      9  C   UNL     1      -0.072   1.510  22.793  0.00  0.00    +0.018 C 
ATOM     10  C   UNL     1       0.448   2.572  24.970  0.00  0.00    +0.130 C 
ATOM     11  C   UNL     1      -1.063   3.765  23.307  0.00  0.00    +0.113 C 
ATOM     12  C   UNL     1      -2.533   1.785  23.195  0.00  0.00    +0.117 C 
ATOM     13  C   UNL     1      -1.119   0.602  24.910  0.00  0.00    +0.034 A 
ATOM     14  C   UNL     1      -1.698  -0.448  25.548  0.00  0.00    +0.005 A 
ATOM     15  C   UNL     1      -0.148   1.417  27.026  0.00  0.00    +0.252 A 
ATOM     16  C   UNL     1      -3.110   3.773  24.689  0.00  0.00    +0.253 C 
ATOM     17  C   UNL     1      -1.532  -0.584  26.982  0.00  0.00    +0.015 A 
ATOM     18  C   UNL     1      -0.823   0.286  27.702  0.00  0.00    +0.071 A 
ENDROOT
BRANCH  14  19
ATOM      2  F   UNL     1      -0.716  -3.010  24.874  0.00  0.00    -0.205 F 
ATOM     19  C   UNL     1      -2.511  -1.449  24.822  0.00  0.00    +0.019 A 
ATOM     21  C   UNL     1      -1.971  -2.696  24.518  0.00  0.00    +0.131 A 
ATOM     22  C   UNL     1      -3.813  -1.134  24.447  0.00  0.00    +0.011 A 
ATOM     24  C   UNL     1      -2.741  -3.636  23.834  0.00  0.00    +0.039 A 
ATOM     25  C   UNL     1      -4.584  -2.074  23.762  0.00  0.00    +0.001 A 
ATOM     27  C   UNL     1      -4.047  -3.325  23.455  0.00  0.00    +0.003 A 
ENDBRANCH  14  19
BRANCH  16  20
ATOM      1  S   UNL     1      -5.633   3.985  25.735  0.00  0.00    -0.092 S 
ATOM     20  C   UNL     1      -4.300   3.069  25.182  0.00  0.00    +0.074 A 
ATOM     23  C   UNL     1      -4.520   1.716  25.272  0.00  0.00    +0.021 A 
ATOM     26  C   UNL     1      -5.808   1.423  25.806  0.00  0.00    +0.008 A 
ATOM     28  C   UNL     1      -6.518   2.566  26.101  0.00  0.00    +0.046 A 
ENDBRANCH  16  20
TORSDOF 2
ENDMDL
