MODEL 1
REMARK VINA RESULT:      -3.9      0.000      0.000
REMARK  Name = 26743171
REMARK  11 active torsions:
REMARK  status: ('A' for Active; 'I' for Inactive)
REMARK    1  A    between atoms: O_3  and  C_20
REMARK    2  A    between atoms: O_3  and  C_26
REMARK    3  A    between atoms: O_4  and  C_27
REMARK    4  A    between atoms: O_4  and  C_33
REMARK    5  A    between atoms: N_6  and  C_19
REMARK    6  A    between atoms: C_8  and  C_14
REMARK    7  A    between atoms: C_9  and  C_13
REMARK    8  A    between atoms: C_13  and  C_15
REMARK    9  A    between atoms: C_14  and  C_16
REMARK   10  A    between atoms: C_18  and  C_20
REMARK   11  A    between atoms: C_19  and  C_21
REMARK                            x       y       z     vdW  Elec       q    Type
REMARK                         _______ _______ _______ _____ _____    ______ ____
ROOT
ATOM      5  N   UNL     1      -0.544   4.539  24.969  0.00  0.00    -0.316 NA
ATOM      8  C   UNL     1      -3.410   4.432  25.562  0.00  0.00    +0.004 C 
ATOM      9  C   UNL     1      -2.546   3.149  25.500  0.00  0.00    +0.012 C 
ATOM     10  C   UNL     1      -2.790   5.555  24.717  0.00  0.00    +0.019 C 
ATOM     11  C   UNL     1      -1.086   3.499  25.845  0.00  0.00    +0.085 C 
ATOM     12  C   UNL     1      -1.320   5.774  25.072  0.00  0.00    +0.081 C 
ATOM     34  H   UNL     1      -0.554   4.212  24.003  0.00  0.00    +0.122 HD
ENDROOT
BRANCH   9  13
ATOM     13  C   UNL     1      -2.626   2.412  24.157  0.00  0.00    +0.064 C 
BRANCH  13  15
ATOM      2  O   UNL     1       0.375   0.441  24.427  0.00  0.00    -0.356 OA
ATOM      7  N   UNL     1      -0.613   1.257  24.965  0.00  0.00    -0.083 NA
ATOM     15  C   UNL     1      -1.425   1.538  23.941  0.00  0.00    +0.084 A 
ATOM     17  C   UNL     1      -1.004   0.932  22.745  0.00  0.00    +0.074 A 
ATOM     18  C   UNL     1       0.131   0.255  23.104  0.00  0.00    +0.175 A 
BRANCH  18  20
ATOM     20  C   UNL     1       1.085  -0.589  22.376  0.00  0.00    +0.306 C 
BRANCH  20   3
ATOM      3  O   UNL     1       2.235   0.173  21.997  0.00  0.00    -0.484 OA
BRANCH   3  26
ATOM     26  C   UNL     1       3.373  -0.039  22.724  0.00  0.00    +0.121 A 
ATOM     28  C   UNL     1       4.308   0.984  22.869  0.00  0.00    +0.045 A 
ATOM     29  C   UNL     1       3.599  -1.280  23.319  0.00  0.00    +0.045 A 
ATOM     30  C   UNL     1       5.471   0.767  23.609  0.00  0.00    +0.004 A 
ATOM     31  C   UNL     1       4.760  -1.497  24.060  0.00  0.00    +0.004 A 
ATOM     32  C   UNL     1       5.697  -0.474  24.204  0.00  0.00    +0.000 A 
ENDBRANCH   3  26
ENDBRANCH  20   3
ENDBRANCH  18  20
ENDBRANCH  13  15
ENDBRANCH   9  13
BRANCH   8  14
ATOM     14  C   UNL     1      -4.869   4.202  25.173  0.00  0.00    +0.099 C 
BRANCH  14  16
ATOM      1  O   UNL     1      -5.796   2.645  26.775  0.00  0.00    -0.276 OA
ATOM      6  N   UNL     1      -5.313   1.913  24.623  0.00  0.00    -0.311 N 
ATOM     16  C   UNL     1      -5.380   2.856  25.640  0.00  0.00    +0.214 C 
ATOM     35  H   UNL     1      -4.945   2.182  23.716  0.00  0.00    +0.149 HD
BRANCH   6  19
ATOM     19  C   UNL     1      -5.734   0.541  24.790  0.00  0.00    +0.139 C 
BRANCH  19  21
ATOM     21  C   UNL     1      -4.568  -0.404  24.836  0.00  0.00    -0.030 A 
ATOM     22  C   UNL     1      -3.733  -0.427  25.953  0.00  0.00    +0.009 A 
ATOM     23  C   UNL     1      -4.321  -1.260  23.763  0.00  0.00    +0.009 A 
ATOM     24  C   UNL     1      -2.650  -1.305  25.996  0.00  0.00    +0.046 A 
ATOM     25  C   UNL     1      -3.239  -2.137  23.805  0.00  0.00    +0.046 A 
ATOM     27  C   UNL     1      -2.404  -2.161  24.922  0.00  0.00    +0.120 A 
BRANCH  27   4
ATOM      4  O   UNL     1      -1.347  -3.018  24.965  0.00  0.00    -0.495 OA
ATOM     33  C   UNL     1      -0.108  -2.497  25.445  0.00  0.00    +0.277 C 
ENDBRANCH  27   4
ENDBRANCH  19  21
ENDBRANCH   6  19
ENDBRANCH  14  16
ENDBRANCH   8  14
TORSDOF 10
ENDMDL
MODEL 2
REMARK VINA RESULT:      -2.8      1.854      7.154
REMARK  Name = 26743171
REMARK  11 active torsions:
REMARK  status: ('A' for Active; 'I' for Inactive)
REMARK    1  A    between atoms: O_3  and  C_20
REMARK    2  A    between atoms: O_3  and  C_26
REMARK    3  A    between atoms: O_4  and  C_27
REMARK    4  A    between atoms: O_4  and  C_33
REMARK    5  A    between atoms: N_6  and  C_19
REMARK    6  A    between atoms: C_8  and  C_14
REMARK    7  A    between atoms: C_9  and  C_13
REMARK    8  A    between atoms: C_13  and  C_15
REMARK    9  A    between atoms: C_14  and  C_16
REMARK   10  A    between atoms: C_18  and  C_20
REMARK   11  A    between atoms: C_19  and  C_21
REMARK                            x       y       z     vdW  Elec       q    Type
REMARK                         _______ _______ _______ _____ _____    ______ ____
ROOT
ATOM      5  N   UNL     1      -3.480  -3.461  23.886  0.00  0.00    -0.316 NA
ATOM      8  C   UNL     1      -1.967  -1.323  25.195  0.00  0.00    +0.004 C 
ATOM      9  C   UNL     1      -3.514  -1.349  25.211  0.00  0.00    +0.012 C 
ATOM     10  C   UNL     1      -1.415  -2.095  23.987  0.00  0.00    +0.019 C 
ATOM     11  C   UNL     1      -4.003  -2.804  25.085  0.00  0.00    +0.085 C 
ATOM     12  C   UNL     1      -2.018  -3.497  23.898  0.00  0.00    +0.081 C 
ATOM     34  H   UNL     1      -3.800  -2.964  23.055  0.00  0.00    +0.122 HD
ENDROOT
BRANCH   9  13
ATOM     13  C   UNL     1      -4.160  -0.463  24.137  0.00  0.00    +0.064 C 
BRANCH  13  15
ATOM      2  O   UNL     1      -5.650   2.253  25.971  0.00  0.00    -0.356 OA
ATOM      7  N   UNL     1      -5.489   0.901  25.689  0.00  0.00    -0.083 NA
ATOM     15  C   UNL     1      -4.587   0.859  24.704  0.00  0.00    +0.084 A 
ATOM     17  C   UNL     1      -4.149   2.141  24.327  0.00  0.00    +0.074 A 
ATOM     18  C   UNL     1      -4.847   2.980  25.153  0.00  0.00    +0.175 A 
BRANCH  18  20
ATOM     20  C   UNL     1      -4.893   4.438  25.319  0.00  0.00    +0.306 C 
BRANCH  20   3
ATOM      3  O   UNL     1      -3.872   4.867  26.223  0.00  0.00    -0.484 OA
BRANCH   3  26
ATOM     26  C   UNL     1      -2.591   4.505  25.912  0.00  0.00    +0.121 A 
ATOM     28  C   UNL     1      -1.864   5.246  24.981  0.00  0.00    +0.045 A 
ATOM     29  C   UNL     1      -2.012   3.395  26.525  0.00  0.00    +0.045 A 
ATOM     30  C   UNL     1      -0.557   4.876  24.662  0.00  0.00    +0.004 A 
ATOM     31  C   UNL     1      -0.705   3.025  26.208  0.00  0.00    +0.004 A 
ATOM     32  C   UNL     1       0.022   3.765  25.276  0.00  0.00    +0.000 A 
ENDBRANCH   3  26
ENDBRANCH  20   3
ENDBRANCH  18  20
ENDBRANCH  13  15
ENDBRANCH   9  13
BRANCH   8  14
ATOM     14  C   UNL     1      -1.381   0.087  25.253  0.00  0.00    +0.099 C 
BRANCH  14  16
ATOM      1  O   UNL     1      -1.234   1.268  23.147  0.00  0.00    -0.276 OA
ATOM      6  N   UNL     1       0.502  -0.138  23.790  0.00  0.00    -0.311 N 
ATOM     16  C   UNL     1      -0.727   0.488  23.948  0.00  0.00    +0.214 C 
ATOM     35  H   UNL     1       0.834  -0.775  24.507  0.00  0.00    +0.149 HD
BRANCH   6  19
ATOM     19  C   UNL     1       1.346   0.060  22.634  0.00  0.00    +0.139 C 
BRANCH  19  21
ATOM     21  C   UNL     1       2.804  -0.035  22.979  0.00  0.00    -0.030 A 
ATOM     22  C   UNL     1       3.317  -1.214  23.519  0.00  0.00    +0.009 A 
ATOM     23  C   UNL     1       3.646   1.054  22.758  0.00  0.00    +0.009 A 
ATOM     24  C   UNL     1       4.671  -1.304  23.840  0.00  0.00    +0.046 A 
ATOM     25  C   UNL     1       5.000   0.966  23.078  0.00  0.00    +0.046 A 
ATOM     27  C   UNL     1       5.513  -0.213  23.618  0.00  0.00    +0.120 A 
BRANCH  27   4
ATOM      4  O   UNL     1       6.835  -0.301  23.931  0.00  0.00    -0.495 OA
ATOM     33  C   UNL     1       7.738  -0.576  22.860  0.00  0.00    +0.277 C 
ENDBRANCH  27   4
ENDBRANCH  19  21
ENDBRANCH   6  19
ENDBRANCH  14  16
ENDBRANCH   8  14
TORSDOF 10
ENDMDL
MODEL 3
REMARK VINA RESULT:      -0.6      1.287      1.994
REMARK  Name = 26743171
REMARK  11 active torsions:
REMARK  status: ('A' for Active; 'I' for Inactive)
REMARK    1  A    between atoms: O_3  and  C_20
REMARK    2  A    between atoms: O_3  and  C_26
REMARK    3  A    between atoms: O_4  and  C_27
REMARK    4  A    between atoms: O_4  and  C_33
REMARK    5  A    between atoms: N_6  and  C_19
REMARK    6  A    between atoms: C_8  and  C_14
REMARK    7  A    between atoms: C_9  and  C_13
REMARK    8  A    between atoms: C_13  and  C_15
REMARK    9  A    between atoms: C_14  and  C_16
REMARK   10  A    between atoms: C_18  and  C_20
REMARK   11  A    between atoms: C_19  and  C_21
REMARK                            x       y       z     vdW  Elec       q    Type
REMARK                         _______ _______ _______ _____ _____    ______ ____
ROOT
ATOM      5  N   UNL     1       0.134   3.487  24.194  0.00  0.00    -0.316 NA
ATOM      8  C   UNL     1      -1.792   4.505  26.151  0.00  0.00    +0.004 C 
ATOM      9  C   UNL     1      -1.118   3.122  26.319  0.00  0.00    +0.012 C 
ATOM     10  C   UNL     1      -1.826   4.925  24.673  0.00  0.00    +0.019 C 
ATOM     11  C   UNL     1       0.248   3.129  25.609  0.00  0.00    +0.085 C 
ATOM     12  C   UNL     1      -0.443   4.821  24.031  0.00  0.00    +0.081 C 
ATOM     34  H   UNL     1      -0.451   2.804  23.713  0.00  0.00    +0.122 HD
ENDROOT
BRANCH   9  13
ATOM     13  C   UNL     1      -1.979   1.949  25.833  0.00  0.00    +0.064 C 
BRANCH  13  15
ATOM      2  O   UNL     1      -0.156  -0.985  24.819  0.00  0.00    -0.356 OA
ATOM      7  N   UNL     1      -0.955  -0.281  25.712  0.00  0.00    -0.083 NA
ATOM     15  C   UNL     1      -1.147   0.911  25.139  0.00  0.00    +0.084 A 
ATOM     17  C   UNL     1      -0.500   1.015  23.895  0.00  0.00    +0.074 A 
ATOM     18  C   UNL     1       0.108  -0.203  23.741  0.00  0.00    +0.175 A 
BRANCH  18  20
ATOM     20  C   UNL     1       0.945  -0.796  22.691  0.00  0.00    +0.306 C 
BRANCH  20   3
ATOM      3  O   UNL     1       1.967   0.122  22.294  0.00  0.00    -0.484 OA
BRANCH   3  26
ATOM     26  C   UNL     1       3.197  -0.053  22.863  0.00  0.00    +0.121 A 
ATOM     28  C   UNL     1       3.541  -1.286  23.415  0.00  0.00    +0.045 A 
ATOM     29  C   UNL     1       4.109   1.003  22.891  0.00  0.00    +0.045 A 
ATOM     30  C   UNL     1       4.797  -1.464  23.997  0.00  0.00    +0.004 A 
ATOM     31  C   UNL     1       5.364   0.825  23.471  0.00  0.00    +0.004 A 
ATOM     32  C   UNL     1       5.708  -0.408  24.025  0.00  0.00    +0.000 A 
ENDBRANCH   3  26
ENDBRANCH  20   3
ENDBRANCH  18  20
ENDBRANCH  13  15
ENDBRANCH   9  13
BRANCH   8  14
ATOM     14  C   UNL     1      -3.186   4.582  26.770  0.00  0.00    +0.099 C 
BRANCH  14  16
ATOM      1  O   UNL     1      -5.202   3.271  26.511  0.00  0.00    -0.276 OA
ATOM      6  N   UNL     1      -3.842   3.648  24.664  0.00  0.00    -0.311 N 
ATOM     16  C   UNL     1      -4.200   3.763  26.001  0.00  0.00    +0.214 C 
ATOM     35  H   UNL     1      -2.987   4.086  24.336  0.00  0.00    +0.149 HD
BRANCH   6  19
ATOM     19  C   UNL     1      -4.629   2.918  23.697  0.00  0.00    +0.139 C 
BRANCH  19  21
ATOM     21  C   UNL     1      -4.405   1.437  23.792  0.00  0.00    -0.030 A 
ATOM     22  C   UNL     1      -3.637   0.784  22.828  0.00  0.00    +0.009 A 
ATOM     23  C   UNL     1      -4.962   0.714  24.846  0.00  0.00    +0.009 A 
ATOM     24  C   UNL     1      -3.428  -0.593  22.916  0.00  0.00    +0.046 A 
ATOM     25  C   UNL     1      -4.754  -0.662  24.935  0.00  0.00    +0.046 A 
ATOM     27  C   UNL     1      -3.986  -1.315  23.971  0.00  0.00    +0.120 A 
BRANCH  27   4
ATOM      4  O   UNL     1      -3.782  -2.658  24.058  0.00  0.00    -0.495 OA
ATOM     33  C   UNL     1      -3.197  -3.149  25.264  0.00  0.00    +0.277 C 
ENDBRANCH  27   4
ENDBRANCH  19  21
ENDBRANCH   6  19
ENDBRANCH  14  16
ENDBRANCH   8  14
TORSDOF 10
ENDMDL
MODEL 4
REMARK VINA RESULT:      -0.4      1.720      6.251
REMARK  Name = 26743171
REMARK  11 active torsions:
REMARK  status: ('A' for Active; 'I' for Inactive)
REMARK    1  A    between atoms: O_3  and  C_20
REMARK    2  A    between atoms: O_3  and  C_26
REMARK    3  A    between atoms: O_4  and  C_27
REMARK    4  A    between atoms: O_4  and  C_33
REMARK    5  A    between atoms: N_6  and  C_19
REMARK    6  A    between atoms: C_8  and  C_14
REMARK    7  A    between atoms: C_9  and  C_13
REMARK    8  A    between atoms: C_13  and  C_15
REMARK    9  A    between atoms: C_14  and  C_16
REMARK   10  A    between atoms: C_18  and  C_20
REMARK   11  A    between atoms: C_19  and  C_21
REMARK                            x       y       z     vdW  Elec       q    Type
REMARK                         _______ _______ _______ _____ _____    ______ ____
ROOT
ATOM      5  N   UNL     1      -3.139   4.406  26.628  0.00  0.00    -0.316 NA
ATOM      8  C   UNL     1      -0.853   3.860  24.879  0.00  0.00    +0.004 C 
ATOM      9  C   UNL     1      -1.874   4.977  24.556  0.00  0.00    +0.012 C 
ATOM     10  C   UNL     1      -1.488   2.774  25.762  0.00  0.00    +0.019 C 
ATOM     11  C   UNL     1      -2.510   5.485  25.864  0.00  0.00    +0.085 C 
ATOM     12  C   UNL     1      -2.164   3.378  26.992  0.00  0.00    +0.081 C 
ATOM     34  H   UNL     1      -3.885   3.984  26.076  0.00  0.00    +0.122 HD
ENDROOT
BRANCH   9  13
ATOM     13  C   UNL     1      -2.956   4.557  23.552  0.00  0.00    +0.064 C 
BRANCH  13  15
ATOM      2  O   UNL     1      -5.463   2.562  25.194  0.00  0.00    -0.356 OA
ATOM      7  N   UNL     1      -4.895   3.782  24.848  0.00  0.00    -0.083 NA
ATOM     15  C   UNL     1      -3.825   3.468  24.109  0.00  0.00    +0.084 A 
ATOM     17  C   UNL     1      -3.671   2.079  23.958  0.00  0.00    +0.074 A 
ATOM     18  C   UNL     1      -4.725   1.555  24.659  0.00  0.00    +0.175 A 
BRANCH  18  20
ATOM     20  C   UNL     1      -5.188   0.189  24.928  0.00  0.00    +0.306 C 
BRANCH  20   3
ATOM      3  O   UNL     1      -4.369  -0.425  25.927  0.00  0.00    -0.484 OA
BRANCH   3  26
ATOM     26  C   UNL     1      -3.288  -1.131  25.479  0.00  0.00    +0.121 A 
ATOM     28  C   UNL     1      -2.001  -0.741  25.845  0.00  0.00    +0.045 A 
ATOM     29  C   UNL     1      -3.473  -2.241  24.655  0.00  0.00    +0.045 A 
ATOM     30  C   UNL     1      -0.897  -1.461  25.387  0.00  0.00    +0.004 A 
ATOM     31  C   UNL     1      -2.371  -2.962  24.198  0.00  0.00    +0.004 A 
ATOM     32  C   UNL     1      -1.082  -2.571  24.563  0.00  0.00    +0.000 A 
ENDBRANCH   3  26
ENDBRANCH  20   3
ENDBRANCH  18  20
ENDBRANCH  13  15
ENDBRANCH   9  13
BRANCH   8  14
ATOM     14  C   UNL     1      -0.211   3.244  23.638  0.00  0.00    +0.099 C 
BRANCH  14  16
ATOM      1  O   UNL     1       0.781   1.545  25.045  0.00  0.00    -0.276 OA
ATOM      6  N   UNL     1       0.530   1.138  22.771  0.00  0.00    -0.311 N 
ATOM     16  C   UNL     1       0.419   1.899  23.927  0.00  0.00    +0.214 C 
ATOM     35  H   UNL     1       0.208   1.522  21.887  0.00  0.00    +0.149 HD
BRANCH   6  19
ATOM     19  C   UNL     1       1.097  -0.190  22.751  0.00  0.00    +0.139 C 
BRANCH  19  21
ATOM     21  C   UNL     1       2.573  -0.175  23.026  0.00  0.00    -0.030 A 
ATOM     22  C   UNL     1       3.178  -1.270  23.643  0.00  0.00    +0.009 A 
ATOM     23  C   UNL     1       3.339   0.931  22.661  0.00  0.00    +0.009 A 
ATOM     24  C   UNL     1       4.550  -1.257  23.899  0.00  0.00    +0.046 A 
ATOM     25  C   UNL     1       4.710   0.945  22.916  0.00  0.00    +0.046 A 
ATOM     27  C   UNL     1       5.316  -0.149  23.534  0.00  0.00    +0.120 A 
BRANCH  27   4
ATOM      4  O   UNL     1       6.654  -0.136  23.782  0.00  0.00    -0.495 OA
ATOM     33  C   UNL     1       7.507  -0.673  22.770  0.00  0.00    +0.277 C 
ENDBRANCH  27   4
ENDBRANCH  19  21
ENDBRANCH   6  19
ENDBRANCH  14  16
ENDBRANCH   8  14
TORSDOF 10
ENDMDL
