MODEL 1
REMARK VINA RESULT:       9.9      0.000      0.000
REMARK  Name = 45783503
REMARK  4 active torsions:
REMARK  status: ('A' for Active; 'I' for Inactive)
REMARK    1  A    between atoms: N_4  and  C_10
REMARK    2  A    between atoms: C_11  and  C_19
REMARK    3  A    between atoms: C_20  and  C_22
REMARK    4  A    between atoms: C_21  and  C_23
REMARK                            x       y       z     vdW  Elec       q    Type
REMARK                         _______ _______ _______ _____ _____    ______ ____
ROOT
ATOM      1  O   UNL     1      -0.991  -0.108  22.612  0.00  0.00    -0.336 OA
ATOM      6  N   UNL     1       0.374  -0.742  24.271  0.00  0.00    -0.190 NA
ATOM      7  N   UNL     1       0.311   0.160  22.170  0.00  0.00    -0.056 NA
ATOM     19  C   UNL     1      -0.864  -0.637  23.857  0.00  0.00    +0.245 A 
ATOM     21  C   UNL     1       1.058  -0.240  23.202  0.00  0.00    +0.204 A 
ENDROOT
BRANCH  21  23
ATOM      3  O   UNL     1       9.416  -0.027  23.437  0.00  0.00    -0.377 OA
ATOM      8  N   UNL     1       6.614   0.004  23.215  0.00  0.00    -0.311 N 
ATOM      9  N   UNL     1       4.625  -1.232  23.553  0.00  0.00    -0.240 NA
ATOM     23  C   UNL     1       2.490  -0.154  23.199  0.00  0.00    +0.041 A 
ATOM     24  C   UNL     1       3.135   1.029  22.857  0.00  0.00    +0.016 A 
ATOM     25  C   UNL     1       7.299   0.962  24.091  0.00  0.00    +0.134 C 
ATOM     26  C   UNL     1       7.369  -1.220  22.916  0.00  0.00    +0.134 C 
ATOM     27  C   UNL     1       5.217  -0.065  23.215  0.00  0.00    +0.121 A 
ATOM     28  C   UNL     1       3.273  -1.247  23.537  0.00  0.00    +0.124 A 
ATOM     29  C   UNL     1       8.714   1.207  23.578  0.00  0.00    +0.178 C 
ATOM     30  C   UNL     1       8.780  -0.857  22.466  0.00  0.00    +0.178 C 
ATOM     31  C   UNL     1       4.525   1.083  22.863  0.00  0.00    +0.044 A 
ENDBRANCH  21  23
BRANCH  19  11
ATOM      4  N   UNL     1      -3.347  -0.750  23.740  0.00  0.00    -0.288 NA
ATOM     11  C   UNL     1      -2.149  -1.018  24.562  0.00  0.00    +0.146 C 
ATOM     12  C   UNL     1      -4.353  -1.732  24.145  0.00  0.00    +0.085 C 
ATOM     13  C   UNL     1      -2.225  -2.522  24.884  0.00  0.00    +0.030 C 
ATOM     16  C   UNL     1      -3.528  -2.997  24.257  0.00  0.00    +0.017 C 
BRANCH   4  10
ATOM      2  O   UNL     1      -2.138   5.122  25.105  0.00  0.00    -0.276 OA
ATOM      5  N   UNL     1      -3.566   3.297  24.939  0.00  0.00    -0.302 N 
ATOM     10  C   UNL     1      -3.836   0.621  23.867  0.00  0.00    +0.060 C 
ATOM     14  C   UNL     1      -4.151   0.934  25.336  0.00  0.00    +0.038 C 
ATOM     15  C   UNL     1      -2.793   1.604  23.321  0.00  0.00    +0.038 C 
ATOM     17  C   UNL     1      -4.574   2.392  25.507  0.00  0.00    +0.109 C 
ATOM     18  C   UNL     1      -3.242   3.049  23.533  0.00  0.00    +0.109 C 
ATOM     20  C   UNL     1      -2.956   4.353  25.616  0.00  0.00    +0.212 C 
ATOM     22  C   UNL     1      -3.340   4.540  27.062  0.00  0.00    +0.109 C 
ENDBRANCH   4  10
ENDBRANCH  19  11
TORSDOF 3
ENDMDL
MODEL 2
REMARK VINA RESULT:      10.5      2.153      4.635
REMARK  Name = 45783503
REMARK  4 active torsions:
REMARK  status: ('A' for Active; 'I' for Inactive)
REMARK    1  A    between atoms: N_4  and  C_10
REMARK    2  A    between atoms: C_11  and  C_19
REMARK    3  A    between atoms: C_20  and  C_22
REMARK    4  A    between atoms: C_21  and  C_23
REMARK                            x       y       z     vdW  Elec       q    Type
REMARK                         _______ _______ _______ _____ _____    ______ ____
ROOT
ATOM      1  O   UNL     1      -2.809   3.447  23.762  0.00  0.00    -0.336 OA
ATOM      6  N   UNL     1      -2.159   1.313  23.967  0.00  0.00    -0.190 NA
ATOM      7  N   UNL     1      -1.426   3.438  23.542  0.00  0.00    -0.056 NA
ATOM     19  C   UNL     1      -3.159   2.157  24.005  0.00  0.00    +0.245 A 
ATOM     21  C   UNL     1      -1.116   2.146  23.680  0.00  0.00    +0.204 A 
ENDROOT
BRANCH  21  23
ATOM      3  O   UNL     1       6.824  -0.366  22.909  0.00  0.00    -0.377 OA
ATOM      8  N   UNL     1       4.109   0.308  23.183  0.00  0.00    -0.311 N 
ATOM      9  N   UNL     1       2.581   1.917  24.006  0.00  0.00    -0.240 NA
ATOM     23  C   UNL     1       0.224   1.654  23.538  0.00  0.00    +0.041 A 
ATOM     24  C   UNL     1       0.486   0.485  22.832  0.00  0.00    +0.016 A 
ATOM     25  C   UNL     1       4.704   0.157  21.850  0.00  0.00    +0.134 C 
ATOM     26  C   UNL     1       5.061   0.605  24.262  0.00  0.00    +0.134 C 
ATOM     27  C   UNL     1       2.798   0.778  23.311  0.00  0.00    +0.121 A 
ATOM     28  C   UNL     1       1.296   2.327  24.102  0.00  0.00    +0.124 A 
ATOM     29  C   UNL     1       5.889  -0.800  21.922  0.00  0.00    +0.178 C 
ATOM     30  C   UNL     1       6.226  -0.377  24.204  0.00  0.00    +0.178 C 
ATOM     31  C   UNL     1       1.796   0.033  22.711  0.00  0.00    +0.044 A 
ENDBRANCH  21  23
BRANCH  19  11
ATOM      4  N   UNL     1      -4.855   1.247  25.583  0.00  0.00    -0.288 NA
ATOM     11  C   UNL     1      -4.626   1.896  24.276  0.00  0.00    +0.146 C 
ATOM     12  C   UNL     1      -6.180   1.678  26.031  0.00  0.00    +0.085 C 
ATOM     13  C   UNL     1      -5.459   3.190  24.331  0.00  0.00    +0.030 C 
ATOM     16  C   UNL     1      -6.167   3.150  25.678  0.00  0.00    +0.017 C 
BRANCH   4  10
ATOM      2  O   UNL     1      -1.215  -3.690  25.157  0.00  0.00    -0.276 OA
ATOM      5  N   UNL     1      -3.237  -2.586  24.847  0.00  0.00    -0.302 N 
ATOM     10  C   UNL     1      -4.738  -0.208  25.532  0.00  0.00    +0.060 C 
ATOM     14  C   UNL     1      -4.588  -0.672  24.077  0.00  0.00    +0.038 C 
ATOM     15  C   UNL     1      -3.539  -0.670  26.368  0.00  0.00    +0.038 C 
ATOM     17  C   UNL     1      -4.369  -2.183  24.004  0.00  0.00    +0.109 C 
ATOM     18  C   UNL     1      -3.340  -2.180  26.250  0.00  0.00    +0.109 C 
ATOM     20  C   UNL     1      -2.138  -3.332  24.420  0.00  0.00    +0.212 C 
ATOM     22  C   UNL     1      -2.103  -3.709  22.960  0.00  0.00    +0.109 C 
ENDBRANCH   4  10
ENDBRANCH  19  11
TORSDOF 3
ENDMDL
MODEL 3
REMARK VINA RESULT:      11.7      1.607      4.039
REMARK  Name = 45783503
REMARK  4 active torsions:
REMARK  status: ('A' for Active; 'I' for Inactive)
REMARK    1  A    between atoms: N_4  and  C_10
REMARK    2  A    between atoms: C_11  and  C_19
REMARK    3  A    between atoms: C_20  and  C_22
REMARK    4  A    between atoms: C_21  and  C_23
REMARK                            x       y       z     vdW  Elec       q    Type
REMARK                         _______ _______ _______ _____ _____    ______ ____
ROOT
ATOM      1  O   UNL     1      -0.616   0.285  23.336  0.00  0.00    -0.336 OA
ATOM      6  N   UNL     1       0.990   1.775  23.804  0.00  0.00    -0.190 NA
ATOM      7  N   UNL     1       0.602  -0.374  23.122  0.00  0.00    -0.056 NA
ATOM     19  C   UNL     1      -0.296   1.544  23.735  0.00  0.00    +0.245 A 
ATOM     21  C   UNL     1       1.500   0.569  23.418  0.00  0.00    +0.204 A 
ENDROOT
BRANCH  21  23
ATOM      3  O   UNL     1       9.774  -0.447  22.738  0.00  0.00    -0.377 OA
ATOM      8  N   UNL     1       6.995  -0.224  23.098  0.00  0.00    -0.311 N 
ATOM      9  N   UNL     1       5.134   1.233  22.988  0.00  0.00    -0.240 NA
ATOM     23  C   UNL     1       2.914   0.340  23.339  0.00  0.00    +0.041 A 
ATOM     24  C   UNL     1       3.446  -0.930  23.528  0.00  0.00    +0.016 A 
ATOM     25  C   UNL     1       7.541  -1.147  22.097  0.00  0.00    +0.134 C 
ATOM     26  C   UNL     1       7.886   0.882  23.480  0.00  0.00    +0.134 C 
ATOM     27  C   UNL     1       5.614  -0.016  23.176  0.00  0.00    +0.121 A 
ATOM     28  C   UNL     1       3.792   1.380  23.074  0.00  0.00    +0.124 A 
ATOM     29  C   UNL     1       8.943  -1.584  22.509  0.00  0.00    +0.178 C 
ATOM     30  C   UNL     1       9.267   0.335  23.819  0.00  0.00    +0.178 C 
ATOM     31  C   UNL     1       4.822  -1.120  23.445  0.00  0.00    +0.044 A 
ENDBRANCH  21  23
BRANCH  19  11
ATOM      4  N   UNL     1      -1.934   2.347  25.428  0.00  0.00    -0.288 NA
ATOM     11  C   UNL     1      -1.457   2.470  24.035  0.00  0.00    +0.146 C 
ATOM     12  C   UNL     1      -2.479   3.656  25.793  0.00  0.00    +0.085 C 
ATOM     13  C   UNL     1      -1.086   3.956  23.879  0.00  0.00    +0.030 C 
ATOM     16  C   UNL     1      -1.447   4.599  25.210  0.00  0.00    +0.017 C 
BRANCH   4  10
ATOM      2  O   UNL     1      -3.357  -3.594  24.738  0.00  0.00    -0.276 OA
ATOM      5  N   UNL     1      -3.921  -1.347  24.916  0.00  0.00    -0.302 N 
ATOM     10  C   UNL     1      -2.911   1.276  25.609  0.00  0.00    +0.060 C 
ATOM     14  C   UNL     1      -3.668   1.027  24.297  0.00  0.00    +0.038 C 
ATOM     15  C   UNL     1      -2.206  -0.005  26.072  0.00  0.00    +0.038 C 
ATOM     17  C   UNL     1      -4.629  -0.153  24.435  0.00  0.00    +0.109 C 
ATOM     18  C   UNL     1      -3.195  -1.165  26.174  0.00  0.00    +0.109 C 
ATOM     20  C   UNL     1      -3.931  -2.596  24.294  0.00  0.00    +0.212 C 
ATOM     22  C   UNL     1      -4.698  -2.701  23.001  0.00  0.00    +0.109 C 
ENDBRANCH   4  10
ENDBRANCH  19  11
TORSDOF 3
ENDMDL
