MODEL 1
REMARK VINA RESULT:       7.5      0.000      0.000
REMARK  Name = 51136818
REMARK  7 active torsions:
REMARK  status: ('A' for Active; 'I' for Inactive)
REMARK    1  A    between atoms: N_3  and  C_13
REMARK    2  A    between atoms: C_9  and  C_15
REMARK    3  A    between atoms: C_13  and  C_14
REMARK    4  A    between atoms: C_14  and  C_16
REMARK    5  A    between atoms: C_14  and  C_17
REMARK    6  A    between atoms: C_22  and  C_24
REMARK    7  A    between atoms: C_26  and  C_29
REMARK                            x       y       z     vdW  Elec       q    Type
REMARK                         _______ _______ _______ _____ _____    ______ ____
ROOT
ATOM      2  O   UNL     1       5.348  -0.245  21.805  0.00  0.00    -0.276 OA
ATOM      4  N   UNL     1       0.709  -0.516  23.277  0.00  0.00    -0.312 N 
ATOM      6  N   UNL     1       3.294   0.427  22.654  0.00  0.00    -0.299 N 
ATOM      8  N   UNL     1      -0.715  -2.392  23.517  0.00  0.00    -0.240 NA
ATOM     18  C   UNL     1       1.513  -1.224  22.268  0.00  0.00    +0.125 C 
ATOM     19  C   UNL     1       1.462   0.239  24.287  0.00  0.00    +0.125 C 
ATOM     20  C   UNL     1       2.521  -0.270  21.630  0.00  0.00    +0.126 C 
ATOM     21  C   UNL     1       2.475   1.167  23.616  0.00  0.00    +0.126 C 
ATOM     23  C   UNL     1      -0.540  -1.054  23.605  0.00  0.00    +0.122 A 
ATOM     24  C   UNL     1      -2.776  -0.688  24.332  0.00  0.00    +0.027 A 
ATOM     25  C   UNL     1      -1.529  -0.168  24.005  0.00  0.00    +0.055 A 
ATOM     26  C   UNL     1       4.686   0.371  22.644  0.00  0.00    +0.213 C 
ATOM     27  C   UNL     1      -2.994  -2.059  24.253  0.00  0.00    +0.031 A 
ATOM     28  C   UNL     1      -1.941  -2.860  23.843  0.00  0.00    +0.113 A 
ATOM     29  C   UNL     1       5.398   1.120  23.741  0.00  0.00    +0.109 C 
ENDROOT
BRANCH  24  22
ATOM      1  O   UNL     1      -5.771   0.985  25.169  0.00  0.00    -0.336 OA
ATOM      5  N   UNL     1      -3.577   1.419  25.282  0.00  0.00    -0.190 NA
ATOM      7  N   UNL     1      -5.124  -0.145  24.652  0.00  0.00    -0.056 NA
ATOM     15  C   UNL     1      -4.788   1.856  25.516  0.00  0.00    +0.245 A 
ATOM     22  C   UNL     1      -3.833   0.187  24.753  0.00  0.00    +0.202 A 
BRANCH  15   9
ATOM      3  N   UNL     1      -4.491   4.326  25.558  0.00  0.00    -0.291 NA
ATOM      9  C   UNL     1      -5.235   3.176  26.109  0.00  0.00    +0.146 C 
ATOM     10  C   UNL     1      -6.713   3.489  25.816  0.00  0.00    +0.030 C 
ATOM     11  C   UNL     1      -5.400   5.472  25.618  0.00  0.00    +0.085 C 
ATOM     12  C   UNL     1      -6.707   4.861  25.156  0.00  0.00    +0.017 C 
BRANCH   3  13
ATOM     13  C   UNL     1      -3.236   4.585  26.252  0.00  0.00    +0.088 C 
BRANCH  13  14
ATOM     14  C   UNL     1      -2.009   4.219  25.401  0.00  0.00    -0.003 C 
ATOM     16  C   UNL     1      -1.249   5.491  25.015  0.00  0.00    +0.008 C 
ATOM     17  C   UNL     1      -1.063   3.253  26.119  0.00  0.00    +0.008 C 
ENDBRANCH  13  14
ENDBRANCH   3  13
ENDBRANCH  15   9
ENDBRANCH  24  22
TORSDOF 4
ENDMDL
