MODEL 1
REMARK VINA RESULT:      -2.2      0.000      0.000
REMARK  Name = 45361473
REMARK  9 active torsions:
REMARK  status: ('A' for Active; 'I' for Inactive)
REMARK    1  A    between atoms: O_1  and  C_9
REMARK    2  A    between atoms: N_4  and  C_13
REMARK    3  A    between atoms: N_5  and  C_25
REMARK    4  A    between atoms: C_6  and  C_16
REMARK    5  A    between atoms: C_8  and  C_18
REMARK    6  A    between atoms: C_12  and  C_17
REMARK    7  A    between atoms: C_17  and  C_19
REMARK    8  A    between atoms: C_17  and  C_21
REMARK    9  A    between atoms: C_20  and  C_22
REMARK                            x       y       z     vdW  Elec       q    Type
REMARK                         _______ _______ _______ _____ _____    ______ ____
ROOT
ATOM      6  C   UNL     1      -2.070  -0.965  25.119  0.00  0.00    -0.027 C 
ATOM      7  C   UNL     1      -2.090   0.181  24.054  0.00  0.00    +0.028 C 
ATOM      8  C   UNL     1      -0.658   0.800  23.873  0.00  0.00    +0.012 C 
ATOM      9  C   UNL     1      -3.227   1.201  24.345  0.00  0.00    +0.122 C 
ATOM     10  C   UNL     1      -3.466  -1.628  25.191  0.00  0.00    +0.007 C 
ATOM     11  C   UNL     1      -1.058  -2.048  24.676  0.00  0.00    +0.009 C 
ATOM     12  C   UNL     1      -4.606   0.521  24.519  0.00  0.00    +0.029 C 
ATOM     13  C   UNL     1       0.366  -0.309  23.501  0.00  0.00    +0.076 C 
ATOM     14  C   UNL     1      -4.577  -0.639  25.515  0.00  0.00    +0.007 C 
ATOM     15  C   UNL     1       0.345  -1.500  24.459  0.00  0.00    +0.023 C 
ATOM     16  C   UNL     1      -1.687  -0.457  26.532  0.00  0.00    +0.011 C 
ATOM     18  C   UNL     1      -0.599   1.917  22.817  0.00  0.00    +0.010 C 
ENDROOT
BRANCH  13   4
ATOM      3  O   UNL     1       2.160  -0.306  21.213  0.00  0.00    -0.276 OA
ATOM      4  N   UNL     1       1.717   0.208  23.440  0.00  0.00    -0.312 N 
ATOM     22  C   UNL     1       2.490   0.160  22.297  0.00  0.00    +0.216 C 
ATOM     31  H   UNL     1       2.127   0.568  24.296  0.00  0.00    +0.149 HD
BRANCH  22  20
ATOM     20  C   UNL     1       3.850   0.751  22.461  0.00  0.00    +0.075 C 
ATOM     23  C   UNL     1       5.030  -0.163  22.621  0.00  0.00    +0.013 C 
ATOM     24  C   UNL     1       4.540   0.643  23.788  0.00  0.00    +0.013 C 
ENDBRANCH  22  20
ENDBRANCH  13   4
BRANCH   9   1
ATOM      1  O   UNL     1      -3.353   2.103  23.245  0.00  0.00    -0.391 OA
ATOM     32  H   UNL     1      -4.139   2.656  23.396  0.00  0.00    +0.210 HD
ENDBRANCH   9   1
BRANCH  12  17
ATOM     17  C   UNL     1      -5.687   1.526  24.934  0.00  0.00    +0.077 C 
ATOM     19  C   UNL     1      -6.229   2.252  23.708  0.00  0.00    +0.017 C 
BRANCH  17  21
ATOM      2  O   UNL     1      -5.611   2.665  27.071  0.00  0.00    -0.276 OA
ATOM      5  N   UNL     1      -4.008   3.188  25.478  0.00  0.00    -0.312 N 
ATOM     21  C   UNL     1      -5.119   2.509  25.955  0.00  0.00    +0.216 C 
ATOM     33  H   UNL     1      -3.658   2.980  24.549  0.00  0.00    +0.149 HD
BRANCH   5  25
ATOM     25  C   UNL     1      -3.296   4.172  26.262  0.00  0.00    +0.073 C 
ATOM     26  C   UNL     1      -2.806   5.328  25.383  0.00  0.00    +0.022 C 
ATOM     27  C   UNL     1      -2.136   3.530  27.031  0.00  0.00    +0.022 C 
ATOM     28  C   UNL     1      -1.650   4.920  24.471  0.00  0.00    +0.002 C 
ATOM     29  C   UNL     1      -0.981   3.125  26.116  0.00  0.00    +0.002 C 
ATOM     30  C   UNL     1      -0.504   4.294  25.260  0.00  0.00    +0.000 C 
ENDBRANCH   5  25
ENDBRANCH  17  21
ENDBRANCH  12  17
TORSDOF 6
ENDMDL
