MODEL 1
REMARK VINA RESULT:      -6.1      0.000      0.000
REMARK  Name = 75537064
REMARK  4 active torsions:
REMARK  status: ('A' for Active; 'I' for Inactive)
REMARK    1  A    between atoms: N_3  and  C_12
REMARK    2  A    between atoms: N_4  and  C_13
REMARK    3  A    between atoms: C_12  and  C_14
REMARK    4  A    between atoms: C_13  and  C_15
REMARK                            x       y       z     vdW  Elec       q    Type
REMARK                         _______ _______ _______ _____ _____    ______ ____
ROOT
ATOM      1  O   UNL     1      -1.122 -10.285  15.056  0.00  0.00    -0.252 OA
ATOM      2  N   UNL     1      -2.464 -10.421  13.132  0.00  0.00    -0.278 N 
ATOM      3  N   UNL     1      -3.507  -9.755  10.607  0.00  0.00    -0.295 NA
ATOM      4  N   UNL     1      -3.440 -10.711  15.133  0.00  0.00    -0.279 N 
ATOM      6  C   UNL     1      -3.831 -10.781  12.821  0.00  0.00    +0.109 C 
ATOM      7  C   UNL     1      -4.408  -9.825  11.776  0.00  0.00    +0.109 C 
ATOM      8  C   UNL     1      -4.533 -10.749  14.177  0.00  0.00    +0.133 C 
ATOM      9  C   UNL     1      -1.530 -10.181  12.052  0.00  0.00    +0.125 C 
ATOM     10  C   UNL     1      -2.169  -9.269  11.002  0.00  0.00    +0.104 C 
ATOM     11  C   UNL     1      -2.204 -10.455  14.509  0.00  0.00    +0.305 C 
ENDROOT
BRANCH   3  12
ATOM     12  C   UNL     1      -4.080  -8.890   9.575  0.00  0.00    +0.119 C 
BRANCH  12  14
ATOM     14  C   UNL     1      -5.510  -9.249   9.274  0.00  0.00    -0.033 A 
ATOM     16  C   UNL     1      -5.802 -10.411   8.559  0.00  0.00    +0.005 A 
ATOM     17  C   UNL     1      -6.544  -8.420   9.709  0.00  0.00    +0.005 A 
ATOM     20  C   UNL     1      -7.127 -10.743   8.280  0.00  0.00    +0.000 A 
ATOM     21  C   UNL     1      -7.869  -8.752   9.431  0.00  0.00    +0.000 A 
ATOM     23  C   UNL     1      -8.161  -9.913   8.715  0.00  0.00    +0.000 A 
ENDBRANCH  12  14
ENDBRANCH   3  12
BRANCH   4  13
ATOM     13  C   UNL     1      -3.668 -10.781  16.561  0.00  0.00    +0.146 C 
BRANCH  13  15
ATOM      5  N   UNL     1      -7.117  -9.248  16.271  0.00  0.00    -0.263 NA
ATOM     15  C   UNL     1      -5.052 -10.318  16.931  0.00  0.00    -0.012 A 
ATOM     18  C   UNL     1      -5.552 -10.508  18.215  0.00  0.00    +0.008 A 
ATOM     19  C   UNL     1      -5.867  -9.688  16.004  0.00  0.00    +0.115 A 
ATOM     22  C   UNL     1      -6.833 -10.069  18.528  0.00  0.00    +0.020 A 
ATOM     24  C   UNL     1      -7.569  -9.451  17.530  0.00  0.00    +0.111 A 
ENDBRANCH  13  15
ENDBRANCH   4  13
TORSDOF 4
ENDMDL
MODEL 2
REMARK VINA RESULT:      -3.9     25.125     27.547
REMARK  Name = 75537064
REMARK  4 active torsions:
REMARK  status: ('A' for Active; 'I' for Inactive)
REMARK    1  A    between atoms: N_3  and  C_12
REMARK    2  A    between atoms: N_4  and  C_13
REMARK    3  A    between atoms: C_12  and  C_14
REMARK    4  A    between atoms: C_13  and  C_15
REMARK                            x       y       z     vdW  Elec       q    Type
REMARK                         _______ _______ _______ _____ _____    ______ ____
ROOT
ATOM      1  O   UNL     1      14.795  -7.245  26.023  0.00  0.00    -0.252 OA
ATOM      2  N   UNL     1      15.523  -6.584  28.157  0.00  0.00    -0.278 N 
ATOM      3  N   UNL     1      15.390  -5.585  30.783  0.00  0.00    -0.295 NA
ATOM      4  N   UNL     1      16.752  -5.977  26.378  0.00  0.00    -0.279 N 
ATOM      6  C   UNL     1      16.691  -5.943  28.724  0.00  0.00    +0.109 C 
ATOM      7  C   UNL     1      16.277  -4.934  29.796  0.00  0.00    +0.109 C 
ATOM      8  C   UNL     1      17.397  -5.338  27.512  0.00  0.00    +0.133 C 
ATOM      9  C   UNL     1      14.512  -7.125  29.041  0.00  0.00    +0.125 C 
ATOM     10  C   UNL     1      14.171  -6.107  30.132  0.00  0.00    +0.104 C 
ATOM     11  C   UNL     1      15.591  -6.678  26.761  0.00  0.00    +0.305 C 
ENDROOT
BRANCH   3  12
ATOM     12  C   UNL     1      15.037  -4.645  31.847  0.00  0.00    +0.119 C 
BRANCH  12  14
ATOM     14  C   UNL     1      15.856  -3.383  31.773  0.00  0.00    -0.033 A 
ATOM     16  C   UNL     1      16.612  -2.977  32.873  0.00  0.00    +0.005 A 
ATOM     17  C   UNL     1      15.857  -2.620  30.606  0.00  0.00    +0.005 A 
ATOM     20  C   UNL     1      17.369  -1.808  32.805  0.00  0.00    +0.000 A 
ATOM     21  C   UNL     1      16.616  -1.452  30.537  0.00  0.00    +0.000 A 
ATOM     23  C   UNL     1      17.371  -1.045  31.637  0.00  0.00    +0.000 A 
ENDBRANCH  12  14
ENDBRANCH   3  12
BRANCH   4  13
ATOM     13  C   UNL     1      17.201  -5.763  25.020  0.00  0.00    +0.146 C 
BRANCH  13  15
ATOM      5  N   UNL     1      16.938  -2.000  25.327  0.00  0.00    -0.263 NA
ATOM     15  C   UNL     1      17.169  -4.306  24.642  0.00  0.00    -0.012 A 
ATOM     18  C   UNL     1      17.329  -3.906  23.320  0.00  0.00    +0.008 A 
ATOM     19  C   UNL     1      16.978  -3.323  25.599  0.00  0.00    +0.115 A 
ATOM     22  C   UNL     1      17.294  -2.553  23.000  0.00  0.00    +0.020 A 
ATOM     24  C   UNL     1      17.097  -1.648  24.030  0.00  0.00    +0.111 A 
ENDBRANCH  13  15
ENDBRANCH   4  13
TORSDOF 4
ENDMDL
MODEL 3
REMARK VINA RESULT:      -3.8     24.480     26.141
REMARK  Name = 75537064
REMARK  4 active torsions:
REMARK  status: ('A' for Active; 'I' for Inactive)
REMARK    1  A    between atoms: N_3  and  C_12
REMARK    2  A    between atoms: N_4  and  C_13
REMARK    3  A    between atoms: C_12  and  C_14
REMARK    4  A    between atoms: C_13  and  C_15
REMARK                            x       y       z     vdW  Elec       q    Type
REMARK                         _______ _______ _______ _____ _____    ______ ____
ROOT
ATOM      1  O   UNL     1      14.771  -9.770  25.269  0.00  0.00    -0.252 OA
ATOM      2  N   UNL     1      15.356  -9.932  27.539  0.00  0.00    -0.278 N 
ATOM      3  N   UNL     1      15.076  -9.824  30.336  0.00  0.00    -0.295 NA
ATOM      4  N   UNL     1      16.807  -8.951  26.134  0.00  0.00    -0.279 N 
ATOM      6  C   UNL     1      16.525  -9.667  28.351  0.00  0.00    +0.109 C 
ATOM      7  C   UNL     1      16.117  -9.012  29.671  0.00  0.00    +0.109 C 
ATOM      8  C   UNL     1      17.403  -8.801  27.450  0.00  0.00    +0.133 C 
ATOM      9  C   UNL     1      14.213 -10.593  28.135  0.00  0.00    +0.125 C 
ATOM     10  C   UNL     1      13.878  -9.945  29.481  0.00  0.00    +0.104 C 
ATOM     11  C   UNL     1      15.548  -9.580  26.197  0.00  0.00    +0.305 C 
ENDROOT
BRANCH   3  12
ATOM     12  C   UNL     1      14.724  -9.239  31.629  0.00  0.00    +0.119 C 
BRANCH  12  14
ATOM     14  C   UNL     1      13.878  -8.002  31.473  0.00  0.00    -0.033 A 
ATOM     16  C   UNL     1      14.485  -6.750  31.377  0.00  0.00    +0.005 A 
ATOM     17  C   UNL     1      12.489  -8.110  31.424  0.00  0.00    +0.005 A 
ATOM     20  C   UNL     1      13.701  -5.605  31.233  0.00  0.00    +0.000 A 
ATOM     21  C   UNL     1      11.705  -6.966  31.279  0.00  0.00    +0.000 A 
ATOM     23  C   UNL     1      12.312  -5.713  31.184  0.00  0.00    +0.000 A 
ENDBRANCH  12  14
ENDBRANCH   3  12
BRANCH   4  13
ATOM     13  C   UNL     1      17.405  -8.372  24.951  0.00  0.00    +0.146 C 
BRANCH  13  15
ATOM      5  N   UNL     1      17.076  -4.814  26.201  0.00  0.00    -0.263 NA
ATOM     15  C   UNL     1      17.303  -6.870  24.949  0.00  0.00    -0.012 A 
ATOM     18  C   UNL     1      17.336  -6.151  23.760  0.00  0.00    +0.008 A 
ATOM     19  C   UNL     1      17.173  -6.161  26.132  0.00  0.00    +0.115 A 
ATOM     22  C   UNL     1      17.239  -4.764  23.789  0.00  0.00    +0.020 A 
ATOM     24  C   UNL     1      17.112  -4.149  25.024  0.00  0.00    +0.111 A 
ENDBRANCH  13  15
ENDBRANCH   4  13
TORSDOF 4
ENDMDL
MODEL 4
REMARK VINA RESULT:      -2.3     24.910     27.016
REMARK  Name = 75537064
REMARK  4 active torsions:
REMARK  status: ('A' for Active; 'I' for Inactive)
REMARK    1  A    between atoms: N_3  and  C_12
REMARK    2  A    between atoms: N_4  and  C_13
REMARK    3  A    between atoms: C_12  and  C_14
REMARK    4  A    between atoms: C_13  and  C_15
REMARK                            x       y       z     vdW  Elec       q    Type
REMARK                         _______ _______ _______ _____ _____    ______ ____
ROOT
ATOM      1  O   UNL     1      15.452  -6.754  26.511  0.00  0.00    -0.252 OA
ATOM      2  N   UNL     1      15.908  -8.299  28.222  0.00  0.00    -0.278 N 
ATOM      3  N   UNL     1      15.429 -10.214  30.225  0.00  0.00    -0.295 NA
ATOM      4  N   UNL     1      16.986  -6.329  28.252  0.00  0.00    -0.279 N 
ATOM      6  C   UNL     1      16.844  -8.413  29.321  0.00  0.00    +0.109 C 
ATOM      7  C   UNL     1      16.140  -8.963  30.562  0.00  0.00    +0.109 C 
ATOM      8  C   UNL     1      17.400  -6.999  29.472  0.00  0.00    +0.133 C 
ATOM      9  C   UNL     1      15.052  -9.421  27.900  0.00  0.00    +0.125 C 
ATOM     10  C   UNL     1      14.416  -9.977  29.176  0.00  0.00    +0.104 C 
ATOM     11  C   UNL     1      16.044  -7.088  27.530  0.00  0.00    +0.305 C 
ENDROOT
BRANCH   3  12
ATOM     12  C   UNL     1      14.804 -10.781  31.420  0.00  0.00    +0.119 C 
BRANCH  12  14
ATOM     14  C   UNL     1      13.500 -10.103  31.745  0.00  0.00    -0.033 A 
ATOM     16  C   UNL     1      12.296 -10.665  31.320  0.00  0.00    +0.005 A 
ATOM     17  C   UNL     1      13.496  -8.912  32.471  0.00  0.00    +0.005 A 
ATOM     20  C   UNL     1      11.088 -10.036  31.622  0.00  0.00    +0.000 A 
ATOM     21  C   UNL     1      12.288  -8.284  32.774  0.00  0.00    +0.000 A 
ATOM     23  C   UNL     1      11.084  -8.846  32.349  0.00  0.00    +0.000 A 
ENDBRANCH  12  14
ENDBRANCH   3  12
BRANCH   4  13
ATOM     13  C   UNL     1      17.405  -4.981  27.937  0.00  0.00    +0.146 C 
BRANCH  13  15
ATOM      5  N   UNL     1      16.368  -3.661  31.330  0.00  0.00    -0.263 NA
ATOM     15  C   UNL     1      17.070  -4.017  29.044  0.00  0.00    -0.012 A 
ATOM     18  C   UNL     1      17.137  -2.643  28.843  0.00  0.00    +0.008 A 
ATOM     19  C   UNL     1      16.683  -4.471  30.295  0.00  0.00    +0.115 A 
ATOM     22  C   UNL     1      16.821  -1.777  29.884  0.00  0.00    +0.020 A 
ATOM     24  C   UNL     1      16.446  -2.331  31.097  0.00  0.00    +0.111 A 
ENDBRANCH  13  15
ENDBRANCH   4  13
TORSDOF 4
ENDMDL
