MODEL 1
REMARK VINA RESULT:      -0.2      0.000      0.000
REMARK  Name = 45783615
REMARK  8 active torsions:
REMARK  status: ('A' for Active; 'I' for Inactive)
REMARK    1  A    between atoms: O_2  and  C_30
REMARK    2  A    between atoms: O_2  and  C_31
REMARK    3  A    between atoms: N_4  and  C_15
REMARK    4  A    between atoms: C_11  and  C_16
REMARK    5  A    between atoms: C_15  and  C_17
REMARK    6  A    between atoms: C_20  and  C_23
REMARK    7  A    between atoms: C_24  and  C_27
REMARK    8  A    between atoms: C_29  and  C_30
REMARK                            x       y       z     vdW  Elec       q    Type
REMARK                         _______ _______ _______ _____ _____    ______ ____
ROOT
ATOM      1  O   UNL     1      -3.894  -1.183  23.934  0.00  0.00    -0.336 OA
ATOM      5  N   UNL     1      -2.721   0.559  24.714  0.00  0.00    -0.190 NA
ATOM      6  N   UNL     1      -4.825  -0.169  24.187  0.00  0.00    -0.056 NA
ATOM     16  C   UNL     1      -2.681  -0.672  24.272  0.00  0.00    +0.245 A 
ATOM     20  C   UNL     1      -4.058   0.825  24.644  0.00  0.00    +0.207 A 
ENDROOT
BRANCH  20  23
ATOM      3  O   UNL     1      -1.738   5.396  25.245  0.00  0.00    -0.273 OA
ATOM      7  N   UNL     1      -2.467   3.187  24.878  0.00  0.00    -0.268 N 
ATOM      8  N   UNL     1      -4.346   4.439  25.529  0.00  0.00    -0.220 NA
ATOM      9  N   UNL     1      -6.509   3.393  25.707  0.00  0.00    -0.243 NA
ATOM     23  C   UNL     1      -4.595   2.096  25.040  0.00  0.00    +0.081 A 
ATOM     25  C   UNL     1      -3.840   3.244  25.158  0.00  0.00    +0.139 A 
ATOM     26  C   UNL     1      -5.937   2.231  25.329  0.00  0.00    +0.127 A 
ATOM     28  C   UNL     1      -5.668   4.441  25.785  0.00  0.00    +0.223 A 
ATOM     29  C   UNL     1      -1.535   4.226  24.936  0.00  0.00    +0.244 C 
ATOM     32  H   UNL     1      -2.106   2.284  24.583  0.00  0.00    +0.156 HD
BRANCH  29  30
ATOM     30  C   UNL     1      -0.147   3.764  24.551  0.00  0.00    +0.255 C 
BRANCH  30   2
ATOM      2  O   UNL     1       0.059   2.465  25.064  0.00  0.00    -0.374 OA
ATOM     31  C   UNL     1       0.220   2.472  26.479  0.00  0.00    +0.194 C 
ENDBRANCH  30   2
ENDBRANCH  29  30
ENDBRANCH  20  23
BRANCH  16  11
ATOM      4  N   UNL     1      -0.205  -0.912  24.363  0.00  0.00    -0.287 NA
ATOM     11  C   UNL     1      -1.488  -1.588  24.088  0.00  0.00    +0.146 C 
ATOM     12  C   UNL     1      -1.509  -2.792  25.048  0.00  0.00    +0.030 C 
ATOM     13  C   UNL     1      -0.173  -2.743  25.775  0.00  0.00    +0.017 C 
ATOM     14  C   UNL     1       0.713  -1.944  24.842  0.00  0.00    +0.085 C 
BRANCH   4  15
ATOM     15  C   UNL     1       0.326  -0.196  23.210  0.00  0.00    +0.120 C 
BRANCH  15  17
ATOM     17  C   UNL     1       1.832  -0.161  23.217  0.00  0.00    -0.033 A 
ATOM     18  C   UNL     1       2.503   1.020  22.897  0.00  0.00    +0.006 A 
ATOM     19  C   UNL     1       2.555  -1.309  23.541  0.00  0.00    +0.006 A 
ATOM     21  C   UNL     1       3.897   1.052  22.904  0.00  0.00    +0.019 A 
ATOM     22  C   UNL     1       3.950  -1.275  23.548  0.00  0.00    +0.019 A 
ATOM     24  C   UNL     1       4.621  -0.095  23.230  0.00  0.00    +0.052 A 
BRANCH  24  27
ATOM     10  N   UNL     1       7.209  -0.033  23.242  0.00  0.00    -0.191 NA
ATOM     27  C   UNL     1       6.049  -0.060  23.236  0.00  0.00    +0.099 C 
ENDBRANCH  24  27
ENDBRANCH  15  17
ENDBRANCH   4  15
ENDBRANCH  16  11
TORSDOF 7
ENDMDL
MODEL 2
REMARK VINA RESULT:       1.8      2.072      6.553
REMARK  Name = 45783615
REMARK  8 active torsions:
REMARK  status: ('A' for Active; 'I' for Inactive)
REMARK    1  A    between atoms: O_2  and  C_30
REMARK    2  A    between atoms: O_2  and  C_31
REMARK    3  A    between atoms: N_4  and  C_15
REMARK    4  A    between atoms: C_11  and  C_16
REMARK    5  A    between atoms: C_15  and  C_17
REMARK    6  A    between atoms: C_20  and  C_23
REMARK    7  A    between atoms: C_24  and  C_27
REMARK    8  A    between atoms: C_29  and  C_30
REMARK                            x       y       z     vdW  Elec       q    Type
REMARK                         _______ _______ _______ _____ _____    ______ ____
ROOT
ATOM      1  O   UNL     1      -0.747  -2.809  25.316  0.00  0.00    -0.336 OA
ATOM      5  N   UNL     1      -1.216  -1.036  24.029  0.00  0.00    -0.190 NA
ATOM      6  N   UNL     1       0.476  -2.176  25.065  0.00  0.00    -0.056 NA
ATOM     16  C   UNL     1      -1.691  -2.074  24.669  0.00  0.00    +0.245 A 
ATOM     20  C   UNL     1       0.118  -1.140  24.301  0.00  0.00    +0.207 A 
ENDROOT
BRANCH  20  23
ATOM      3  O   UNL     1       0.410   3.973  24.940  0.00  0.00    -0.273 OA
ATOM      7  N   UNL     1      -0.020   1.659  24.860  0.00  0.00    -0.268 N 
ATOM      8  N   UNL     1       1.906   2.053  23.572  0.00  0.00    -0.220 NA
ATOM      9  N   UNL     1       3.038   0.229  22.477  0.00  0.00    -0.243 NA
ATOM     23  C   UNL     1       1.066  -0.191  23.791  0.00  0.00    +0.081 A 
ATOM     25  C   UNL     1       1.013   1.162  24.052  0.00  0.00    +0.139 A 
ATOM     26  C   UNL     1       2.111  -0.605  22.990  0.00  0.00    +0.127 A 
ATOM     28  C   UNL     1       2.878   1.526  22.803  0.00  0.00    +0.223 A 
ATOM     29  C   UNL     1      -0.250   2.984  25.241  0.00  0.00    +0.244 C 
ATOM     32  H   UNL     1      -0.673   0.973  25.226  0.00  0.00    +0.156 HD
BRANCH  29  30
ATOM     30  C   UNL     1      -1.467   3.113  26.130  0.00  0.00    +0.255 C 
BRANCH  30   2
ATOM      2  O   UNL     1      -1.987   4.420  26.003  0.00  0.00    -0.374 OA
ATOM     31  C   UNL     1      -3.106   4.632  26.858  0.00  0.00    +0.194 C 
ENDBRANCH  30   2
ENDBRANCH  29  30
ENDBRANCH  20  23
BRANCH  16  11
ATOM      4  N   UNL     1      -4.099  -1.561  24.311  0.00  0.00    -0.287 NA
ATOM     11  C   UNL     1      -3.121  -2.558  24.787  0.00  0.00    +0.146 C 
ATOM     12  C   UNL     1      -3.396  -3.812  23.937  0.00  0.00    +0.030 C 
ATOM     13  C   UNL     1      -4.582  -3.444  23.058  0.00  0.00    +0.017 C 
ATOM     14  C   UNL     1      -5.250  -2.314  23.814  0.00  0.00    +0.085 C 
BRANCH   4  15
ATOM     15  C   UNL     1      -4.477  -0.593  25.334  0.00  0.00    +0.120 C 
BRANCH  15  17
ATOM     17  C   UNL     1      -4.389   0.822  24.825  0.00  0.00    -0.033 A 
ATOM     18  C   UNL     1      -3.499   1.140  23.799  0.00  0.00    +0.006 A 
ATOM     19  C   UNL     1      -5.195   1.815  25.381  0.00  0.00    +0.006 A 
ATOM     21  C   UNL     1      -3.417   2.450  23.329  0.00  0.00    +0.019 A 
ATOM     22  C   UNL     1      -5.113   3.125  24.910  0.00  0.00    +0.019 A 
ATOM     24  C   UNL     1      -4.224   3.443  23.883  0.00  0.00    +0.052 A 
BRANCH  24  27
ATOM     10  N   UNL     1      -4.071   5.875  23.009  0.00  0.00    -0.191 NA
ATOM     27  C   UNL     1      -4.140   4.785  23.401  0.00  0.00    +0.099 C 
ENDBRANCH  24  27
ENDBRANCH  15  17
ENDBRANCH   4  15
ENDBRANCH  16  11
TORSDOF 7
ENDMDL
MODEL 3
REMARK VINA RESULT:       2.2      2.174      7.242
REMARK  Name = 45783615
REMARK  8 active torsions:
REMARK  status: ('A' for Active; 'I' for Inactive)
REMARK    1  A    between atoms: O_2  and  C_30
REMARK    2  A    between atoms: O_2  and  C_31
REMARK    3  A    between atoms: N_4  and  C_15
REMARK    4  A    between atoms: C_11  and  C_16
REMARK    5  A    between atoms: C_15  and  C_17
REMARK    6  A    between atoms: C_20  and  C_23
REMARK    7  A    between atoms: C_24  and  C_27
REMARK    8  A    between atoms: C_29  and  C_30
REMARK                            x       y       z     vdW  Elec       q    Type
REMARK                         _______ _______ _______ _____ _____    ______ ____
ROOT
ATOM      1  O   UNL     1      -0.240   3.342  24.144  0.00  0.00    -0.336 OA
ATOM      5  N   UNL     1      -1.698   1.777  24.809  0.00  0.00    -0.190 NA
ATOM      6  N   UNL     1       0.479   2.142  24.207  0.00  0.00    -0.056 NA
ATOM     16  C   UNL     1      -1.512   3.039  24.514  0.00  0.00    +0.245 A 
ATOM     20  C   UNL     1      -0.449   1.267  24.606  0.00  0.00    +0.207 A 
ENDROOT
BRANCH  20  23
ATOM      3  O   UNL     1       3.577  -1.579  23.076  0.00  0.00    -0.273 OA
ATOM      7  N   UNL     1       1.908  -0.004  23.606  0.00  0.00    -0.268 N 
ATOM      8  N   UNL     1       1.242  -2.059  24.531  0.00  0.00    -0.220 NA
ATOM      9  N   UNL     1      -0.826  -2.236  25.755  0.00  0.00    -0.243 NA
ATOM     23  C   UNL     1      -0.160  -0.124  24.812  0.00  0.00    +0.081 A 
ATOM     25  C   UNL     1       0.972  -0.752  24.335  0.00  0.00    +0.139 A 
ATOM     26  C   UNL     1      -1.032  -0.923  25.522  0.00  0.00    +0.127 A 
ATOM     28  C   UNL     1       0.314  -2.731  25.238  0.00  0.00    +0.223 A 
ATOM     29  C   UNL     1       3.107  -0.446  23.041  0.00  0.00    +0.244 C 
ATOM     32  H   UNL     1       1.697   0.982  23.482  0.00  0.00    +0.156 HD
BRANCH  29  30
ATOM     30  C   UNL     1       3.846   0.671  22.336  0.00  0.00    +0.255 C 
BRANCH  30   2
ATOM      2  O   UNL     1       4.737   1.275  23.249  0.00  0.00    -0.374 OA
ATOM     31  C   UNL     1       5.643   0.330  23.811  0.00  0.00    +0.194 C 
ENDBRANCH  30   2
ENDBRANCH  29  30
ENDBRANCH  20  23
BRANCH  16  11
ATOM      4  N   UNL     1      -3.757   3.842  25.226  0.00  0.00    -0.287 NA
ATOM     11  C   UNL     1      -2.503   4.184  24.528  0.00  0.00    +0.146 C 
ATOM     12  C   UNL     1      -1.968   5.423  25.270  0.00  0.00    +0.030 C 
ATOM     13  C   UNL     1      -3.018   5.738  26.325  0.00  0.00    +0.017 C 
ATOM     14  C   UNL     1      -4.275   5.091  25.782  0.00  0.00    +0.085 C 
BRANCH   4  15
ATOM     15  C   UNL     1      -4.730   3.179  24.366  0.00  0.00    +0.120 C 
BRANCH  15  17
ATOM     17  C   UNL     1      -4.512   1.690  24.318  0.00  0.00    -0.033 A 
ATOM     18  C   UNL     1      -4.888   0.895  25.402  0.00  0.00    +0.006 A 
ATOM     19  C   UNL     1      -3.933   1.105  23.192  0.00  0.00    +0.006 A 
ATOM     21  C   UNL     1      -4.686  -0.484  25.358  0.00  0.00    +0.019 A 
ATOM     22  C   UNL     1      -3.731  -0.275  23.149  0.00  0.00    +0.019 A 
ATOM     24  C   UNL     1      -4.108  -1.069  24.232  0.00  0.00    +0.052 A 
BRANCH  24  27
ATOM     10  N   UNL     1      -3.733  -3.630  24.151  0.00  0.00    -0.191 NA
ATOM     27  C   UNL     1      -3.901  -2.482  24.188  0.00  0.00    +0.099 C 
ENDBRANCH  24  27
ENDBRANCH  15  17
ENDBRANCH   4  15
ENDBRANCH  16  11
TORSDOF 7
ENDMDL
MODEL 4
REMARK VINA RESULT:       3.0      2.098      7.394
REMARK  Name = 45783615
REMARK  8 active torsions:
REMARK  status: ('A' for Active; 'I' for Inactive)
REMARK    1  A    between atoms: O_2  and  C_30
REMARK    2  A    between atoms: O_2  and  C_31
REMARK    3  A    between atoms: N_4  and  C_15
REMARK    4  A    between atoms: C_11  and  C_16
REMARK    5  A    between atoms: C_15  and  C_17
REMARK    6  A    between atoms: C_20  and  C_23
REMARK    7  A    between atoms: C_24  and  C_27
REMARK    8  A    between atoms: C_29  and  C_30
REMARK                            x       y       z     vdW  Elec       q    Type
REMARK                         _______ _______ _______ _____ _____    ______ ____
ROOT
ATOM      1  O   UNL     1      -0.363   3.582  25.874  0.00  0.00    -0.336 OA
ATOM      5  N   UNL     1      -0.682   2.706  23.836  0.00  0.00    -0.190 NA
ATOM      6  N   UNL     1       0.677   2.665  25.676  0.00  0.00    -0.056 NA
ATOM     16  C   UNL     1      -1.117   3.543  24.743  0.00  0.00    +0.245 A 
ATOM     20  C   UNL     1       0.421   2.191  24.454  0.00  0.00    +0.207 A 
ENDROOT
BRANCH  20  23
ATOM      3  O   UNL     1       0.100  -2.960  24.508  0.00  0.00    -0.273 OA
ATOM      7  N   UNL     1      -0.049  -0.618  24.697  0.00  0.00    -0.268 N 
ATOM      8  N   UNL     1       1.807  -1.088  23.333  0.00  0.00    -0.220 NA
ATOM      9  N   UNL     1       3.141   0.702  22.426  0.00  0.00    -0.243 NA
ATOM     23  C   UNL     1       1.245   1.201  23.822  0.00  0.00    +0.081 A 
ATOM     25  C   UNL     1       1.032  -0.158  23.930  0.00  0.00    +0.139 A 
ATOM     26  C   UNL     1       2.325   1.576  23.049  0.00  0.00    +0.127 A 
ATOM     28  C   UNL     1       2.829  -0.595  22.608  0.00  0.00    +0.223 A 
ATOM     29  C   UNL     1      -0.434  -1.940  24.931  0.00  0.00    +0.244 C 
ATOM     32  H   UNL     1      -0.631   0.096  25.125  0.00  0.00    +0.156 HD
BRANCH  29  30
ATOM     30  C   UNL     1      -1.664  -2.024  25.808  0.00  0.00    +0.255 C 
BRANCH  30   2
ATOM      2  O   UNL     1      -1.578  -1.031  26.808  0.00  0.00    -0.374 OA
ATOM     31  C   UNL     1      -1.845   0.269  26.290  0.00  0.00    +0.194 C 
ENDBRANCH  30   2
ENDBRANCH  29  30
ENDBRANCH  20  23
BRANCH  16  11
ATOM      4  N   UNL     1      -3.589   3.742  24.953  0.00  0.00    -0.287 NA
ATOM     11  C   UNL     1      -2.323   4.459  24.705  0.00  0.00    +0.146 C 
ATOM     12  C   UNL     1      -2.274   5.552  25.789  0.00  0.00    +0.030 C 
ATOM     13  C   UNL     1      -3.580   5.409  26.556  0.00  0.00    +0.017 C 
ATOM     14  C   UNL     1      -4.495   4.705  25.576  0.00  0.00    +0.085 C 
BRANCH   4  15
ATOM     15  C   UNL     1      -4.159   3.150  23.750  0.00  0.00    +0.120 C 
BRANCH  15  17
ATOM     17  C   UNL     1      -4.147   1.645  23.805  0.00  0.00    -0.033 A 
ATOM     18  C   UNL     1      -3.295   0.924  22.967  0.00  0.00    +0.006 A 
ATOM     19  C   UNL     1      -4.987   0.972  24.692  0.00  0.00    +0.006 A 
ATOM     21  C   UNL     1      -3.283  -0.470  23.018  0.00  0.00    +0.019 A 
ATOM     22  C   UNL     1      -4.975  -0.422  24.742  0.00  0.00    +0.019 A 
ATOM     24  C   UNL     1      -4.122  -1.143  23.906  0.00  0.00    +0.052 A 
BRANCH  24  27
ATOM     10  N   UNL     1      -4.100  -3.730  24.000  0.00  0.00    -0.191 NA
ATOM     27  C   UNL     1      -4.110  -2.571  23.958  0.00  0.00    +0.099 C 
ENDBRANCH  24  27
ENDBRANCH  15  17
ENDBRANCH   4  15
ENDBRANCH  16  11
TORSDOF 7
ENDMDL
MODEL 5
REMARK VINA RESULT:       3.1      2.508      6.246
REMARK  Name = 45783615
REMARK  8 active torsions:
REMARK  status: ('A' for Active; 'I' for Inactive)
REMARK    1  A    between atoms: O_2  and  C_30
REMARK    2  A    between atoms: O_2  and  C_31
REMARK    3  A    between atoms: N_4  and  C_15
REMARK    4  A    between atoms: C_11  and  C_16
REMARK    5  A    between atoms: C_15  and  C_17
REMARK    6  A    between atoms: C_20  and  C_23
REMARK    7  A    between atoms: C_24  and  C_27
REMARK    8  A    between atoms: C_29  and  C_30
REMARK                            x       y       z     vdW  Elec       q    Type
REMARK                         _______ _______ _______ _____ _____    ______ ____
ROOT
ATOM      1  O   UNL     1      -1.344  -0.895  26.497  0.00  0.00    -0.336 OA
ATOM      5  N   UNL     1      -2.208   0.442  24.920  0.00  0.00    -0.190 NA
ATOM      6  N   UNL     1      -0.526   0.241  26.457  0.00  0.00    -0.056 NA
ATOM     16  C   UNL     1      -2.309  -0.695  25.561  0.00  0.00    +0.245 A 
ATOM     20  C   UNL     1      -1.099   0.982  25.505  0.00  0.00    +0.207 A 
ENDROOT
BRANCH  20  23
ATOM      3  O   UNL     1       3.099   2.217  22.768  0.00  0.00    -0.273 OA
ATOM      7  N   UNL     1       1.288   1.308  23.968  0.00  0.00    -0.268 N 
ATOM      8  N   UNL     1       1.040   3.644  24.001  0.00  0.00    -0.220 NA
ATOM      9  N   UNL     1      -0.829   4.659  25.135  0.00  0.00    -0.243 NA
ATOM     23  C   UNL     1      -0.589   2.264  25.112  0.00  0.00    +0.081 A 
ATOM     25  C   UNL     1       0.562   2.438  24.371  0.00  0.00    +0.139 A 
ATOM     26  C   UNL     1      -1.250   3.421  25.469  0.00  0.00    +0.127 A 
ATOM     28  C   UNL     1       0.306   4.696  24.411  0.00  0.00    +0.223 A 
ATOM     29  C   UNL     1       2.467   1.267  23.220  0.00  0.00    +0.244 C 
ATOM     32  H   UNL     1       0.905   0.407  24.240  0.00  0.00    +0.156 HD
BRANCH  29  30
ATOM     30  C   UNL     1       2.939  -0.151  22.983  0.00  0.00    +0.255 C 
BRANCH  30   2
ATOM      2  O   UNL     1       4.336  -0.137  22.776  0.00  0.00    -0.374 OA
ATOM     31  C   UNL     1       5.050  -0.506  23.952  0.00  0.00    +0.194 C 
ENDBRANCH  30   2
ENDBRANCH  29  30
ENDBRANCH  20  23
BRANCH  16  11
ATOM      4  N   UNL     1      -4.201  -1.604  24.224  0.00  0.00    -0.287 NA
ATOM     11  C   UNL     1      -3.336  -1.797  25.405  0.00  0.00    +0.146 C 
ATOM     12  C   UNL     1      -2.696  -3.182  25.198  0.00  0.00    +0.030 C 
ATOM     13  C   UNL     1      -3.306  -3.714  23.909  0.00  0.00    +0.017 C 
ATOM     14  C   UNL     1      -4.602  -2.939  23.782  0.00  0.00    +0.085 C 
BRANCH   4  15
ATOM     15  C   UNL     1      -5.350  -0.745  24.488  0.00  0.00    +0.120 C 
BRANCH  15  17
ATOM     17  C   UNL     1      -5.007   0.712  24.330  0.00  0.00    -0.033 A 
ATOM     18  C   UNL     1      -4.160   1.121  23.300  0.00  0.00    +0.006 A 
ATOM     19  C   UNL     1      -5.534   1.653  25.215  0.00  0.00    +0.006 A 
ATOM     21  C   UNL     1      -3.842   2.471  23.154  0.00  0.00    +0.019 A 
ATOM     22  C   UNL     1      -5.215   3.003  25.069  0.00  0.00    +0.019 A 
ATOM     24  C   UNL     1      -4.370   3.413  24.038  0.00  0.00    +0.052 A 
BRANCH  24  27
ATOM     10  N   UNL     1      -3.777   5.918  23.766  0.00  0.00    -0.191 NA
ATOM     27  C   UNL     1      -4.043   4.795  23.888  0.00  0.00    +0.099 C 
ENDBRANCH  24  27
ENDBRANCH  15  17
ENDBRANCH   4  15
ENDBRANCH  16  11
TORSDOF 7
ENDMDL
MODEL 6
REMARK VINA RESULT:       3.5      1.725      2.682
REMARK  Name = 45783615
REMARK  8 active torsions:
REMARK  status: ('A' for Active; 'I' for Inactive)
REMARK    1  A    between atoms: O_2  and  C_30
REMARK    2  A    between atoms: O_2  and  C_31
REMARK    3  A    between atoms: N_4  and  C_15
REMARK    4  A    between atoms: C_11  and  C_16
REMARK    5  A    between atoms: C_15  and  C_17
REMARK    6  A    between atoms: C_20  and  C_23
REMARK    7  A    between atoms: C_24  and  C_27
REMARK    8  A    between atoms: C_29  and  C_30
REMARK                            x       y       z     vdW  Elec       q    Type
REMARK                         _______ _______ _______ _____ _____    ______ ____
ROOT
ATOM      1  O   UNL     1      -5.585  -0.229  24.335  0.00  0.00    -0.336 OA
ATOM      5  N   UNL     1      -3.880   1.136  24.836  0.00  0.00    -0.190 NA
ATOM      6  N   UNL     1      -6.153   1.022  24.603  0.00  0.00    -0.056 NA
ATOM     16  C   UNL     1      -4.244  -0.074  24.496  0.00  0.00    +0.245 A 
ATOM     20  C   UNL     1      -5.087   1.773  24.889  0.00  0.00    +0.207 A 
ENDROOT
BRANCH  20  23
ATOM      3  O   UNL     1      -1.443   5.411  25.252  0.00  0.00    -0.273 OA
ATOM      7  N   UNL     1      -2.833   3.527  24.995  0.00  0.00    -0.268 N 
ATOM      8  N   UNL     1      -4.211   5.327  25.615  0.00  0.00    -0.220 NA
ATOM      9  N   UNL     1      -6.587   5.017  25.868  0.00  0.00    -0.243 NA
ATOM     23  C   UNL     1      -5.190   3.162  25.235  0.00  0.00    +0.081 A 
ATOM     25  C   UNL     1      -4.112   4.021  25.291  0.00  0.00    +0.139 A 
ATOM     26  C   UNL     1      -6.415   3.720  25.536  0.00  0.00    +0.127 A 
ATOM     28  C   UNL     1      -5.459   5.752  25.888  0.00  0.00    +0.223 A 
ATOM     29  C   UNL     1      -1.623   4.225  24.994  0.00  0.00    +0.244 C 
ATOM     32  H   UNL     1      -2.779   2.546  24.737  0.00  0.00    +0.156 HD
BRANCH  29  30
ATOM     30  C   UNL     1      -0.459   3.338  24.611  0.00  0.00    +0.255 C 
BRANCH  30   2
ATOM      2  O   UNL     1       0.441   3.273  25.697  0.00  0.00    -0.374 OA
ATOM     31  C   UNL     1       0.021   2.330  26.679  0.00  0.00    +0.194 C 
ENDBRANCH  30   2
ENDBRANCH  29  30
ENDBRANCH  20  23
BRANCH  16  11
ATOM      4  N   UNL     1      -3.050  -2.008  25.510  0.00  0.00    -0.287 NA
ATOM     11  C   UNL     1      -3.389  -1.302  24.259  0.00  0.00    +0.146 C 
ATOM     12  C   UNL     1      -4.097  -2.361  23.393  0.00  0.00    +0.030 C 
ATOM     13  C   UNL     1      -4.053  -3.641  24.214  0.00  0.00    +0.017 C 
ATOM     14  C   UNL     1      -2.891  -3.419  25.159  0.00  0.00    +0.085 C 
BRANCH   4  15
ATOM     15  C   UNL     1      -1.868  -1.470  26.172  0.00  0.00    +0.120 C 
BRANCH  15  17
ATOM     17  C   UNL     1      -0.797  -1.091  25.183  0.00  0.00    -0.033 A 
ATOM     18  C   UNL     1       0.319  -1.912  25.017  0.00  0.00    +0.006 A 
ATOM     19  C   UNL     1      -0.919   0.080  24.436  0.00  0.00    +0.006 A 
ATOM     21  C   UNL     1       1.311  -1.561  24.102  0.00  0.00    +0.019 A 
ATOM     22  C   UNL     1       0.074   0.430  23.521  0.00  0.00    +0.019 A 
ATOM     24  C   UNL     1       1.189  -0.391  23.353  0.00  0.00    +0.052 A 
BRANCH  24  27
ATOM     10  N   UNL     1       3.032   0.259  21.655  0.00  0.00    -0.191 NA
ATOM     27  C   UNL     1       2.206  -0.032  22.416  0.00  0.00    +0.099 C 
ENDBRANCH  24  27
ENDBRANCH  15  17
ENDBRANCH   4  15
ENDBRANCH  16  11
TORSDOF 7
ENDMDL
MODEL 7
REMARK VINA RESULT:       3.5      2.086      5.686
REMARK  Name = 45783615
REMARK  8 active torsions:
REMARK  status: ('A' for Active; 'I' for Inactive)
REMARK    1  A    between atoms: O_2  and  C_30
REMARK    2  A    between atoms: O_2  and  C_31
REMARK    3  A    between atoms: N_4  and  C_15
REMARK    4  A    between atoms: C_11  and  C_16
REMARK    5  A    between atoms: C_15  and  C_17
REMARK    6  A    between atoms: C_20  and  C_23
REMARK    7  A    between atoms: C_24  and  C_27
REMARK    8  A    between atoms: C_29  and  C_30
REMARK                            x       y       z     vdW  Elec       q    Type
REMARK                         _______ _______ _______ _____ _____    ______ ____
ROOT
ATOM      1  O   UNL     1       0.890  -0.917  24.799  0.00  0.00    -0.336 OA
ATOM      5  N   UNL     1      -0.534  -0.812  23.073  0.00  0.00    -0.190 NA
ATOM      6  N   UNL     1      -0.304  -1.498  25.243  0.00  0.00    -0.056 NA
ATOM     16  C   UNL     1       0.668  -0.540  23.512  0.00  0.00    +0.245 A 
ATOM     20  C   UNL     1      -1.094  -1.400  24.170  0.00  0.00    +0.207 A 
ENDROOT
BRANCH  20  23
ATOM      3  O   UNL     1      -5.555   1.196  24.202  0.00  0.00    -0.273 OA
ATOM      7  N   UNL     1      -3.362   0.340  24.192  0.00  0.00    -0.268 N 
ATOM      8  N   UNL     1      -4.825  -1.499  24.162  0.00  0.00    -0.220 NA
ATOM      9  N   UNL     1      -3.960  -3.748  24.129  0.00  0.00    -0.243 NA
ATOM     23  C   UNL     1      -2.448  -1.876  24.161  0.00  0.00    +0.081 A 
ATOM     25  C   UNL     1      -3.552  -1.050  24.172  0.00  0.00    +0.139 A 
ATOM     26  C   UNL     1      -2.715  -3.230  24.139  0.00  0.00    +0.127 A 
ATOM     28  C   UNL     1      -4.953  -2.839  24.142  0.00  0.00    +0.223 A 
ATOM     29  C   UNL     1      -4.337   1.340  24.206  0.00  0.00    +0.244 C 
ATOM     32  H   UNL     1      -2.398   0.661  24.182  0.00  0.00    +0.156 HD
BRANCH  29  30
ATOM     30  C   UNL     1      -3.727   2.725  24.217  0.00  0.00    +0.255 C 
BRANCH  30   2
ATOM      2  O   UNL     1      -3.598   3.177  22.886  0.00  0.00    -0.374 OA
ATOM     31  C   UNL     1      -2.705   2.362  22.133  0.00  0.00    +0.194 C 
ENDBRANCH  30   2
ENDBRANCH  29  30
ENDBRANCH  20  23
BRANCH  16  11
ATOM      4  N   UNL     1       2.276   1.359  23.467  0.00  0.00    -0.287 NA
ATOM     11  C   UNL     1       1.825   0.125  22.795  0.00  0.00    +0.146 C 
ATOM     12  C   UNL     1       3.078  -0.768  22.734  0.00  0.00    +0.030 C 
ATOM     13  C   UNL     1       4.194   0.072  23.339  0.00  0.00    +0.017 C 
ATOM     14  C   UNL     1       3.702   1.494  23.170  0.00  0.00    +0.085 C 
BRANCH   4  15
ATOM     15  C   UNL     1       1.518   2.539  23.069  0.00  0.00    +0.120 C 
BRANCH  15  17
ATOM     17  C   UNL     1       0.465   2.896  24.084  0.00  0.00    -0.033 A 
ATOM     18  C   UNL     1      -0.193   4.124  24.003  0.00  0.00    +0.006 A 
ATOM     19  C   UNL     1       0.147   2.001  25.105  0.00  0.00    +0.006 A 
ATOM     21  C   UNL     1      -1.169   4.455  24.942  0.00  0.00    +0.019 A 
ATOM     22  C   UNL     1      -0.829   2.333  26.045  0.00  0.00    +0.019 A 
ATOM     24  C   UNL     1      -1.487   3.559  25.963  0.00  0.00    +0.052 A 
BRANCH  24  27
ATOM     10  N   UNL     1      -3.299   4.175  27.707  0.00  0.00    -0.191 NA
ATOM     27  C   UNL     1      -2.487   3.899  26.926  0.00  0.00    +0.099 C 
ENDBRANCH  24  27
ENDBRANCH  15  17
ENDBRANCH   4  15
ENDBRANCH  16  11
TORSDOF 7
ENDMDL
