MODEL 1
REMARK VINA RESULT:       0.6      0.000      0.000
REMARK  Name = 11912819
REMARK  8 active torsions:
REMARK  status: ('A' for Active; 'I' for Inactive)
REMARK    1  A    between atoms: O_4  and  C_18
REMARK    2  A    between atoms: O_4  and  C_23
REMARK    3  A    between atoms: O_5  and  C_30
REMARK    4  A    between atoms: O_5  and  C_34
REMARK    5  A    between atoms: N_6  and  C_12
REMARK    6  A    between atoms: N_7  and  C_13
REMARK    7  A    between atoms: C_16  and  C_18
REMARK    8  A    between atoms: C_19  and  C_22
REMARK                            x       y       z     vdW  Elec       q    Type
REMARK                         _______ _______ _______ _____ _____    ______ ____
ROOT
ATOM      1  O   UNL     1      -3.626   3.051  23.535  0.00  0.00    -0.370 OA
ATOM      2  O   UNL     1      -5.473   2.485  25.985  0.00  0.00    -0.370 OA
ATOM     10  C   UNL     1      -4.052   2.402  25.783  0.00  0.00    +0.171 C 
ATOM     11  C   UNL     1      -3.825   1.899  24.371  0.00  0.00    +0.171 C 
ATOM     12  C   UNL     1      -3.440   3.785  25.783  0.00  0.00    +0.130 C 
ATOM     13  C   UNL     1      -5.121   1.209  24.013  0.00  0.00    +0.130 C 
ATOM     14  C   UNL     1      -3.648   4.232  24.348  0.00  0.00    +0.185 C 
ATOM     15  C   UNL     1      -6.145   1.984  24.821  0.00  0.00    +0.185 C 
ENDROOT
BRANCH  13   7
ATOM      7  N   UNL     1      -5.083  -0.171  24.445  0.00  0.00    -0.306 N 
ATOM      8  N   UNL     1      -2.778  -0.285  24.192  0.00  0.00    -0.214 NA
ATOM      9  N   UNL     1      -4.046  -2.185  24.956  0.00  0.00    -0.223 NA
ATOM     17  C   UNL     1      -3.918  -0.913  24.535  0.00  0.00    +0.216 A 
ATOM     19  C   UNL     1      -1.662  -1.037  24.291  0.00  0.00    +0.076 A 
ATOM     20  C   UNL     1      -2.892  -2.880  25.032  0.00  0.00    +0.116 A 
ATOM     21  C   UNL     1      -1.658  -2.353  24.710  0.00  0.00    +0.048 A 
ATOM     36  H   UNL     1      -5.938  -0.620  24.752  0.00  0.00    +0.149 HD
BRANCH  19  22
ATOM     22  C   UNL     1      -0.437  -0.368  23.925  0.00  0.00    +0.001 A 
ATOM     24  C   UNL     1       0.544  -1.054  23.208  0.00  0.00    +0.013 A 
ATOM     25  C   UNL     1      -0.232   0.964  24.289  0.00  0.00    +0.013 A 
ATOM     28  C   UNL     1       1.730  -0.408  22.855  0.00  0.00    +0.046 A 
ATOM     29  C   UNL     1       0.952   1.608  23.936  0.00  0.00    +0.046 A 
ATOM     30  C   UNL     1       1.934   0.922  23.219  0.00  0.00    +0.120 A 
BRANCH  30   5
ATOM      5  O   UNL     1       3.089   1.552  22.872  0.00  0.00    -0.495 OA
ATOM     34  C   UNL     1       4.279   0.764  22.856  0.00  0.00    +0.277 C 
ENDBRANCH  30   5
ENDBRANCH  19  22
ENDBRANCH  13   7
BRANCH  12   6
ATOM      3  O   UNL     1      -1.252   5.050  24.367  0.00  0.00    -0.272 OA
ATOM      6  N   UNL     1      -2.037   3.734  26.117  0.00  0.00    -0.305 N 
ATOM     16  C   UNL     1      -1.056   4.375  25.374  0.00  0.00    +0.251 C 
ATOM     35  H   UNL     1      -1.766   3.245  26.966  0.00  0.00    +0.149 HD
BRANCH  16  18
ATOM     18  C   UNL     1       0.325   4.151  25.954  0.00  0.00    +0.324 C 
BRANCH  18   4
ATOM      4  O   UNL     1       0.438   2.847  26.482  0.00  0.00    -0.483 OA
BRANCH   4  23
ATOM     23  C   UNL     1       1.024   2.720  27.719  0.00  0.00    +0.121 A 
ATOM     26  C   UNL     1       0.238   2.456  28.840  0.00  0.00    +0.045 A 
ATOM     27  C   UNL     1       2.406   2.854  27.853  0.00  0.00    +0.045 A 
ATOM     31  C   UNL     1       0.832   2.326  30.095  0.00  0.00    +0.004 A 
ATOM     32  C   UNL     1       3.001   2.724  29.108  0.00  0.00    +0.004 A 
ATOM     33  C   UNL     1       2.214   2.461  30.230  0.00  0.00    +0.000 A 
ENDBRANCH   4  23
ENDBRANCH  18   4
ENDBRANCH  16  18
ENDBRANCH  12   6
TORSDOF 7
ENDMDL
MODEL 2
REMARK VINA RESULT:       2.0      2.479      4.907
REMARK  Name = 11912819
REMARK  8 active torsions:
REMARK  status: ('A' for Active; 'I' for Inactive)
REMARK    1  A    between atoms: O_4  and  C_18
REMARK    2  A    between atoms: O_4  and  C_23
REMARK    3  A    between atoms: O_5  and  C_30
REMARK    4  A    between atoms: O_5  and  C_34
REMARK    5  A    between atoms: N_6  and  C_12
REMARK    6  A    between atoms: N_7  and  C_13
REMARK    7  A    between atoms: C_16  and  C_18
REMARK    8  A    between atoms: C_19  and  C_22
REMARK                            x       y       z     vdW  Elec       q    Type
REMARK                         _______ _______ _______ _____ _____    ______ ____
ROOT
ATOM      1  O   UNL     1      -1.096   4.260  24.244  0.00  0.00    -0.370 OA
ATOM      2  O   UNL     1      -2.372   3.344  26.940  0.00  0.00    -0.370 OA
ATOM     10  C   UNL     1      -2.118   2.674  25.693  0.00  0.00    +0.171 C 
ATOM     11  C   UNL     1      -2.366   3.678  24.584  0.00  0.00    +0.171 C 
ATOM     12  C   UNL     1      -0.649   2.340  25.566  0.00  0.00    +0.130 C 
ATOM     13  C   UNL     1      -3.265   4.714  25.218  0.00  0.00    +0.130 C 
ATOM     14  C   UNL     1      -0.068   3.635  25.025  0.00  0.00    +0.185 C 
ATOM     15  C   UNL     1      -2.845   4.672  26.675  0.00  0.00    +0.185 C 
ENDROOT
BRANCH  13   7
ATOM      7  N   UNL     1      -4.649   4.318  25.084  0.00  0.00    -0.306 N 
ATOM      8  N   UNL     1      -4.094   2.064  25.013  0.00  0.00    -0.214 NA
ATOM      9  N   UNL     1      -6.386   2.791  24.866  0.00  0.00    -0.223 NA
ATOM     17  C   UNL     1      -5.061   3.000  24.983  0.00  0.00    +0.216 A 
ATOM     19  C   UNL     1      -4.530   0.791  24.912  0.00  0.00    +0.076 A 
ATOM     20  C   UNL     1      -6.753   1.496  24.770  0.00  0.00    +0.116 A 
ATOM     21  C   UNL     1      -5.860   0.444  24.788  0.00  0.00    +0.048 A 
ATOM     36  H   UNL     1      -5.375   5.024  25.115  0.00  0.00    +0.149 HD
BRANCH  19  22
ATOM     22  C   UNL     1      -3.497  -0.216  24.945  0.00  0.00    +0.001 A 
ATOM     24  C   UNL     1      -3.259  -1.007  23.821  0.00  0.00    +0.013 A 
ATOM     25  C   UNL     1      -2.737  -0.400  26.101  0.00  0.00    +0.013 A 
ATOM     28  C   UNL     1      -2.261  -1.981  23.851  0.00  0.00    +0.046 A 
ATOM     29  C   UNL     1      -1.740  -1.374  26.131  0.00  0.00    +0.046 A 
ATOM     30  C   UNL     1      -1.502  -2.166  25.006  0.00  0.00    +0.120 A 
BRANCH  30   5
ATOM      5  O   UNL     1      -0.528  -3.114  25.035  0.00  0.00    -0.495 OA
ATOM     34  C   UNL     1       0.710  -2.757  25.650  0.00  0.00    +0.277 C 
ENDBRANCH  30   5
ENDBRANCH  19  22
ENDBRANCH  13   7
BRANCH  12   6
ATOM      3  O   UNL     1       1.627   1.925  23.822  0.00  0.00    -0.272 OA
ATOM      6  N   UNL     1      -0.440   1.249  24.646  0.00  0.00    -0.305 N 
ATOM     16  C   UNL     1       0.688   1.134  23.847  0.00  0.00    +0.251 C 
ATOM     35  H   UNL     1      -1.133   0.505  24.623  0.00  0.00    +0.149 HD
BRANCH  16  18
ATOM     18  C   UNL     1       0.641  -0.108  22.982  0.00  0.00    +0.324 C 
BRANCH  18   4
ATOM      4  O   UNL     1       1.760  -0.161  22.124  0.00  0.00    -0.483 OA
BRANCH   4  23
ATOM     23  C   UNL     1       3.000  -0.231  22.713  0.00  0.00    +0.121 A 
ATOM     26  C   UNL     1       3.879   0.848  22.618  0.00  0.00    +0.045 A 
ATOM     27  C   UNL     1       3.380  -1.380  23.405  0.00  0.00    +0.045 A 
ATOM     31  C   UNL     1       5.137   0.779  23.216  0.00  0.00    +0.004 A 
ATOM     32  C   UNL     1       4.638  -1.450  24.003  0.00  0.00    +0.004 A 
ATOM     33  C   UNL     1       5.518  -0.371  23.909  0.00  0.00    +0.000 A 
ENDBRANCH   4  23
ENDBRANCH  18   4
ENDBRANCH  16  18
ENDBRANCH  12   6
TORSDOF 7
ENDMDL
