MODEL 1
REMARK VINA RESULT:       7.2      0.000      0.000
REMARK  Name = 7144173
REMARK  3 active torsions:
REMARK  status: ('A' for Active; 'I' for Inactive)
REMARK    1  A    between atoms: S_1  and  N_6
REMARK    2  A    between atoms: S_1  and  C_20
REMARK    3  A    between atoms: C_15  and  C_19
REMARK                            x       y       z     vdW  Elec       q    Type
REMARK                         _______ _______ _______ _____ _____    ______ ____
ROOT
ATOM      5  O   UNL     1      -3.356   4.207  26.530  0.00  0.00    -0.268 OA
ATOM      6  N   UNL     1      -3.372  -0.102  24.106  0.00  0.00    -0.180 NA
ATOM      7  N   UNL     1      -2.520   2.840  24.822  0.00  0.00    -0.311 N 
ATOM      8  C   UNL     1      -4.030   1.992  22.930  0.00  0.00    +0.025 C 
ATOM      9  C   UNL     1      -1.665   1.333  23.000  0.00  0.00    +0.053 C 
ATOM     10  C   UNL     1      -2.745   1.955  22.118  0.00  0.00    +0.017 C 
ATOM     11  C   UNL     1      -4.456   0.575  23.342  0.00  0.00    +0.114 C 
ATOM     12  C   UNL     1      -2.074  -0.106  23.370  0.00  0.00    +0.118 C 
ATOM     13  C   UNL     1      -3.818   2.907  24.135  0.00  0.00    +0.130 C 
ATOM     14  C   UNL     1      -1.413   2.168  24.262  0.00  0.00    +0.035 A 
ATOM     15  C   UNL     1      -0.194   2.263  24.856  0.00  0.00    +0.009 A 
ATOM     16  C   UNL     1      -2.428   3.591  26.008  0.00  0.00    +0.252 A 
ATOM     17  C   UNL     1      -0.065   3.024  26.087  0.00  0.00    +0.016 A 
ATOM     18  C   UNL     1      -1.098   3.643  26.655  0.00  0.00    +0.071 A 
ENDROOT
BRANCH  15  19
ATOM      2  S   UNL     1       1.040  -0.093  24.302  0.00  0.00    -0.088 S 
ATOM     19  C   UNL     1       0.955   1.608  24.290  0.00  0.00    +0.022 A 
ATOM     21  C   UNL     1       2.062   2.177  23.707  0.00  0.00    +0.024 A 
ATOM     22  C   UNL     1       3.014   1.204  23.252  0.00  0.00    -0.010 A 
ATOM     23  C   UNL     1       2.576  -0.097  23.518  0.00  0.00    +0.020 A 
ATOM     24  C   UNL     1       4.264   1.371  22.608  0.00  0.00    +0.009 A 
ATOM     25  C   UNL     1       3.346  -1.221  23.161  0.00  0.00    +0.015 A 
ATOM     26  C   UNL     1       5.030   0.257  22.252  0.00  0.00    +0.001 A 
ATOM     27  C   UNL     1       4.574  -1.024  22.528  0.00  0.00    +0.001 A 
ENDBRANCH  15  19
BRANCH   6   1
ATOM      1  S   UNL     1      -3.804  -1.579  24.855  0.00  0.00    +0.029 S 
ATOM      3  O   UNL     1      -4.839  -2.215  24.071  0.00  0.00    -0.158 OA
ATOM      4  O   UNL     1      -3.956  -1.354  26.276  0.00  0.00    -0.158 OA
ATOM     20  C   UNL     1      -2.295  -2.478  24.602  0.00  0.00    +0.215 C 
ENDBRANCH   6   1
TORSDOF 2
ENDMDL
MODEL 2
REMARK VINA RESULT:       8.0      2.933      3.979
REMARK  Name = 7144173
REMARK  3 active torsions:
REMARK  status: ('A' for Active; 'I' for Inactive)
REMARK    1  A    between atoms: S_1  and  N_6
REMARK    2  A    between atoms: S_1  and  C_20
REMARK    3  A    between atoms: C_15  and  C_19
REMARK                            x       y       z     vdW  Elec       q    Type
REMARK                         _______ _______ _______ _____ _____    ______ ____
ROOT
ATOM      5  O   UNL     1      -5.529   3.963  24.151  0.00  0.00    -0.268 OA
ATOM      6  N   UNL     1      -2.809  -0.167  24.219  0.00  0.00    -0.180 NA
ATOM      7  N   UNL     1      -3.438   2.915  24.288  0.00  0.00    -0.311 N 
ATOM      8  C   UNL     1      -2.537   1.474  22.366  0.00  0.00    +0.025 C 
ATOM      9  C   UNL     1      -1.220   1.738  24.422  0.00  0.00    +0.053 C 
ATOM     10  C   UNL     1      -1.172   1.872  22.902  0.00  0.00    +0.017 C 
ATOM     11  C   UNL     1      -2.870   0.022  22.744  0.00  0.00    +0.114 C 
ATOM     12  C   UNL     1      -1.505   0.270  24.797  0.00  0.00    +0.118 C 
ATOM     13  C   UNL     1      -3.575   2.463  22.896  0.00  0.00    +0.130 C 
ATOM     14  C   UNL     1      -2.270   2.671  25.040  0.00  0.00    +0.035 A 
ATOM     15  C   UNL     1      -2.125   3.239  26.267  0.00  0.00    +0.009 A 
ATOM     16  C   UNL     1      -4.496   3.706  24.771  0.00  0.00    +0.252 A 
ATOM     17  C   UNL     1      -3.202   4.055  26.799  0.00  0.00    +0.016 A 
ATOM     18  C   UNL     1      -4.329   4.278  26.125  0.00  0.00    +0.071 A 
ENDROOT
BRANCH  15  19
ATOM      2  S   UNL     1       0.591   3.165  26.291  0.00  0.00    -0.088 S 
ATOM     19  C   UNL     1      -0.932   3.026  27.042  0.00  0.00    +0.022 A 
ATOM     21  C   UNL     1      -0.824   2.707  28.375  0.00  0.00    +0.024 A 
ATOM     22  C   UNL     1       0.539   2.571  28.806  0.00  0.00    -0.010 A 
ATOM     23  C   UNL     1       1.429   2.798  27.752  0.00  0.00    +0.020 A 
ATOM     24  C   UNL     1       1.073   2.256  30.079  0.00  0.00    +0.009 A 
ATOM     25  C   UNL     1       2.824   2.719  27.937  0.00  0.00    +0.015 A 
ATOM     26  C   UNL     1       2.456   2.178  30.265  0.00  0.00    +0.001 A 
ATOM     27  C   UNL     1       3.320   2.407  29.203  0.00  0.00    +0.001 A 
ENDBRANCH  15  19
BRANCH   6   1
ATOM      1  S   UNL     1      -3.414  -1.658  24.801  0.00  0.00    +0.029 S 
ATOM      3  O   UNL     1      -4.449  -2.124  23.904  0.00  0.00    -0.158 OA
ATOM      4  O   UNL     1      -3.637  -1.548  26.227  0.00  0.00    -0.158 OA
ATOM     20  C   UNL     1      -1.976  -2.667  24.549  0.00  0.00    +0.215 C 
ENDBRANCH   6   1
TORSDOF 2
ENDMDL
MODEL 3
REMARK VINA RESULT:       9.4      2.266      4.386
REMARK  Name = 7144173
REMARK  3 active torsions:
REMARK  status: ('A' for Active; 'I' for Inactive)
REMARK    1  A    between atoms: S_1  and  N_6
REMARK    2  A    between atoms: S_1  and  C_20
REMARK    3  A    between atoms: C_15  and  C_19
REMARK                            x       y       z     vdW  Elec       q    Type
REMARK                         _______ _______ _______ _____ _____    ______ ____
ROOT
ATOM      5  O   UNL     1      -4.186  -3.270  24.308  0.00  0.00    -0.268 OA
ATOM      6  N   UNL     1      -2.806   1.478  24.313  0.00  0.00    -0.180 NA
ATOM      7  N   UNL     1      -2.612  -1.618  24.839  0.00  0.00    -0.311 N 
ATOM      8  C   UNL     1      -3.170   0.284  26.468  0.00  0.00    +0.025 C 
ATOM      9  C   UNL     1      -0.964   0.198  25.393  0.00  0.00    +0.053 C 
ATOM     10  C   UNL     1      -1.675   0.293  26.740  0.00  0.00    +0.017 C 
ATOM     11  C   UNL     1      -3.572   1.479  25.590  0.00  0.00    +0.114 C 
ATOM     12  C   UNL     1      -1.331   1.424  24.534  0.00  0.00    +0.118 C 
ATOM     13  C   UNL     1      -3.541  -1.055  25.830  0.00  0.00    +0.130 C 
ATOM     14  C   UNL     1      -1.312  -1.104  24.658  0.00  0.00    +0.035 A 
ATOM     15  C   UNL     1      -0.436  -1.751  23.844  0.00  0.00    +0.009 A 
ATOM     16  C   UNL     1      -3.068  -2.772  24.176  0.00  0.00    +0.252 A 
ATOM     17  C   UNL     1      -0.876  -2.941  23.138  0.00  0.00    +0.016 A 
ATOM     18  C   UNL     1      -2.108  -3.432  23.264  0.00  0.00    +0.071 A 
ENDROOT
BRANCH  15  19
ATOM      2  S   UNL     1       1.162   0.160  22.760  0.00  0.00    -0.088 S 
ATOM     19  C   UNL     1       0.904  -1.261  23.664  0.00  0.00    +0.022 A 
ATOM     21  C   UNL     1       2.080  -1.794  24.136  0.00  0.00    +0.024 A 
ATOM     22  C   UNL     1       3.232  -1.027  23.755  0.00  0.00    -0.010 A 
ATOM     23  C   UNL     1       2.870   0.085  22.989  0.00  0.00    +0.020 A 
ATOM     24  C   UNL     1       4.606  -1.231  24.033  0.00  0.00    +0.009 A 
ATOM     25  C   UNL     1       3.835   0.987  22.498  0.00  0.00    +0.015 A 
ATOM     26  C   UNL     1       5.565  -0.337  23.548  0.00  0.00    +0.001 A 
ATOM     27  C   UNL     1       5.181   0.759  22.789  0.00  0.00    +0.001 A 
ENDBRANCH  15  19
BRANCH   6   1
ATOM      1  S   UNL     1      -3.337   2.593  23.128  0.00  0.00    +0.029 S 
ATOM      3  O   UNL     1      -4.777   2.709  23.208  0.00  0.00    -0.158 OA
ATOM      4  O   UNL     1      -2.666   2.302  21.879  0.00  0.00    -0.158 OA
ATOM     20  C   UNL     1      -2.630   4.077  23.796  0.00  0.00    +0.215 C 
ENDBRANCH   6   1
TORSDOF 2
ENDMDL
MODEL 4
REMARK VINA RESULT:      10.5      3.341      4.877
REMARK  Name = 7144173
REMARK  3 active torsions:
REMARK  status: ('A' for Active; 'I' for Inactive)
REMARK    1  A    between atoms: S_1  and  N_6
REMARK    2  A    between atoms: S_1  and  C_20
REMARK    3  A    between atoms: C_15  and  C_19
REMARK                            x       y       z     vdW  Elec       q    Type
REMARK                         _______ _______ _______ _____ _____    ______ ____
ROOT
ATOM      5  O   UNL     1      -0.013   5.018  25.751  0.00  0.00    -0.268 OA
ATOM      6  N   UNL     1      -4.620   3.470  24.839  0.00  0.00    -0.180 NA
ATOM      7  N   UNL     1      -1.487   3.615  24.590  0.00  0.00    -0.311 N 
ATOM      8  C   UNL     1      -3.295   4.567  23.039  0.00  0.00    +0.025 C 
ATOM      9  C   UNL     1      -3.116   2.140  23.367  0.00  0.00    +0.053 C 
ATOM     10  C   UNL     1      -3.162   3.241  22.310  0.00  0.00    +0.017 C 
ATOM     11  C   UNL     1      -4.583   4.604  23.876  0.00  0.00    +0.114 C 
ATOM     12  C   UNL     1      -4.431   2.149  24.171  0.00  0.00    +0.118 C 
ATOM     13  C   UNL     1      -2.044   4.782  23.891  0.00  0.00    +0.130 C 
ATOM     14  C   UNL     1      -1.907   2.301  24.299  0.00  0.00    +0.035 A 
ATOM     15  C   UNL     1      -1.257   1.244  24.857  0.00  0.00    +0.009 A 
ATOM     16  C   UNL     1      -0.429   3.892  25.474  0.00  0.00    +0.252 A 
ATOM     17  C   UNL     1      -0.165   1.495  25.780  0.00  0.00    +0.016 A 
ATOM     18  C   UNL     1       0.234   2.726  26.098  0.00  0.00    +0.071 A 
ENDROOT
BRANCH  15  19
ATOM      2  S   UNL     1      -0.504  -1.187  23.906  0.00  0.00    -0.088 S 
ATOM     19  C   UNL     1      -1.650  -0.106  24.555  0.00  0.00    +0.022 A 
ATOM     21  C   UNL     1      -2.882  -0.695  24.718  0.00  0.00    +0.024 A 
ATOM     22  C   UNL     1      -2.901  -2.069  24.305  0.00  0.00    -0.010 A 
ATOM     23  C   UNL     1      -1.649  -2.474  23.833  0.00  0.00    +0.020 A 
ATOM     24  C   UNL     1      -3.954  -3.017  24.310  0.00  0.00    +0.009 A 
ATOM     25  C   UNL     1      -1.426  -3.787  23.371  0.00  0.00    +0.015 A 
ATOM     26  C   UNL     1      -3.735  -4.318  23.852  0.00  0.00    +0.001 A 
ATOM     27  C   UNL     1      -2.484  -4.697  23.388  0.00  0.00    +0.001 A 
ENDBRANCH  15  19
BRANCH   6   1
ATOM      1  S   UNL     1      -5.863   3.534  26.014  0.00  0.00    +0.029 S 
ATOM      3  O   UNL     1      -6.597   4.770  25.849  0.00  0.00    -0.158 OA
ATOM      4  O   UNL     1      -5.316   3.140  27.294  0.00  0.00    -0.158 OA
ATOM     20  C   UNL     1      -6.883   2.208  25.423  0.00  0.00    +0.215 C 
ENDBRANCH   6   1
TORSDOF 2
ENDMDL
