MODEL 1
REMARK VINA RESULT:       0.3      0.000      0.000
REMARK  Name = 26763051
REMARK  9 active torsions:
REMARK  status: ('A' for Active; 'I' for Inactive)
REMARK    1  A    between atoms: N_6  and  C_11
REMARK    2  A    between atoms: N_7  and  C_20
REMARK    3  A    between atoms: N_7  and  C_21
REMARK    4  A    between atoms: N_8  and  C_22
REMARK    5  A    between atoms: C_10  and  C_15
REMARK    6  A    between atoms: C_15  and  C_17
REMARK    7  A    between atoms: C_17  and  C_19
REMARK    8  A    between atoms: C_20  and  C_23
REMARK    9  A    between atoms: C_21  and  C_24
REMARK                            x       y       z     vdW  Elec       q    Type
REMARK                         _______ _______ _______ _____ _____    ______ ____
ROOT
ATOM      1  O   UNL     1      -3.967  -1.629  25.454  0.00  0.00    -0.274 OA
ATOM      4  N   UNL     1      -3.511   1.618  24.131  0.00  0.00    -0.285 NA
ATOM      5  N   UNL     1      -5.071   0.319  25.963  0.00  0.00    -0.313 N 
ATOM      9  C   UNL     1      -3.775   0.195  23.902  0.00  0.00    +0.145 C 
ATOM     10  C   UNL     1      -4.756   2.313  24.465  0.00  0.00    +0.075 C 
ATOM     11  C   UNL     1      -1.855   0.915  22.637  0.00  0.00    +0.090 C 
ATOM     12  C   UNL     1      -2.444  -0.303  23.358  0.00  0.00    +0.052 C 
ATOM     13  C   UNL     1      -2.830   2.064  22.915  0.00  0.00    +0.107 C 
ATOM     14  C   UNL     1      -5.224   1.759  25.817  0.00  0.00    +0.123 C 
ATOM     16  C   UNL     1      -4.234  -0.458  25.185  0.00  0.00    +0.230 C 
ATOM     30  H   UNL     1      -5.462  -0.108  26.797  0.00  0.00    +0.149 HD
ENDROOT
BRANCH  11   6
ATOM      2  O   UNL     1       0.504  -0.657  22.220  0.00  0.00    -0.253 OA
ATOM      6  N   UNL     1      -0.527   1.211  23.114  0.00  0.00    -0.295 N 
ATOM      8  N   UNL     1       1.728   0.925  23.450  0.00  0.00    -0.269 N 
ATOM     18  C   UNL     1       0.578   0.387  22.866  0.00  0.00    +0.304 C 
ATOM     31  H   UNL     1      -0.400   2.017  23.720  0.00  0.00    +0.151 HD
ATOM     32  H   UNL     1       1.617   1.802  23.953  0.00  0.00    +0.156 HD
BRANCH   8  22
ATOM     22  C   UNL     1       3.041   0.399  23.428  0.00  0.00    +0.035 A 
ATOM     25  C   UNL     1       4.112   1.211  23.056  0.00  0.00    +0.023 A 
ATOM     26  C   UNL     1       3.264  -0.933  23.779  0.00  0.00    +0.023 A 
ATOM     27  C   UNL     1       5.406   0.692  23.035  0.00  0.00    +0.002 A 
ATOM     28  C   UNL     1       4.558  -1.452  23.756  0.00  0.00    +0.002 A 
ATOM     29  C   UNL     1       5.630  -0.639  23.385  0.00  0.00    +0.000 A 
ENDBRANCH   8  22
ENDBRANCH  11   6
BRANCH  10  15
ATOM     15  C   UNL     1      -4.589   3.831  24.563  0.00  0.00    +0.029 C 
BRANCH  15  17
ATOM     17  C   UNL     1      -3.683   4.211  25.729  0.00  0.00    +0.097 C 
BRANCH  17  19
ATOM      3  O   UNL     1      -2.330   5.927  24.744  0.00  0.00    -0.276 OA
ATOM      7  N   UNL     1      -1.224   4.017  25.456  0.00  0.00    -0.302 N 
ATOM     19  C   UNL     1      -2.362   4.808  25.261  0.00  0.00    +0.216 C 
BRANCH   7  20
ATOM     20  C   UNL     1      -1.212   2.688  26.062  0.00  0.00    +0.104 C 
ATOM     23  C   UNL     1       0.182   2.287  26.498  0.00  0.00    +0.024 C 
ENDBRANCH   7  20
BRANCH   7  21
ATOM     21  C   UNL     1       0.077   4.513  25.026  0.00  0.00    +0.104 C 
ATOM     24  C   UNL     1       0.158   4.623  23.518  0.00  0.00    +0.024 C 
ENDBRANCH   7  21
ENDBRANCH  17  19
ENDBRANCH  15  17
ENDBRANCH  10  15
TORSDOF 7
ENDMDL
MODEL 2
REMARK VINA RESULT:       2.4      1.955      4.358
REMARK  Name = 26763051
REMARK  9 active torsions:
REMARK  status: ('A' for Active; 'I' for Inactive)
REMARK    1  A    between atoms: N_6  and  C_11
REMARK    2  A    between atoms: N_7  and  C_20
REMARK    3  A    between atoms: N_7  and  C_21
REMARK    4  A    between atoms: N_8  and  C_22
REMARK    5  A    between atoms: C_10  and  C_15
REMARK    6  A    between atoms: C_15  and  C_17
REMARK    7  A    between atoms: C_17  and  C_19
REMARK    8  A    between atoms: C_20  and  C_23
REMARK    9  A    between atoms: C_21  and  C_24
REMARK                            x       y       z     vdW  Elec       q    Type
REMARK                         _______ _______ _______ _____ _____    ______ ____
ROOT
ATOM      1  O   UNL     1      -4.249   5.737  23.492  0.00  0.00    -0.274 OA
ATOM      4  N   UNL     1      -3.242   2.742  25.080  0.00  0.00    -0.285 NA
ATOM      5  N   UNL     1      -5.495   3.887  24.037  0.00  0.00    -0.313 N 
ATOM      9  C   UNL     1      -3.322   4.205  25.095  0.00  0.00    +0.145 C 
ATOM     10  C   UNL     1      -4.494   2.165  25.571  0.00  0.00    +0.075 C 
ATOM     11  C   UNL     1      -1.040   3.479  25.356  0.00  0.00    +0.090 C 
ATOM     12  C   UNL     1      -1.891   4.616  24.781  0.00  0.00    +0.052 C 
ATOM     13  C   UNL     1      -2.042   2.434  25.858  0.00  0.00    +0.107 C 
ATOM     14  C   UNL     1      -5.580   2.527  24.549  0.00  0.00    +0.123 C 
ATOM     16  C   UNL     1      -4.363   4.676  24.105  0.00  0.00    +0.230 C 
ATOM     30  H   UNL     1      -6.251   4.207  23.440  0.00  0.00    +0.149 HD
ENDROOT
BRANCH  11   6
ATOM      2  O   UNL     1       1.127   1.658  25.800  0.00  0.00    -0.253 OA
ATOM      6  N   UNL     1      -0.152   2.937  24.358  0.00  0.00    -0.295 N 
ATOM      8  N   UNL     1       1.576   1.693  23.495  0.00  0.00    -0.269 N 
ATOM     18  C   UNL     1       0.887   2.047  24.658  0.00  0.00    +0.304 C 
ATOM     31  H   UNL     1      -0.239   3.270  23.402  0.00  0.00    +0.151 HD
ATOM     32  H   UNL     1       1.248   2.107  22.626  0.00  0.00    +0.156 HD
BRANCH   8  22
ATOM     22  C   UNL     1       2.684   0.822  23.373  0.00  0.00    +0.035 A 
ATOM     25  C   UNL     1       2.506  -0.556  23.499  0.00  0.00    +0.023 A 
ATOM     26  C   UNL     1       3.955   1.340  23.127  0.00  0.00    +0.023 A 
ATOM     27  C   UNL     1       3.597  -1.415  23.379  0.00  0.00    +0.002 A 
ATOM     28  C   UNL     1       5.048   0.482  23.008  0.00  0.00    +0.002 A 
ATOM     29  C   UNL     1       4.869  -0.897  23.133  0.00  0.00    +0.000 A 
ENDBRANCH   8  22
ENDBRANCH  11   6
BRANCH  10  15
ATOM     15  C   UNL     1      -4.431   0.644  25.734  0.00  0.00    +0.029 C 
BRANCH  15  17
ATOM     17  C   UNL     1      -4.220  -0.045  24.392  0.00  0.00    +0.097 C 
BRANCH  17  19
ATOM      3  O   UNL     1      -1.936   0.342  23.775  0.00  0.00    -0.276 OA
ATOM      7  N   UNL     1      -2.470  -1.803  24.477  0.00  0.00    -0.302 N 
ATOM     19  C   UNL     1      -2.772  -0.468  24.182  0.00  0.00    +0.216 C 
BRANCH   7  20
ATOM     20  C   UNL     1      -3.424  -2.798  24.960  0.00  0.00    +0.104 C 
ATOM     23  C   UNL     1      -4.329  -3.286  23.848  0.00  0.00    +0.024 C 
ENDBRANCH   7  20
BRANCH   7  21
ATOM     21  C   UNL     1      -1.108  -2.288  24.293  0.00  0.00    +0.104 C 
ATOM     24  C   UNL     1      -0.222  -1.909  25.461  0.00  0.00    +0.024 C 
ENDBRANCH   7  21
ENDBRANCH  17  19
ENDBRANCH  15  17
ENDBRANCH  10  15
TORSDOF 7
ENDMDL
MODEL 3
REMARK VINA RESULT:       2.5      2.767      4.012
REMARK  Name = 26763051
REMARK  9 active torsions:
REMARK  status: ('A' for Active; 'I' for Inactive)
REMARK    1  A    between atoms: N_6  and  C_11
REMARK    2  A    between atoms: N_7  and  C_20
REMARK    3  A    between atoms: N_7  and  C_21
REMARK    4  A    between atoms: N_8  and  C_22
REMARK    5  A    between atoms: C_10  and  C_15
REMARK    6  A    between atoms: C_15  and  C_17
REMARK    7  A    between atoms: C_17  and  C_19
REMARK    8  A    between atoms: C_20  and  C_23
REMARK    9  A    between atoms: C_21  and  C_24
REMARK                            x       y       z     vdW  Elec       q    Type
REMARK                         _______ _______ _______ _____ _____    ______ ____
ROOT
ATOM      1  O   UNL     1      -1.275  -2.914  24.889  0.00  0.00    -0.274 OA
ATOM      4  N   UNL     1      -2.651   0.244  24.088  0.00  0.00    -0.285 NA
ATOM      5  N   UNL     1      -3.439  -2.174  25.093  0.00  0.00    -0.313 N 
ATOM      9  C   UNL     1      -1.894  -0.938  23.668  0.00  0.00    +0.145 C 
ATOM     10  C   UNL     1      -4.088  -0.014  23.982  0.00  0.00    +0.075 C 
ATOM     11  C   UNL     1      -0.617   1.067  23.278  0.00  0.00    +0.090 C 
ATOM     12  C   UNL     1      -0.465  -0.417  23.628  0.00  0.00    +0.052 C 
ATOM     13  C   UNL     1      -2.127   1.328  23.257  0.00  0.00    +0.107 C 
ATOM     14  C   UNL     1      -4.420  -1.102  25.012  0.00  0.00    +0.123 C 
ATOM     16  C   UNL     1      -2.141  -2.078  24.630  0.00  0.00    +0.230 C 
ATOM     30  H   UNL     1      -3.667  -2.968  25.683  0.00  0.00    +0.149 HD
ENDROOT
BRANCH  11   6
ATOM      2  O   UNL     1      -0.336   0.559  26.083  0.00  0.00    -0.253 OA
ATOM      6  N   UNL     1       0.058   1.901  24.241  0.00  0.00    -0.295 N 
ATOM      8  N   UNL     1       0.860   2.570  26.287  0.00  0.00    -0.269 N 
ATOM     18  C   UNL     1       0.152   1.579  25.601  0.00  0.00    +0.304 C 
ATOM     31  H   UNL     1       0.421   2.798  23.932  0.00  0.00    +0.151 HD
ATOM     32  H   UNL     1       1.198   3.354  25.736  0.00  0.00    +0.156 HD
BRANCH   8  22
ATOM     22  C   UNL     1       1.169   2.617  27.667  0.00  0.00    +0.035 A 
ATOM     25  C   UNL     1       0.158   2.466  28.615  0.00  0.00    +0.023 A 
ATOM     26  C   UNL     1       2.487   2.816  28.080  0.00  0.00    +0.023 A 
ATOM     27  C   UNL     1       0.463   2.512  29.975  0.00  0.00    +0.002 A 
ATOM     28  C   UNL     1       2.792   2.864  29.440  0.00  0.00    +0.002 A 
ATOM     29  C   UNL     1       1.780   2.711  30.388  0.00  0.00    +0.000 A 
ENDBRANCH   8  22
ENDBRANCH  11   6
BRANCH  10  15
ATOM     15  C   UNL     1      -4.942   1.226  24.252  0.00  0.00    +0.029 C 
BRANCH  15  17
ATOM     17  C   UNL     1      -4.284   2.134  25.284  0.00  0.00    +0.097 C 
BRANCH  17  19
ATOM      3  O   UNL     1      -4.113   3.769  23.540  0.00  0.00    -0.276 OA
ATOM      7  N   UNL     1      -2.837   4.145  25.440  0.00  0.00    -0.302 N 
ATOM     19  C   UNL     1      -3.748   3.418  24.664  0.00  0.00    +0.216 C 
BRANCH   7  20
ATOM     20  C   UNL     1      -2.375   3.769  26.774  0.00  0.00    +0.104 C 
ATOM     23  C   UNL     1      -3.345   4.219  27.847  0.00  0.00    +0.024 C 
ENDBRANCH   7  20
BRANCH   7  21
ATOM     21  C   UNL     1      -2.271   5.380  24.913  0.00  0.00    +0.104 C 
ATOM     24  C   UNL     1      -0.782   5.247  24.669  0.00  0.00    +0.024 C 
ENDBRANCH   7  21
ENDBRANCH  17  19
ENDBRANCH  15  17
ENDBRANCH  10  15
TORSDOF 7
ENDMDL
MODEL 4
REMARK VINA RESULT:       2.6      2.049      4.369
REMARK  Name = 26763051
REMARK  9 active torsions:
REMARK  status: ('A' for Active; 'I' for Inactive)
REMARK    1  A    between atoms: N_6  and  C_11
REMARK    2  A    between atoms: N_7  and  C_20
REMARK    3  A    between atoms: N_7  and  C_21
REMARK    4  A    between atoms: N_8  and  C_22
REMARK    5  A    between atoms: C_10  and  C_15
REMARK    6  A    between atoms: C_15  and  C_17
REMARK    7  A    between atoms: C_17  and  C_19
REMARK    8  A    between atoms: C_20  and  C_23
REMARK    9  A    between atoms: C_21  and  C_24
REMARK                            x       y       z     vdW  Elec       q    Type
REMARK                         _______ _______ _______ _____ _____    ______ ____
ROOT
ATOM      1  O   UNL     1      -5.329   5.527  24.637  0.00  0.00    -0.274 OA
ATOM      4  N   UNL     1      -3.845   2.444  25.532  0.00  0.00    -0.285 NA
ATOM      5  N   UNL     1      -6.268   3.435  24.741  0.00  0.00    -0.313 N 
ATOM      9  C   UNL     1      -4.146   3.838  25.871  0.00  0.00    +0.145 C 
ATOM     10  C   UNL     1      -4.985   1.588  25.865  0.00  0.00    +0.075 C 
ATOM     11  C   UNL     1      -1.775   3.429  25.994  0.00  0.00    +0.090 C 
ATOM     12  C   UNL     1      -2.801   4.522  25.675  0.00  0.00    +0.052 C 
ATOM     13  C   UNL     1      -2.596   2.158  26.237  0.00  0.00    +0.107 C 
ATOM     14  C   UNL     1      -6.135   1.998  24.935  0.00  0.00    +0.123 C 
ATOM     16  C   UNL     1      -5.267   4.352  24.997  0.00  0.00    +0.230 C 
ATOM     30  H   UNL     1      -7.077   3.760  24.220  0.00  0.00    +0.149 HD
ENDROOT
BRANCH  11   6
ATOM      2  O   UNL     1       0.091   1.281  25.659  0.00  0.00    -0.253 OA
ATOM      6  N   UNL     1      -0.837   3.263  24.911  0.00  0.00    -0.295 N 
ATOM      8  N   UNL     1       0.830   2.286  23.670  0.00  0.00    -0.269 N 
ATOM     18  C   UNL     1       0.046   2.179  24.821  0.00  0.00    +0.304 C 
ATOM     31  H   UNL     1      -0.763   4.004  24.220  0.00  0.00    +0.151 HD
ATOM     32  H   UNL     1       0.665   3.097  23.078  0.00  0.00    +0.156 HD
BRANCH   8  22
ATOM     22  C   UNL     1       1.836   1.399  23.219  0.00  0.00    +0.035 A 
ATOM     25  C   UNL     1       3.167   1.812  23.185  0.00  0.00    +0.023 A 
ATOM     26  C   UNL     1       1.495   0.109  22.809  0.00  0.00    +0.023 A 
ATOM     27  C   UNL     1       4.158   0.937  22.742  0.00  0.00    +0.002 A 
ATOM     28  C   UNL     1       2.486  -0.765  22.364  0.00  0.00    +0.002 A 
ATOM     29  C   UNL     1       3.818  -0.352  22.331  0.00  0.00    +0.000 A 
ENDBRANCH   8  22
ENDBRANCH  11   6
BRANCH  10  15
ATOM     15  C   UNL     1      -4.689   0.097  25.687  0.00  0.00    +0.029 C 
BRANCH  15  17
ATOM     17  C   UNL     1      -4.363  -0.229  24.234  0.00  0.00    +0.097 C 
BRANCH  17  19
ATOM      3  O   UNL     1      -2.132   0.381  23.605  0.00  0.00    -0.276 OA
ATOM      7  N   UNL     1      -2.444  -1.800  24.330  0.00  0.00    -0.302 N 
ATOM     19  C   UNL     1      -2.880  -0.506  24.024  0.00  0.00    +0.216 C 
BRANCH   7  20
ATOM     20  C   UNL     1      -3.291  -2.882  24.826  0.00  0.00    +0.104 C 
ATOM     23  C   UNL     1      -4.312  -3.308  23.791  0.00  0.00    +0.024 C 
ENDBRANCH   7  20
BRANCH   7  21
ATOM     21  C   UNL     1      -1.041  -2.147  24.146  0.00  0.00    +0.104 C 
ATOM     24  C   UNL     1      -0.259  -2.001  25.435  0.00  0.00    +0.024 C 
ENDBRANCH   7  21
ENDBRANCH  17  19
ENDBRANCH  15  17
ENDBRANCH  10  15
TORSDOF 7
ENDMDL
MODEL 5
REMARK VINA RESULT:       3.4      1.945      4.748
REMARK  Name = 26763051
REMARK  9 active torsions:
REMARK  status: ('A' for Active; 'I' for Inactive)
REMARK    1  A    between atoms: N_6  and  C_11
REMARK    2  A    between atoms: N_7  and  C_20
REMARK    3  A    between atoms: N_7  and  C_21
REMARK    4  A    between atoms: N_8  and  C_22
REMARK    5  A    between atoms: C_10  and  C_15
REMARK    6  A    between atoms: C_15  and  C_17
REMARK    7  A    between atoms: C_17  and  C_19
REMARK    8  A    between atoms: C_20  and  C_23
REMARK    9  A    between atoms: C_21  and  C_24
REMARK                            x       y       z     vdW  Elec       q    Type
REMARK                         _______ _______ _______ _____ _____    ______ ____
ROOT
ATOM      1  O   UNL     1      -2.468   6.273  23.491  0.00  0.00    -0.274 OA
ATOM      4  N   UNL     1      -3.087   3.200  25.128  0.00  0.00    -0.285 NA
ATOM      5  N   UNL     1      -4.165   4.763  23.159  0.00  0.00    -0.313 N 
ATOM      9  C   UNL     1      -2.859   4.645  25.215  0.00  0.00    +0.145 C 
ATOM     10  C   UNL     1      -4.498   2.930  24.848  0.00  0.00    +0.075 C 
ATOM     11  C   UNL     1      -1.261   3.453  26.567  0.00  0.00    +0.090 C 
ATOM     12  C   UNL     1      -1.428   4.723  25.725  0.00  0.00    +0.052 C 
ATOM     13  C   UNL     1      -2.567   2.672  26.389  0.00  0.00    +0.107 C 
ATOM     14  C   UNL     1      -4.784   3.476  23.442  0.00  0.00    +0.123 C 
ATOM     16  C   UNL     1      -3.102   5.289  23.869  0.00  0.00    +0.230 C 
ATOM     30  H   UNL     1      -4.410   5.213  22.283  0.00  0.00    +0.149 HD
ENDROOT
BRANCH  11   6
ATOM      2  O   UNL     1      -0.748   2.480  23.922  0.00  0.00    -0.253 OA
ATOM      6  N   UNL     1      -0.116   2.690  26.137  0.00  0.00    -0.295 N 
ATOM      8  N   UNL     1       1.257   1.537  24.701  0.00  0.00    -0.269 N 
ATOM     18  C   UNL     1       0.061   2.250  24.819  0.00  0.00    +0.304 C 
ATOM     31  H   UNL     1       0.558   2.396  26.837  0.00  0.00    +0.151 HD
ATOM     32  H   UNL     1       1.815   1.437  25.545  0.00  0.00    +0.156 HD
BRANCH   8  22
ATOM     22  C   UNL     1       1.795   0.932  23.540  0.00  0.00    +0.035 A 
ATOM     25  C   UNL     1       0.996   0.110  22.747  0.00  0.00    +0.023 A 
ATOM     26  C   UNL     1       3.127   1.157  23.190  0.00  0.00    +0.023 A 
ATOM     27  C   UNL     1       1.526  -0.486  21.603  0.00  0.00    +0.002 A 
ATOM     28  C   UNL     1       3.658   0.560  22.048  0.00  0.00    +0.002 A 
ATOM     29  C   UNL     1       2.858  -0.261  21.254  0.00  0.00    +0.000 A 
ENDBRANCH   8  22
ENDBRANCH  11   6
BRANCH  10  15
ATOM     15  C   UNL     1      -4.846   1.440  24.899  0.00  0.00    +0.029 C 
BRANCH  15  17
ATOM     17  C   UNL     1      -3.901   0.624  24.023  0.00  0.00    +0.097 C 
BRANCH  17  19
ATOM      3  O   UNL     1      -4.960  -1.514  23.793  0.00  0.00    -0.276 OA
ATOM      7  N   UNL     1      -3.034  -1.445  25.085  0.00  0.00    -0.302 N 
ATOM     19  C   UNL     1      -4.026  -0.872  24.280  0.00  0.00    +0.216 C 
BRANCH   7  20
ATOM     20  C   UNL     1      -1.912  -0.726  25.683  0.00  0.00    +0.104 C 
ATOM     23  C   UNL     1      -0.602  -1.450  25.454  0.00  0.00    +0.024 C 
ENDBRANCH   7  20
BRANCH   7  21
ATOM     21  C   UNL     1      -3.088  -2.870  25.385  0.00  0.00    +0.104 C 
ATOM     24  C   UNL     1      -3.093  -3.704  24.122  0.00  0.00    +0.024 C 
ENDBRANCH   7  21
ENDBRANCH  17  19
ENDBRANCH  15  17
ENDBRANCH  10  15
TORSDOF 7
ENDMDL
