MODEL 1
REMARK VINA RESULT:       0.4      0.000      0.000
REMARK  Name = 26743195
REMARK  13 active torsions:
REMARK  status: ('A' for Active; 'I' for Inactive)
REMARK    1  A    between atoms: O_3  and  C_21
REMARK    2  A    between atoms: O_3  and  C_28
REMARK    3  A    between atoms: O_4  and  C_25
REMARK    4  A    between atoms: O_4  and  C_33
REMARK    5  A    between atoms: O_5  and  C_27
REMARK    6  A    between atoms: O_5  and  C_34
REMARK    7  A    between atoms: N_7  and  C_20
REMARK    8  A    between atoms: C_9  and  C_15
REMARK    9  A    between atoms: C_10  and  C_14
REMARK   10  A    between atoms: C_14  and  C_16
REMARK   11  A    between atoms: C_15  and  C_17
REMARK   12  A    between atoms: C_19  and  C_21
REMARK   13  A    between atoms: C_20  and  C_22
REMARK                            x       y       z     vdW  Elec       q    Type
REMARK                         _______ _______ _______ _____ _____    ______ ____
ROOT
ATOM      6  N   UNL     1      -0.207   5.428  24.110  0.00  0.00    -0.316 NA
ATOM      9  C   UNL     1      -2.596   4.823  25.734  0.00  0.00    +0.004 C 
ATOM     10  C   UNL     1      -1.423   3.827  25.568  0.00  0.00    +0.012 C 
ATOM     11  C   UNL     1      -2.078   6.251  25.497  0.00  0.00    +0.019 C 
ATOM     12  C   UNL     1      -0.673   4.047  24.243  0.00  0.00    +0.085 C 
ATOM     13  C   UNL     1      -1.311   6.383  24.182  0.00  0.00    +0.081 C 
ATOM     36  H   UNL     1       0.275   5.535  23.218  0.00  0.00    +0.122 HD
ENDROOT
BRANCH  10  14
ATOM     14  C   UNL     1      -1.853   2.366  25.707  0.00  0.00    +0.064 C 
BRANCH  14  16
ATOM      2  O   UNL     1      -1.177   0.521  22.689  0.00  0.00    -0.356 OA
ATOM      8  N   UNL     1      -1.982   1.333  23.481  0.00  0.00    -0.083 NA
ATOM     16  C   UNL     1      -1.283   1.520  24.604  0.00  0.00    +0.084 A 
ATOM     18  C   UNL     1      -0.044   0.858  24.580  0.00  0.00    +0.074 A 
ATOM     19  C   UNL     1      -0.026   0.245  23.355  0.00  0.00    +0.175 A 
BRANCH  19  21
ATOM     21  C   UNL     1       0.944  -0.607  22.659  0.00  0.00    +0.306 C 
BRANCH  21   3
ATOM      3  O   UNL     1       2.045   0.176  22.188  0.00  0.00    -0.484 OA
BRANCH   3  28
ATOM     28  C   UNL     1       3.247  -0.029  22.805  0.00  0.00    +0.121 A 
ATOM     29  C   UNL     1       3.537  -1.271  23.370  0.00  0.00    +0.045 A 
ATOM     30  C   UNL     1       4.182   1.004  22.872  0.00  0.00    +0.045 A 
ATOM     31  C   UNL     1       4.764  -1.480  24.000  0.00  0.00    +0.004 A 
ATOM     32  C   UNL     1       5.408   0.794  23.502  0.00  0.00    +0.004 A 
ATOM     35  C   UNL     1       5.699  -0.448  24.066  0.00  0.00    +0.000 A 
ENDBRANCH   3  28
ENDBRANCH  21   3
ENDBRANCH  19  21
ENDBRANCH  14  16
ENDBRANCH  10  14
BRANCH   9  15
ATOM     15  C   UNL     1      -3.800   4.522  24.835  0.00  0.00    +0.099 C 
BRANCH  15  17
ATOM      1  O   UNL     1      -5.028   3.320  26.538  0.00  0.00    -0.276 OA
ATOM      7  N   UNL     1      -4.925   2.457  24.383  0.00  0.00    -0.311 N 
ATOM     17  C   UNL     1      -4.648   3.388  25.373  0.00  0.00    +0.214 C 
ATOM     37  H   UNL     1      -4.553   2.591  23.448  0.00  0.00    +0.149 HD
BRANCH   7  20
ATOM     20  C   UNL     1      -5.714   1.269  24.616  0.00  0.00    +0.139 C 
BRANCH  20  22
ATOM     22  C   UNL     1      -4.865   0.033  24.678  0.00  0.00    -0.027 A 
ATOM     23  C   UNL     1      -4.044  -0.195  25.783  0.00  0.00    +0.054 A 
ATOM     24  C   UNL     1      -4.898  -0.890  23.632  0.00  0.00    +0.009 A 
ATOM     25  C   UNL     1      -3.257  -1.345  25.841  0.00  0.00    +0.162 A 
ATOM     26  C   UNL     1      -4.111  -2.039  23.690  0.00  0.00    +0.050 A 
ATOM     27  C   UNL     1      -3.289  -2.266  24.795  0.00  0.00    +0.162 A 
BRANCH  25   4
ATOM      4  O   UNL     1      -2.460  -1.557  26.926  0.00  0.00    -0.491 OA
ATOM     33  C   UNL     1      -1.160  -0.973  26.898  0.00  0.00    +0.277 C 
ENDBRANCH  25   4
BRANCH  27   5
ATOM      5  O   UNL     1      -2.526  -3.394  24.840  0.00  0.00    -0.491 OA
ATOM     34  C   UNL     1      -1.204  -3.303  24.311  0.00  0.00    +0.277 C 
ENDBRANCH  27   5
ENDBRANCH  20  22
ENDBRANCH   7  20
ENDBRANCH  15  17
ENDBRANCH   9  15
TORSDOF 11
ENDMDL
MODEL 2
REMARK VINA RESULT:       2.0      2.047      5.298
REMARK  Name = 26743195
REMARK  13 active torsions:
REMARK  status: ('A' for Active; 'I' for Inactive)
REMARK    1  A    between atoms: O_3  and  C_21
REMARK    2  A    between atoms: O_3  and  C_28
REMARK    3  A    between atoms: O_4  and  C_25
REMARK    4  A    between atoms: O_4  and  C_33
REMARK    5  A    between atoms: O_5  and  C_27
REMARK    6  A    between atoms: O_5  and  C_34
REMARK    7  A    between atoms: N_7  and  C_20
REMARK    8  A    between atoms: C_9  and  C_15
REMARK    9  A    between atoms: C_10  and  C_14
REMARK   10  A    between atoms: C_14  and  C_16
REMARK   11  A    between atoms: C_15  and  C_17
REMARK   12  A    between atoms: C_19  and  C_21
REMARK   13  A    between atoms: C_20  and  C_22
REMARK                            x       y       z     vdW  Elec       q    Type
REMARK                         _______ _______ _______ _____ _____    ______ ____
ROOT
ATOM      6  N   UNL     1      -3.552  -3.985  24.730  0.00  0.00    -0.316 NA
ATOM      9  C   UNL     1      -3.948  -1.166  23.951  0.00  0.00    +0.004 C 
ATOM     10  C   UNL     1      -2.815  -1.619  24.902  0.00  0.00    +0.012 C 
ATOM     11  C   UNL     1      -4.362  -2.352  23.063  0.00  0.00    +0.019 C 
ATOM     12  C   UNL     1      -3.186  -2.910  25.653  0.00  0.00    +0.085 C 
ATOM     13  C   UNL     1      -4.675  -3.608  23.875  0.00  0.00    +0.081 C 
ATOM     36  H   UNL     1      -3.798  -4.817  25.264  0.00  0.00    +0.122 HD
ENDROOT
BRANCH  10  14
ATOM     14  C   UNL     1      -2.387  -0.529  25.886  0.00  0.00    +0.064 C 
BRANCH  14  16
ATOM      2  O   UNL     1       0.229   1.859  25.242  0.00  0.00    -0.356 OA
ATOM      8  N   UNL     1      -0.827   1.365  25.999  0.00  0.00    -0.083 NA
ATOM     16  C   UNL     1      -1.241   0.276  25.345  0.00  0.00    +0.084 A 
ATOM     18  C   UNL     1      -0.493   0.035  24.181  0.00  0.00    +0.074 A 
ATOM     19  C   UNL     1       0.419   1.058  24.161  0.00  0.00    +0.175 A 
BRANCH  19  21
ATOM     21  C   UNL     1       1.502   1.437  23.247  0.00  0.00    +0.306 C 
BRANCH  21   3
ATOM      3  O   UNL     1       2.089   0.270  22.664  0.00  0.00    -0.484 OA
BRANCH   3  28
ATOM     28  C   UNL     1       3.342  -0.063  23.095  0.00  0.00    +0.121 A 
ATOM     29  C   UNL     1       4.367   0.883  23.055  0.00  0.00    +0.045 A 
ATOM     30  C   UNL     1       3.597  -1.348  23.574  0.00  0.00    +0.045 A 
ATOM     31  C   UNL     1       5.646   0.544  23.496  0.00  0.00    +0.004 A 
ATOM     32  C   UNL     1       4.876  -1.687  24.014  0.00  0.00    +0.004 A 
ATOM     35  C   UNL     1       5.901  -0.741  23.975  0.00  0.00    +0.000 A 
ENDBRANCH   3  28
ENDBRANCH  21   3
ENDBRANCH  19  21
ENDBRANCH  14  16
ENDBRANCH  10  14
BRANCH   9  15
ATOM     15  C   UNL     1      -5.165  -0.572  24.669  0.00  0.00    +0.099 C 
BRANCH  15  17
ATOM      1  O   UNL     1      -5.003   1.596  23.607  0.00  0.00    -0.276 OA
ATOM      7  N   UNL     1      -5.378   1.473  25.898  0.00  0.00    -0.311 N 
ATOM     17  C   UNL     1      -5.168   0.942  24.633  0.00  0.00    +0.214 C 
ATOM     37  H   UNL     1      -5.490   0.851  26.692  0.00  0.00    +0.149 HD
BRANCH   7  20
ATOM     20  C   UNL     1      -5.428   2.893  26.159  0.00  0.00    +0.139 C 
BRANCH  20  22
ATOM     22  C   UNL     1      -4.146   3.579  25.784  0.00  0.00    -0.027 A 
ATOM     23  C   UNL     1      -3.465   3.201  24.626  0.00  0.00    +0.054 A 
ATOM     24  C   UNL     1      -3.636   4.595  26.593  0.00  0.00    +0.009 A 
ATOM     25  C   UNL     1      -2.275   3.840  24.278  0.00  0.00    +0.162 A 
ATOM     26  C   UNL     1      -2.445   5.233  26.245  0.00  0.00    +0.050 A 
ATOM     27  C   UNL     1      -1.765   4.854  25.087  0.00  0.00    +0.162 A 
BRANCH  25   4
ATOM      4  O   UNL     1      -1.620   3.464  23.144  0.00  0.00    -0.491 OA
ATOM     33  C   UNL     1      -2.241   2.464  22.339  0.00  0.00    +0.277 C 
ENDBRANCH  25   4
BRANCH  27   5
ATOM      5  O   UNL     1      -0.604   5.486  24.757  0.00  0.00    -0.491 OA
ATOM     34  C   UNL     1       0.103   4.992  23.622  0.00  0.00    +0.277 C 
ENDBRANCH  27   5
ENDBRANCH  20  22
ENDBRANCH   7  20
ENDBRANCH  15  17
ENDBRANCH   9  15
TORSDOF 11
ENDMDL
MODEL 3
REMARK VINA RESULT:       2.6      1.398      2.129
REMARK  Name = 26743195
REMARK  13 active torsions:
REMARK  status: ('A' for Active; 'I' for Inactive)
REMARK    1  A    between atoms: O_3  and  C_21
REMARK    2  A    between atoms: O_3  and  C_28
REMARK    3  A    between atoms: O_4  and  C_25
REMARK    4  A    between atoms: O_4  and  C_33
REMARK    5  A    between atoms: O_5  and  C_27
REMARK    6  A    between atoms: O_5  and  C_34
REMARK    7  A    between atoms: N_7  and  C_20
REMARK    8  A    between atoms: C_9  and  C_15
REMARK    9  A    between atoms: C_10  and  C_14
REMARK   10  A    between atoms: C_14  and  C_16
REMARK   11  A    between atoms: C_15  and  C_17
REMARK   12  A    between atoms: C_19  and  C_21
REMARK   13  A    between atoms: C_20  and  C_22
REMARK                            x       y       z     vdW  Elec       q    Type
REMARK                         _______ _______ _______ _____ _____    ______ ____
ROOT
ATOM      6  N   UNL     1      -3.503   3.523  22.763  0.00  0.00    -0.316 NA
ATOM      9  C   UNL     1      -2.656   5.029  25.155  0.00  0.00    +0.004 C 
ATOM     10  C   UNL     1      -1.796   3.908  24.525  0.00  0.00    +0.012 C 
ATOM     11  C   UNL     1      -3.588   5.611  24.079  0.00  0.00    +0.019 C 
ATOM     12  C   UNL     1      -2.661   2.882  23.774  0.00  0.00    +0.085 C 
ATOM     13  C   UNL     1      -4.384   4.529  23.350  0.00  0.00    +0.081 C 
ATOM     36  H   UNL     1      -4.065   2.813  22.295  0.00  0.00    +0.122 HD
ENDROOT
BRANCH  10  14
ATOM     14  C   UNL     1      -0.888   3.208  25.537  0.00  0.00    +0.064 C 
BRANCH  14  16
ATOM      2  O   UNL     1      -0.160  -0.282  25.034  0.00  0.00    -0.356 OA
ATOM      8  N   UNL     1      -0.683   0.772  25.775  0.00  0.00    -0.083 NA
ATOM     16  C   UNL     1      -0.448   1.862  25.040  0.00  0.00    +0.084 A 
ATOM     18  C   UNL     1       0.214   1.563  23.837  0.00  0.00    +0.074 A 
ATOM     19  C   UNL     1       0.372   0.202  23.882  0.00  0.00    +0.175 A 
BRANCH  19  21
ATOM     21  C   UNL     1       0.973  -0.782  22.974  0.00  0.00    +0.306 C 
BRANCH  21   3
ATOM      3  O   UNL     1       2.043  -0.186  22.235  0.00  0.00    -0.484 OA
BRANCH   3  28
ATOM     28  C   UNL     1       3.272  -0.191  22.832  0.00  0.00    +0.121 A 
ATOM     29  C   UNL     1       3.739  -1.347  23.457  0.00  0.00    +0.045 A 
ATOM     30  C   UNL     1       4.059   0.960  22.818  0.00  0.00    +0.045 A 
ATOM     31  C   UNL     1       4.994  -1.353  24.066  0.00  0.00    +0.004 A 
ATOM     32  C   UNL     1       5.313   0.955  23.427  0.00  0.00    +0.004 A 
ATOM     35  C   UNL     1       5.781  -0.201  24.052  0.00  0.00    +0.000 A 
ENDBRANCH   3  28
ENDBRANCH  21   3
ENDBRANCH  19  21
ENDBRANCH  14  16
ENDBRANCH  10  14
BRANCH   9  15
ATOM     15  C   UNL     1      -3.454   4.584  26.386  0.00  0.00    +0.099 C 
BRANCH  15  17
ATOM      1  O   UNL     1      -5.782   4.178  25.867  0.00  0.00    -0.276 OA
ATOM      7  N   UNL     1      -4.287   2.398  25.875  0.00  0.00    -0.311 N 
ATOM     17  C   UNL     1      -4.649   3.730  26.016  0.00  0.00    +0.214 C 
ATOM     37  H   UNL     1      -3.325   2.119  26.034  0.00  0.00    +0.149 HD
BRANCH   7  20
ATOM     20  C   UNL     1      -5.228   1.358  25.527  0.00  0.00    +0.139 C 
BRANCH  20  22
ATOM     22  C   UNL     1      -4.546   0.047  25.267  0.00  0.00    -0.027 A 
ATOM     23  C   UNL     1      -4.838  -0.675  24.109  0.00  0.00    +0.054 A 
ATOM     24  C   UNL     1      -3.618  -0.451  26.183  0.00  0.00    +0.009 A 
ATOM     25  C   UNL     1      -4.202  -1.892  23.867  0.00  0.00    +0.162 A 
ATOM     26  C   UNL     1      -2.983  -1.669  25.942  0.00  0.00    +0.050 A 
ATOM     27  C   UNL     1      -3.276  -2.389  24.783  0.00  0.00    +0.162 A 
BRANCH  25   4
ATOM      4  O   UNL     1      -4.494  -2.587  22.732  0.00  0.00    -0.491 OA
ATOM     33  C   UNL     1      -5.450  -3.639  22.845  0.00  0.00    +0.277 C 
ENDBRANCH  25   4
BRANCH  27   5
ATOM      5  O   UNL     1      -2.647  -3.577  24.558  0.00  0.00    -0.491 OA
ATOM     34  C   UNL     1      -1.398  -3.530  23.872  0.00  0.00    +0.277 C 
ENDBRANCH  27   5
ENDBRANCH  20  22
ENDBRANCH   7  20
ENDBRANCH  15  17
ENDBRANCH   9  15
TORSDOF 11
ENDMDL
MODEL 4
REMARK VINA RESULT:       2.6      1.987      6.412
REMARK  Name = 26743195
REMARK  13 active torsions:
REMARK  status: ('A' for Active; 'I' for Inactive)
REMARK    1  A    between atoms: O_3  and  C_21
REMARK    2  A    between atoms: O_3  and  C_28
REMARK    3  A    between atoms: O_4  and  C_25
REMARK    4  A    between atoms: O_4  and  C_33
REMARK    5  A    between atoms: O_5  and  C_27
REMARK    6  A    between atoms: O_5  and  C_34
REMARK    7  A    between atoms: N_7  and  C_20
REMARK    8  A    between atoms: C_9  and  C_15
REMARK    9  A    between atoms: C_10  and  C_14
REMARK   10  A    between atoms: C_14  and  C_16
REMARK   11  A    between atoms: C_15  and  C_17
REMARK   12  A    between atoms: C_19  and  C_21
REMARK   13  A    between atoms: C_20  and  C_22
REMARK                            x       y       z     vdW  Elec       q    Type
REMARK                         _______ _______ _______ _____ _____    ______ ____
ROOT
ATOM      6  N   UNL     1       4.064   0.095  21.466  0.00  0.00    -0.316 NA
ATOM      9  C   UNL     1       2.246   0.846  23.665  0.00  0.00    +0.004 C 
ATOM     10  C   UNL     1       1.907  -0.264  22.642  0.00  0.00    +0.012 C 
ATOM     11  C   UNL     1       3.773   1.007  23.743  0.00  0.00    +0.019 C 
ATOM     12  C   UNL     1       2.616  -0.033  21.297  0.00  0.00    +0.085 C 
ATOM     13  C   UNL     1       4.411   1.192  22.367  0.00  0.00    +0.081 C 
ATOM     36  H   UNL     1       4.496   0.255  20.557  0.00  0.00    +0.122 HD
ENDROOT
BRANCH  10  14
ATOM     14  C   UNL     1       0.403  -0.447  22.432  0.00  0.00    +0.064 C 
BRANCH  14  16
ATOM      2  O   UNL     1      -1.726   0.518  25.170  0.00  0.00    -0.356 OA
ATOM      8  N   UNL     1      -1.212   0.693  23.890  0.00  0.00    -0.083 NA
ATOM     16  C   UNL     1      -0.351  -0.314  23.724  0.00  0.00    +0.084 A 
ATOM     18  C   UNL     1      -0.278  -1.148  24.852  0.00  0.00    +0.074 A 
ATOM     19  C   UNL     1      -1.162  -0.581  25.733  0.00  0.00    +0.175 A 
BRANCH  19  21
ATOM     21  C   UNL     1      -1.594  -0.915  27.095  0.00  0.00    +0.306 C 
BRANCH  21   3
ATOM      3  O   UNL     1      -2.937  -1.407  27.083  0.00  0.00    -0.484 OA
BRANCH   3  28
ATOM     28  C   UNL     1      -3.482  -1.661  25.855  0.00  0.00    +0.121 A 
ATOM     29  C   UNL     1      -3.333  -2.920  25.274  0.00  0.00    +0.045 A 
ATOM     30  C   UNL     1      -4.184  -0.660  25.183  0.00  0.00    +0.045 A 
ATOM     31  C   UNL     1      -3.889  -3.179  24.021  0.00  0.00    +0.004 A 
ATOM     32  C   UNL     1      -4.739  -0.919  23.931  0.00  0.00    +0.004 A 
ATOM     35  C   UNL     1      -4.591  -2.178  23.349  0.00  0.00    +0.000 A 
ENDBRANCH   3  28
ENDBRANCH  21   3
ENDBRANCH  19  21
ENDBRANCH  14  16
ENDBRANCH  10  14
BRANCH   9  15
ATOM     15  C   UNL     1       1.569   2.190  23.373  0.00  0.00    +0.099 C 
BRANCH  15  17
ATOM      1  O   UNL     1       0.870   2.212  25.689  0.00  0.00    -0.276 OA
ATOM      7  N   UNL     1       0.112   3.875  24.252  0.00  0.00    -0.311 N 
ATOM     17  C   UNL     1       0.829   2.732  24.578  0.00  0.00    +0.214 C 
ATOM     37  H   UNL     1       0.128   4.224  23.300  0.00  0.00    +0.149 HD
BRANCH   7  20
ATOM     20  C   UNL     1      -0.689   4.603  25.210  0.00  0.00    +0.139 C 
BRANCH  20  22
ATOM     22  C   UNL     1      -2.111   4.123  25.233  0.00  0.00    -0.027 A 
ATOM     23  C   UNL     1      -2.659   3.509  24.106  0.00  0.00    +0.054 A 
ATOM     24  C   UNL     1      -2.885   4.288  26.383  0.00  0.00    +0.009 A 
ATOM     25  C   UNL     1      -3.979   3.062  24.129  0.00  0.00    +0.162 A 
ATOM     26  C   UNL     1      -4.205   3.841  26.405  0.00  0.00    +0.050 A 
ATOM     27  C   UNL     1      -4.753   3.228  25.278  0.00  0.00    +0.162 A 
BRANCH  25   4
ATOM      4  O   UNL     1      -4.503   2.463  23.023  0.00  0.00    -0.491 OA
ATOM     33  C   UNL     1      -3.626   2.269  21.915  0.00  0.00    +0.277 C 
ENDBRANCH  25   4
BRANCH  27   5
ATOM      5  O   UNL     1      -6.044   2.794  25.313  0.00  0.00    -0.491 OA
ATOM     34  C   UNL     1      -6.407   1.925  26.383  0.00  0.00    +0.277 C 
ENDBRANCH  27   5
ENDBRANCH  20  22
ENDBRANCH   7  20
ENDBRANCH  15  17
ENDBRANCH   9  15
TORSDOF 11
ENDMDL
MODEL 5
REMARK VINA RESULT:       3.1      2.079      7.146
REMARK  Name = 26743195
REMARK  13 active torsions:
REMARK  status: ('A' for Active; 'I' for Inactive)
REMARK    1  A    between atoms: O_3  and  C_21
REMARK    2  A    between atoms: O_3  and  C_28
REMARK    3  A    between atoms: O_4  and  C_25
REMARK    4  A    between atoms: O_4  and  C_33
REMARK    5  A    between atoms: O_5  and  C_27
REMARK    6  A    between atoms: O_5  and  C_34
REMARK    7  A    between atoms: N_7  and  C_20
REMARK    8  A    between atoms: C_9  and  C_15
REMARK    9  A    between atoms: C_10  and  C_14
REMARK   10  A    between atoms: C_14  and  C_16
REMARK   11  A    between atoms: C_15  and  C_17
REMARK   12  A    between atoms: C_19  and  C_21
REMARK   13  A    between atoms: C_20  and  C_22
REMARK                            x       y       z     vdW  Elec       q    Type
REMARK                         _______ _______ _______ _____ _____    ______ ____
ROOT
ATOM      6  N   UNL     1      -2.827  -3.287  25.059  0.00  0.00    -0.316 NA
ATOM      9  C   UNL     1      -2.681  -0.357  24.740  0.00  0.00    +0.004 C 
ATOM     10  C   UNL     1      -4.009  -1.104  25.010  0.00  0.00    +0.012 C 
ATOM     11  C   UNL     1      -1.512  -1.206  25.267  0.00  0.00    +0.019 C 
ATOM     12  C   UNL     1      -3.961  -2.553  24.496  0.00  0.00    +0.085 C 
ATOM     13  C   UNL     1      -1.553  -2.643  24.746  0.00  0.00    +0.081 C 
ATOM     36  H   UNL     1      -2.825  -4.237  24.689  0.00  0.00    +0.122 HD
ENDROOT
BRANCH  10  14
ATOM     14  C   UNL     1      -5.231  -0.375  24.449  0.00  0.00    +0.064 C 
BRANCH  14  16
ATOM      2  O   UNL     1      -5.921   2.590  26.372  0.00  0.00    -0.356 OA
ATOM      8  N   UNL     1      -6.013   1.221  26.145  0.00  0.00    -0.083 NA
ATOM     16  C   UNL     1      -5.344   1.014  25.007  0.00  0.00    +0.084 A 
ATOM     18  C   UNL     1      -4.814   2.202  24.475  0.00  0.00    +0.074 A 
ATOM     19  C   UNL     1      -5.205   3.163  25.371  0.00  0.00    +0.175 A 
BRANCH  19  21
ATOM     21  C   UNL     1      -5.010   4.615  25.452  0.00  0.00    +0.306 C 
BRANCH  21   3
ATOM      3  O   UNL     1      -3.966   4.924  26.380  0.00  0.00    -0.484 OA
BRANCH   3  28
ATOM     28  C   UNL     1      -2.703   4.535  26.027  0.00  0.00    +0.121 A 
ATOM     29  C   UNL     1      -2.168   3.356  26.543  0.00  0.00    +0.045 A 
ATOM     30  C   UNL     1      -1.951   5.320  25.154  0.00  0.00    +0.045 A 
ATOM     31  C   UNL     1      -0.880   2.959  26.183  0.00  0.00    +0.004 A 
ATOM     32  C   UNL     1      -0.664   4.924  24.794  0.00  0.00    +0.004 A 
ATOM     35  C   UNL     1      -0.127   3.744  25.310  0.00  0.00    +0.000 A 
ENDBRANCH   3  28
ENDBRANCH  21   3
ENDBRANCH  19  21
ENDBRANCH  14  16
ENDBRANCH  10  14
BRANCH   9  15
ATOM     15  C   UNL     1      -2.464   0.017  23.269  0.00  0.00    +0.099 C 
BRANCH  15  17
ATOM      1  O   UNL     1      -1.996   2.357  22.872  0.00  0.00    -0.276 OA
ATOM      7  N   UNL     1      -0.236   0.893  23.275  0.00  0.00    -0.311 N 
ATOM     17  C   UNL     1      -1.572   1.231  23.112  0.00  0.00    +0.214 C 
ATOM     37  H   UNL     1       0.020  -0.071  23.458  0.00  0.00    +0.149 HD
BRANCH   7  20
ATOM     20  C   UNL     1       0.838   1.855  23.177  0.00  0.00    +0.139 C 
BRANCH  20  22
ATOM     22  C   UNL     1       2.185   1.194  23.160  0.00  0.00    -0.027 A 
ATOM     23  C   UNL     1       2.308  -0.149  23.518  0.00  0.00    +0.054 A 
ATOM     24  C   UNL     1       3.316   1.922  22.785  0.00  0.00    +0.009 A 
ATOM     25  C   UNL     1       3.560  -0.764  23.500  0.00  0.00    +0.162 A 
ATOM     26  C   UNL     1       4.567   1.307  22.769  0.00  0.00    +0.050 A 
ATOM     27  C   UNL     1       4.689  -0.036  23.127  0.00  0.00    +0.162 A 
BRANCH  25   4
ATOM      4  O   UNL     1       3.667  -2.076  23.850  0.00  0.00    -0.491 OA
ATOM     33  C   UNL     1       4.981  -2.627  23.904  0.00  0.00    +0.277 C 
ENDBRANCH  25   4
BRANCH  27   5
ATOM      5  O   UNL     1       5.917  -0.625  23.105  0.00  0.00    -0.491 OA
ATOM     34  C   UNL     1       7.027   0.175  23.508  0.00  0.00    +0.277 C 
ENDBRANCH  27   5
ENDBRANCH  20  22
ENDBRANCH   7  20
ENDBRANCH  15  17
ENDBRANCH   9  15
TORSDOF 11
ENDMDL
MODEL 6
REMARK VINA RESULT:       3.3      1.799      6.804
REMARK  Name = 26743195
REMARK  13 active torsions:
REMARK  status: ('A' for Active; 'I' for Inactive)
REMARK    1  A    between atoms: O_3  and  C_21
REMARK    2  A    between atoms: O_3  and  C_28
REMARK    3  A    between atoms: O_4  and  C_25
REMARK    4  A    between atoms: O_4  and  C_33
REMARK    5  A    between atoms: O_5  and  C_27
REMARK    6  A    between atoms: O_5  and  C_34
REMARK    7  A    between atoms: N_7  and  C_20
REMARK    8  A    between atoms: C_9  and  C_15
REMARK    9  A    between atoms: C_10  and  C_14
REMARK   10  A    between atoms: C_14  and  C_16
REMARK   11  A    between atoms: C_15  and  C_17
REMARK   12  A    between atoms: C_19  and  C_21
REMARK   13  A    between atoms: C_20  and  C_22
REMARK                            x       y       z     vdW  Elec       q    Type
REMARK                         _______ _______ _______ _____ _____    ______ ____
ROOT
ATOM      6  N   UNL     1      -0.462   3.060  27.035  0.00  0.00    -0.316 NA
ATOM      9  C   UNL     1      -0.775   3.433  24.124  0.00  0.00    +0.004 C 
ATOM     10  C   UNL     1      -1.539   4.288  25.164  0.00  0.00    +0.012 C 
ATOM     11  C   UNL     1       0.509   2.887  24.770  0.00  0.00    +0.019 C 
ATOM     12  C   UNL     1      -1.736   3.530  26.488  0.00  0.00    +0.085 C 
ATOM     13  C   UNL     1       0.240   2.184  26.100  0.00  0.00    +0.081 C 
ATOM     36  H   UNL     1      -0.635   2.557  27.904  0.00  0.00    +0.122 HD
ENDROOT
BRANCH  10  14
ATOM     14  C   UNL     1      -2.877   4.813  24.641  0.00  0.00    +0.064 C 
BRANCH  14  16
ATOM      2  O   UNL     1      -5.810   3.179  25.942  0.00  0.00    -0.356 OA
ATOM      8  N   UNL     1      -4.935   4.256  25.863  0.00  0.00    -0.083 NA
ATOM     16  C   UNL     1      -4.003   3.880  24.983  0.00  0.00    +0.084 A 
ATOM     18  C   UNL     1      -4.234   2.589  24.478  0.00  0.00    +0.074 A 
ATOM     19  C   UNL     1      -5.382   2.192  25.113  0.00  0.00    +0.175 A 
BRANCH  19  21
ATOM     21  C   UNL     1      -6.196   0.972  25.072  0.00  0.00    +0.306 C 
BRANCH  21   3
ATOM      3  O   UNL     1      -5.676   0.061  24.099  0.00  0.00    -0.484 OA
BRANCH   3  28
ATOM     28  C   UNL     1      -4.717  -0.811  24.532  0.00  0.00    +0.121 A 
ATOM     29  C   UNL     1      -4.081  -0.596  25.755  0.00  0.00    +0.045 A 
ATOM     30  C   UNL     1      -4.373  -1.914  23.751  0.00  0.00    +0.045 A 
ATOM     31  C   UNL     1      -3.102  -1.486  26.197  0.00  0.00    +0.004 A 
ATOM     32  C   UNL     1      -3.394  -2.803  24.193  0.00  0.00    +0.004 A 
ATOM     35  C   UNL     1      -2.758  -2.589  25.416  0.00  0.00    +0.000 A 
ENDBRANCH   3  28
ENDBRANCH  21   3
ENDBRANCH  19  21
ENDBRANCH  14  16
ENDBRANCH  10  14
BRANCH   9  15
ATOM     15  C   UNL     1      -1.608   2.297  23.519  0.00  0.00    +0.099 C 
BRANCH  15  17
ATOM      1  O   UNL     1      -1.033   0.115  24.392  0.00  0.00    -0.276 OA
ATOM      7  N   UNL     1       0.003   0.879  22.457  0.00  0.00    -0.311 N 
ATOM     17  C   UNL     1      -0.869   0.975  23.532  0.00  0.00    +0.214 C 
ATOM     37  H   UNL     1       0.082   1.651  21.803  0.00  0.00    +0.149 HD
BRANCH   7  20
ATOM     20  C   UNL     1       0.839  -0.276  22.221  0.00  0.00    +0.139 C 
BRANCH  20  22
ATOM     22  C   UNL     1       2.263  -0.031  22.625  0.00  0.00    -0.027 A 
ATOM     23  C   UNL     1       2.962  -1.001  23.345  0.00  0.00    +0.054 A 
ATOM     24  C   UNL     1       2.891   1.167  22.279  0.00  0.00    +0.009 A 
ATOM     25  C   UNL     1       4.286  -0.773  23.719  0.00  0.00    +0.162 A 
ATOM     26  C   UNL     1       4.215   1.394  22.653  0.00  0.00    +0.050 A 
ATOM     27  C   UNL     1       4.912   0.423  23.374  0.00  0.00    +0.162 A 
BRANCH  25   4
ATOM      4  O   UNL     1       4.957  -1.729  24.421  0.00  0.00    -0.491 OA
ATOM     33  C   UNL     1       5.272  -2.937  23.732  0.00  0.00    +0.277 C 
ENDBRANCH  25   4
BRANCH  27   5
ATOM      5  O   UNL     1       6.205   0.657  23.732  0.00  0.00    -0.491 OA
ATOM     34  C   UNL     1       7.208  -0.127  23.090  0.00  0.00    +0.277 C 
ENDBRANCH  27   5
ENDBRANCH  20  22
ENDBRANCH   7  20
ENDBRANCH  15  17
ENDBRANCH   9  15
TORSDOF 11
ENDMDL
MODEL 7
REMARK VINA RESULT:       3.9      1.626      6.305
REMARK  Name = 26743195
REMARK  13 active torsions:
REMARK  status: ('A' for Active; 'I' for Inactive)
REMARK    1  A    between atoms: O_3  and  C_21
REMARK    2  A    between atoms: O_3  and  C_28
REMARK    3  A    between atoms: O_4  and  C_25
REMARK    4  A    between atoms: O_4  and  C_33
REMARK    5  A    between atoms: O_5  and  C_27
REMARK    6  A    between atoms: O_5  and  C_34
REMARK    7  A    between atoms: N_7  and  C_20
REMARK    8  A    between atoms: C_9  and  C_15
REMARK    9  A    between atoms: C_10  and  C_14
REMARK   10  A    between atoms: C_14  and  C_16
REMARK   11  A    between atoms: C_15  and  C_17
REMARK   12  A    between atoms: C_19  and  C_21
REMARK   13  A    between atoms: C_20  and  C_22
REMARK                            x       y       z     vdW  Elec       q    Type
REMARK                         _______ _______ _______ _____ _____    ______ ____
ROOT
ATOM      6  N   UNL     1      -0.549   5.753  24.387  0.00  0.00    -0.316 NA
ATOM      9  C   UNL     1      -2.096   3.255  24.661  0.00  0.00    +0.004 C 
ATOM     10  C   UNL     1      -2.706   4.651  24.935  0.00  0.00    +0.012 C 
ATOM     11  C   UNL     1      -0.906   3.407  23.699  0.00  0.00    +0.019 C 
ATOM     12  C   UNL     1      -1.632   5.665  25.367  0.00  0.00    +0.085 C 
ATOM     13  C   UNL     1       0.096   4.459  24.173  0.00  0.00    +0.081 C 
ATOM     36  H   UNL     1       0.144   6.426  24.712  0.00  0.00    +0.122 HD
ENDROOT
BRANCH  10  14
ATOM     14  C   UNL     1      -3.851   4.617  25.948  0.00  0.00    +0.064 C 
BRANCH  14  16
ATOM      2  O   UNL     1      -6.205   1.908  26.228  0.00  0.00    -0.356 OA
ATOM      8  N   UNL     1      -5.594   3.061  26.706  0.00  0.00    -0.083 NA
ATOM     16  C   UNL     1      -4.707   3.397  25.766  0.00  0.00    +0.084 A 
ATOM     18  C   UNL     1      -4.711   2.502  24.683  0.00  0.00    +0.074 A 
ATOM     19  C   UNL     1      -5.671   1.585  25.022  0.00  0.00    +0.175 A 
BRANCH  19  21
ATOM     21  C   UNL     1      -6.204   0.383  24.369  0.00  0.00    +0.306 C 
BRANCH  21   3
ATOM      3  O   UNL     1      -5.177  -0.271  23.620  0.00  0.00    -0.484 OA
BRANCH   3  28
ATOM     28  C   UNL     1      -4.381  -1.143  24.310  0.00  0.00    +0.121 A 
ATOM     29  C   UNL     1      -3.883  -0.789  25.564  0.00  0.00    +0.045 A 
ATOM     30  C   UNL     1      -4.065  -2.384  23.759  0.00  0.00    +0.045 A 
ATOM     31  C   UNL     1      -3.071  -1.678  26.268  0.00  0.00    +0.004 A 
ATOM     32  C   UNL     1      -3.253  -3.273  24.463  0.00  0.00    +0.004 A 
ATOM     35  C   UNL     1      -2.755  -2.919  25.717  0.00  0.00    +0.000 A 
ENDBRANCH   3  28
ENDBRANCH  21   3
ENDBRANCH  19  21
ENDBRANCH  14  16
ENDBRANCH  10  14
BRANCH   9  15
ATOM     15  C   UNL     1      -1.682   2.498  25.928  0.00  0.00    +0.099 C 
BRANCH  15  17
ATOM      1  O   UNL     1      -0.506   0.453  26.468  0.00  0.00    -0.276 OA
ATOM      7  N   UNL     1      -0.970   0.951  24.245  0.00  0.00    -0.311 N 
ATOM     17  C   UNL     1      -0.986   1.190  25.611  0.00  0.00    +0.214 C 
ATOM     37  H   UNL     1      -1.381   1.627  23.611  0.00  0.00    +0.149 HD
BRANCH   7  20
ATOM     20  C   UNL     1      -0.369  -0.225  23.658  0.00  0.00    +0.139 C 
BRANCH  20  22
ATOM     22  C   UNL     1       1.104  -0.049  23.430  0.00  0.00    -0.027 A 
ATOM     23  C   UNL     1       1.973  -1.127  23.610  0.00  0.00    +0.054 A 
ATOM     24  C   UNL     1       1.606   1.192  23.035  0.00  0.00    +0.009 A 
ATOM     25  C   UNL     1       3.341  -0.963  23.396  0.00  0.00    +0.162 A 
ATOM     26  C   UNL     1       2.975   1.355  22.822  0.00  0.00    +0.050 A 
ATOM     27  C   UNL     1       3.842   0.277  23.003  0.00  0.00    +0.162 A 
BRANCH  25   4
ATOM      4  O   UNL     1       4.178  -2.023  23.574  0.00  0.00    -0.491 OA
ATOM     33  C   UNL     1       5.360  -1.793  24.338  0.00  0.00    +0.277 C 
ENDBRANCH  25   4
BRANCH  27   5
ATOM      5  O   UNL     1       5.176   0.450  22.790  0.00  0.00    -0.491 OA
ATOM     34  C   UNL     1       5.964   0.858  23.906  0.00  0.00    +0.277 C 
ENDBRANCH  27   5
ENDBRANCH  20  22
ENDBRANCH   7  20
ENDBRANCH  15  17
ENDBRANCH   9  15
TORSDOF 11
ENDMDL
MODEL 8
REMARK VINA RESULT:       4.1      1.844      5.476
REMARK  Name = 26743195
REMARK  13 active torsions:
REMARK  status: ('A' for Active; 'I' for Inactive)
REMARK    1  A    between atoms: O_3  and  C_21
REMARK    2  A    between atoms: O_3  and  C_28
REMARK    3  A    between atoms: O_4  and  C_25
REMARK    4  A    between atoms: O_4  and  C_33
REMARK    5  A    between atoms: O_5  and  C_27
REMARK    6  A    between atoms: O_5  and  C_34
REMARK    7  A    between atoms: N_7  and  C_20
REMARK    8  A    between atoms: C_9  and  C_15
REMARK    9  A    between atoms: C_10  and  C_14
REMARK   10  A    between atoms: C_14  and  C_16
REMARK   11  A    between atoms: C_15  and  C_17
REMARK   12  A    between atoms: C_19  and  C_21
REMARK   13  A    between atoms: C_20  and  C_22
REMARK                            x       y       z     vdW  Elec       q    Type
REMARK                         _______ _______ _______ _____ _____    ______ ____
ROOT
ATOM      6  N   UNL     1      -6.586   3.571  25.130  0.00  0.00    -0.316 NA
ATOM      9  C   UNL     1      -3.776   4.401  24.783  0.00  0.00    +0.004 C 
ATOM     10  C   UNL     1      -4.435   3.298  23.920  0.00  0.00    +0.012 C 
ATOM     11  C   UNL     1      -4.870   5.338  25.322  0.00  0.00    +0.019 C 
ATOM     12  C   UNL     1      -5.588   2.606  24.666  0.00  0.00    +0.085 C 
ATOM     13  C   UNL     1      -6.000   4.576  26.014  0.00  0.00    +0.081 C 
ATOM     36  H   UNL     1      -7.327   3.076  25.625  0.00  0.00    +0.122 HD
ENDROOT
BRANCH  10  14
ATOM     14  C   UNL     1      -3.434   2.265  23.400  0.00  0.00    +0.064 C 
BRANCH  14  16
ATOM      2  O   UNL     1      -4.992  -0.729  24.654  0.00  0.00    -0.356 OA
ATOM      8  N   UNL     1      -4.798   0.648  24.649  0.00  0.00    -0.083 NA
ATOM     16  C   UNL     1      -3.891   0.865  23.693  0.00  0.00    +0.084 A 
ATOM     18  C   UNL     1      -3.478  -0.323  23.067  0.00  0.00    +0.074 A 
ATOM     19  C   UNL     1      -4.200  -1.296  23.708  0.00  0.00    +0.175 A 
BRANCH  19  21
ATOM     21  C   UNL     1      -4.279  -2.756  23.577  0.00  0.00    +0.306 C 
BRANCH  21   3
ATOM      3  O   UNL     1      -3.539  -3.388  24.625  0.00  0.00    -0.484 OA
BRANCH   3  28
ATOM     28  C   UNL     1      -2.554  -2.643  25.211  0.00  0.00    +0.121 A 
ATOM     29  C   UNL     1      -1.238  -2.751  24.761  0.00  0.00    +0.045 A 
ATOM     30  C   UNL     1      -2.864  -1.777  26.258  0.00  0.00    +0.045 A 
ATOM     31  C   UNL     1      -0.232  -1.991  25.358  0.00  0.00    +0.004 A 
ATOM     32  C   UNL     1      -1.859  -1.017  26.855  0.00  0.00    +0.004 A 
ATOM     35  C   UNL     1      -0.543  -1.124  26.406  0.00  0.00    +0.000 A 
ENDBRANCH   3  28
ENDBRANCH  21   3
ENDBRANCH  19  21
ENDBRANCH  14  16
ENDBRANCH  10  14
BRANCH   9  15
ATOM     15  C   UNL     1      -2.907   3.862  25.925  0.00  0.00    +0.099 C 
BRANCH  15  17
ATOM      1  O   UNL     1      -0.888   4.862  25.043  0.00  0.00    -0.276 OA
ATOM      7  N   UNL     1      -0.793   2.738  25.983  0.00  0.00    -0.311 N 
ATOM     17  C   UNL     1      -1.430   3.906  25.591  0.00  0.00    +0.214 C 
ATOM     37  H   UNL     1      -1.330   1.994  26.417  0.00  0.00    +0.149 HD
BRANCH   7  20
ATOM     20  C   UNL     1       0.619   2.506  25.787  0.00  0.00    +0.139 C 
BRANCH  20  22
ATOM     22  C   UNL     1       0.888   1.671  24.568  0.00  0.00    -0.027 A 
ATOM     23  C   UNL     1       2.180   1.592  24.047  0.00  0.00    +0.054 A 
ATOM     24  C   UNL     1      -0.155   0.973  23.957  0.00  0.00    +0.009 A 
ATOM     25  C   UNL     1       2.428   0.815  22.916  0.00  0.00    +0.162 A 
ATOM     26  C   UNL     1       0.094   0.197  22.825  0.00  0.00    +0.050 A 
ATOM     27  C   UNL     1       1.387   0.118  22.305  0.00  0.00    +0.162 A 
BRANCH  25   4
ATOM      4  O   UNL     1       3.695   0.743  22.418  0.00  0.00    -0.491 OA
ATOM     33  C   UNL     1       4.727   0.362  23.324  0.00  0.00    +0.277 C 
ENDBRANCH  25   4
BRANCH  27   5
ATOM      5  O   UNL     1       1.617  -0.645  21.200  0.00  0.00    -0.491 OA
ATOM     34  C   UNL     1       0.483  -1.012  20.418  0.00  0.00    +0.277 C 
ENDBRANCH  27   5
ENDBRANCH  20  22
ENDBRANCH   7  20
ENDBRANCH  15  17
ENDBRANCH   9  15
TORSDOF 11
ENDMDL
