MODEL 1
REMARK VINA RESULT:      -5.1      0.000      0.000
REMARK  Name = 75368558
REMARK  2 active torsions:
REMARK  status: ('A' for Active; 'I' for Inactive)
REMARK    1  A    between atoms: N_4  and  C_13
REMARK    2  A    between atoms: C_13  and  C_14
REMARK                            x       y       z     vdW  Elec       q    Type
REMARK                         _______ _______ _______ _____ _____    ______ ____
ROOT
ATOM      2  O   UNL     1      -1.423   5.712  25.262  0.00  0.00    -0.253 OA
ATOM      3  N   UNL     1      -2.406   3.709  24.516  0.00  0.00    -0.279 N 
ATOM      4  N   UNL     1      -4.199   1.546  24.390  0.00  0.00    -0.293 NA
ATOM      5  N   UNL     1      -0.173   3.794  24.745  0.00  0.00    -0.297 N 
ATOM      7  C   UNL     1      -1.937   2.437  24.005  0.00  0.00    +0.109 C 
ATOM      8  C   UNL     1      -2.759   1.292  24.597  0.00  0.00    +0.109 C 
ATOM      9  C   UNL     1      -3.824   4.002  24.498  0.00  0.00    +0.125 C 
ATOM     10  C   UNL     1      -0.457   2.426  24.376  0.00  0.00    +0.129 C 
ATOM     11  C   UNL     1      -4.611   2.806  25.041  0.00  0.00    +0.104 C 
ATOM     12  C   UNL     1      -1.352   4.551  24.884  0.00  0.00    +0.303 C 
ATOM     17  H   UNL     1       0.753   4.148  24.961  0.00  0.00    +0.150 HD
ENDROOT
BRANCH   4  13
ATOM     13  C   UNL     1      -4.991   0.427  24.899  0.00  0.00    +0.147 C 
BRANCH  13  14
ATOM      1  S   UNL     1      -3.226  -1.400  26.026  0.00  0.00    -0.079 S 
ATOM      6  N   UNL     1      -4.365  -1.684  23.723  0.00  0.00    -0.251 NA
ATOM     14  C   UNL     1      -4.264  -0.884  24.761  0.00  0.00    +0.092 A 
ATOM     15  C   UNL     1      -2.872  -2.816  25.124  0.00  0.00    +0.066 A 
ATOM     16  C   UNL     1      -3.567  -2.791  23.933  0.00  0.00    +0.119 A 
ENDBRANCH  13  14
ENDBRANCH   4  13
TORSDOF 2
ENDMDL
MODEL 2
REMARK VINA RESULT:      -4.5      2.841      4.422
REMARK  Name = 75368558
REMARK  2 active torsions:
REMARK  status: ('A' for Active; 'I' for Inactive)
REMARK    1  A    between atoms: N_4  and  C_13
REMARK    2  A    between atoms: C_13  and  C_14
REMARK                            x       y       z     vdW  Elec       q    Type
REMARK                         _______ _______ _______ _____ _____    ______ ____
ROOT
ATOM      2  O   UNL     1       1.602  -0.426  22.722  0.00  0.00    -0.253 OA
ATOM      3  N   UNL     1      -0.207  -0.085  24.187  0.00  0.00    -0.279 N 
ATOM      4  N   UNL     1      -2.848  -0.101  25.154  0.00  0.00    -0.293 NA
ATOM      5  N   UNL     1       1.272   1.580  23.893  0.00  0.00    -0.297 N 
ATOM      7  C   UNL     1      -0.617   0.938  25.127  0.00  0.00    +0.109 C 
ATOM      8  C   UNL     1      -2.123   1.180  25.026  0.00  0.00    +0.109 C 
ATOM      9  C   UNL     1      -0.946  -1.329  24.125  0.00  0.00    +0.125 C 
ATOM     10  C   UNL     1       0.252   2.136  24.754  0.00  0.00    +0.129 C 
ATOM     11  C   UNL     1      -2.450  -1.041  24.087  0.00  0.00    +0.104 C 
ATOM     12  C   UNL     1       0.964   0.262  23.507  0.00  0.00    +0.303 C 
ATOM     17  H   UNL     1       2.068   2.100  23.540  0.00  0.00    +0.150 HD
ENDROOT
BRANCH   4  13
ATOM     13  C   UNL     1      -4.292   0.126  25.119  0.00  0.00    +0.147 C 
BRANCH  13  14
ATOM      1  S   UNL     1      -5.741   2.249  26.177  0.00  0.00    -0.079 S 
ATOM      6  N   UNL     1      -4.125   2.427  24.168  0.00  0.00    -0.251 NA
ATOM     14  C   UNL     1      -4.628   1.592  25.048  0.00  0.00    +0.092 A 
ATOM     15  C   UNL     1      -5.543   3.785  25.441  0.00  0.00    +0.066 A 
ATOM     16  C   UNL     1      -4.650   3.685  24.394  0.00  0.00    +0.119 A 
ENDBRANCH  13  14
ENDBRANCH   4  13
TORSDOF 2
ENDMDL
MODEL 3
REMARK VINA RESULT:      -4.2      2.867      4.773
REMARK  Name = 75368558
REMARK  2 active torsions:
REMARK  status: ('A' for Active; 'I' for Inactive)
REMARK    1  A    between atoms: N_4  and  C_13
REMARK    2  A    between atoms: C_13  and  C_14
REMARK                            x       y       z     vdW  Elec       q    Type
REMARK                         _______ _______ _______ _____ _____    ______ ____
ROOT
ATOM      2  O   UNL     1      -6.747   1.554  25.186  0.00  0.00    -0.253 OA
ATOM      3  N   UNL     1      -4.496   2.093  24.765  0.00  0.00    -0.279 N 
ATOM      4  N   UNL     1      -1.696   1.842  24.718  0.00  0.00    -0.293 NA
ATOM      5  N   UNL     1      -5.846   3.679  25.608  0.00  0.00    -0.297 N 
ATOM      7  C   UNL     1      -3.684   3.292  24.785  0.00  0.00    +0.109 C 
ATOM      8  C   UNL     1      -2.316   2.996  25.401  0.00  0.00    +0.109 C 
ATOM      9  C   UNL     1      -3.933   0.862  24.252  0.00  0.00    +0.125 C 
ATOM     10  C   UNL     1      -4.537   4.290  25.563  0.00  0.00    +0.129 C 
ATOM     11  C   UNL     1      -2.540   0.637  24.847  0.00  0.00    +0.104 C 
ATOM     12  C   UNL     1      -5.809   2.338  25.180  0.00  0.00    +0.303 C 
ATOM     17  H   UNL     1      -6.676   4.130  25.980  0.00  0.00    +0.150 HD
ENDROOT
BRANCH   4  13
ATOM     13  C   UNL     1      -0.361   1.589  25.259  0.00  0.00    +0.147 C 
BRANCH  13  14
ATOM      1  S   UNL     1       0.177  -0.443  23.440  0.00  0.00    -0.079 S 
ATOM      6  N   UNL     1       1.693   1.613  23.841  0.00  0.00    -0.251 NA
ATOM     14  C   UNL     1       0.573   1.037  24.215  0.00  0.00    +0.092 A 
ATOM     15  C   UNL     1       1.619  -0.317  22.519  0.00  0.00    +0.066 A 
ATOM     16  C   UNL     1       2.292   0.836  22.868  0.00  0.00    +0.119 A 
ENDBRANCH  13  14
ENDBRANCH   4  13
TORSDOF 2
ENDMDL
MODEL 4
REMARK VINA RESULT:      -4.0      3.178      6.137
REMARK  Name = 75368558
REMARK  2 active torsions:
REMARK  status: ('A' for Active; 'I' for Inactive)
REMARK    1  A    between atoms: N_4  and  C_13
REMARK    2  A    between atoms: C_13  and  C_14
REMARK                            x       y       z     vdW  Elec       q    Type
REMARK                         _______ _______ _______ _____ _____    ______ ____
ROOT
ATOM      2  O   UNL     1      -3.457  -3.621  24.510  0.00  0.00    -0.253 OA
ATOM      3  N   UNL     1      -2.529  -1.460  24.428  0.00  0.00    -0.279 N 
ATOM      4  N   UNL     1      -1.002   0.777  25.183  0.00  0.00    -0.293 NA
ATOM      5  N   UNL     1      -4.723  -1.708  24.015  0.00  0.00    -0.297 N 
ATOM      7  C   UNL     1      -2.980  -0.140  24.040  0.00  0.00    +0.109 C 
ATOM      8  C   UNL     1      -2.465   0.908  25.027  0.00  0.00    +0.109 C 
ATOM      9  C   UNL     1      -1.133  -1.668  24.750  0.00  0.00    +0.125 C 
ATOM     10  C   UNL     1      -4.498  -0.281  23.986  0.00  0.00    +0.129 C 
ATOM     11  C   UNL     1      -0.644  -0.563  25.690  0.00  0.00    +0.104 C 
ATOM     12  C   UNL     1      -3.549  -2.414  24.338  0.00  0.00    +0.303 C 
ATOM     17  H   UNL     1      -5.632  -2.147  23.903  0.00  0.00    +0.150 HD
ENDROOT
BRANCH   4  13
ATOM     13  C   UNL     1      -0.491   1.814  26.079  0.00  0.00    +0.147 C 
BRANCH  13  14
ATOM      1  S   UNL     1      -2.364   3.865  26.165  0.00  0.00    -0.079 S 
ATOM      6  N   UNL     1      -0.158   3.943  24.819  0.00  0.00    -0.251 NA
ATOM     14  C   UNL     1      -0.881   3.194  25.621  0.00  0.00    +0.092 A 
ATOM     15  C   UNL     1      -2.026   5.282  25.259  0.00  0.00    +0.066 A 
ATOM     16  C   UNL     1      -0.816   5.140  24.612  0.00  0.00    +0.119 A 
ENDBRANCH  13  14
ENDBRANCH   4  13
TORSDOF 2
ENDMDL
MODEL 5
REMARK VINA RESULT:      -3.8      3.039      5.192
REMARK  Name = 75368558
REMARK  2 active torsions:
REMARK  status: ('A' for Active; 'I' for Inactive)
REMARK    1  A    between atoms: N_4  and  C_13
REMARK    2  A    between atoms: C_13  and  C_14
REMARK                            x       y       z     vdW  Elec       q    Type
REMARK                         _______ _______ _______ _____ _____    ______ ____
ROOT
ATOM      2  O   UNL     1       0.043  -2.108  25.691  0.00  0.00    -0.253 OA
ATOM      3  N   UNL     1      -1.316  -0.823  24.264  0.00  0.00    -0.279 N 
ATOM      4  N   UNL     1      -2.438   1.446  23.040  0.00  0.00    -0.293 NA
ATOM      5  N   UNL     1      -2.243  -2.537  25.381  0.00  0.00    -0.297 N 
ATOM      7  C   UNL     1      -2.672  -0.895  23.763  0.00  0.00    +0.109 C 
ATOM      8  C   UNL     1      -3.311   0.495  23.758  0.00  0.00    +0.109 C 
ATOM      9  C   UNL     1      -0.415   0.178  23.732  0.00  0.00    +0.125 C 
ATOM     10  C   UNL     1      -3.343  -1.906  24.688  0.00  0.00    +0.129 C 
ATOM     11  C   UNL     1      -1.114   1.539  23.688  0.00  0.00    +0.104 C 
ATOM     12  C   UNL     1      -1.033  -1.850  25.170  0.00  0.00    +0.303 C 
ATOM     17  H   UNL     1      -2.340  -3.328  26.011  0.00  0.00    +0.150 HD
ENDROOT
BRANCH   4  13
ATOM     13  C   UNL     1      -3.067   2.765  22.977  0.00  0.00    +0.147 C 
BRANCH  13  14
ATOM      1  S   UNL     1      -2.932   3.948  25.489  0.00  0.00    -0.079 S 
ATOM      6  N   UNL     1      -5.036   2.806  24.512  0.00  0.00    -0.251 NA
ATOM     14  C   UNL     1      -3.782   3.108  24.257  0.00  0.00    +0.092 A 
ATOM     15  C   UNL     1      -4.350   3.916  26.454  0.00  0.00    +0.066 A 
ATOM     16  C   UNL     1      -5.360   3.271  25.772  0.00  0.00    +0.119 A 
ENDBRANCH  13  14
ENDBRANCH   4  13
TORSDOF 2
ENDMDL
MODEL 6
REMARK VINA RESULT:      -3.4      2.036      2.698
REMARK  Name = 75368558
REMARK  2 active torsions:
REMARK  status: ('A' for Active; 'I' for Inactive)
REMARK    1  A    between atoms: N_4  and  C_13
REMARK    2  A    between atoms: C_13  and  C_14
REMARK                            x       y       z     vdW  Elec       q    Type
REMARK                         _______ _______ _______ _____ _____    ______ ____
ROOT
ATOM      2  O   UNL     1      -5.617   3.989  25.297  0.00  0.00    -0.253 OA
ATOM      3  N   UNL     1      -3.522   3.089  24.717  0.00  0.00    -0.279 N 
ATOM      4  N   UNL     1      -1.580   1.173  24.037  0.00  0.00    -0.293 NA
ATOM      5  N   UNL     1      -3.626   4.593  26.382  0.00  0.00    -0.297 N 
ATOM      7  C   UNL     1      -2.141   3.331  25.077  0.00  0.00    +0.109 C 
ATOM      8  C   UNL     1      -1.395   2.007  25.241  0.00  0.00    +0.109 C 
ATOM      9  C   UNL     1      -3.824   2.167  23.642  0.00  0.00    +0.125 C 
ATOM     10  C   UNL     1      -2.244   4.173  26.346  0.00  0.00    +0.129 C 
ATOM     11  C   UNL     1      -3.010   0.881  23.812  0.00  0.00    +0.104 C 
ATOM     12  C   UNL     1      -4.406   3.898  25.438  0.00  0.00    +0.303 C 
ATOM     17  H   UNL     1      -4.009   5.246  27.059  0.00  0.00    +0.150 HD
ENDROOT
BRANCH   4  13
ATOM     13  C   UNL     1      -0.821  -0.072  24.158  0.00  0.00    +0.147 C 
BRANCH  13  14
ATOM      1  S   UNL     1      -2.898  -1.057  25.720  0.00  0.00    -0.079 S 
ATOM      6  N   UNL     1      -1.641  -2.417  23.916  0.00  0.00    -0.251 NA
ATOM     14  C   UNL     1      -1.708  -1.240  24.497  0.00  0.00    +0.092 A 
ATOM     15  C   UNL     1      -3.377  -2.684  25.463  0.00  0.00    +0.066 A 
ATOM     16  C   UNL     1      -2.599  -3.244  24.471  0.00  0.00    +0.119 A 
ENDBRANCH  13  14
ENDBRANCH   4  13
TORSDOF 2
ENDMDL
MODEL 7
REMARK VINA RESULT:      -3.1      3.035      4.293
REMARK  Name = 75368558
REMARK  2 active torsions:
REMARK  status: ('A' for Active; 'I' for Inactive)
REMARK    1  A    between atoms: N_4  and  C_13
REMARK    2  A    between atoms: C_13  and  C_14
REMARK                            x       y       z     vdW  Elec       q    Type
REMARK                         _______ _______ _______ _____ _____    ______ ____
ROOT
ATOM      2  O   UNL     1       2.508   1.308  23.473  0.00  0.00    -0.253 OA
ATOM      3  N   UNL     1       0.227   1.802  23.769  0.00  0.00    -0.279 N 
ATOM      4  N   UNL     1      -2.085   3.059  24.760  0.00  0.00    -0.293 NA
ATOM      5  N   UNL     1       0.869  -0.350  23.742  0.00  0.00    -0.297 N 
ATOM      7  C   UNL     1      -1.010   1.051  23.828  0.00  0.00    +0.109 C 
ATOM      8  C   UNL     1      -1.913   1.602  24.931  0.00  0.00    +0.109 C 
ATOM      9  C   UNL     1       0.178   3.249  23.748  0.00  0.00    +0.125 C 
ATOM     10  C   UNL     1      -0.545  -0.387  24.037  0.00  0.00    +0.129 C 
ATOM     11  C   UNL     1      -0.784   3.755  24.827  0.00  0.00    +0.104 C 
ATOM     12  C   UNL     1       1.344   0.971  23.637  0.00  0.00    +0.303 C 
ATOM     17  H   UNL     1       1.467  -1.169  23.700  0.00  0.00    +0.150 HD
ENDROOT
BRANCH   4  13
ATOM     13  C   UNL     1      -2.997   3.587  25.775  0.00  0.00    +0.147 C 
BRANCH  13  14
ATOM      1  S   UNL     1      -4.801   2.138  24.236  0.00  0.00    -0.079 S 
ATOM      6  N   UNL     1      -5.282   3.033  26.613  0.00  0.00    -0.251 NA
ATOM     14  C   UNL     1      -4.368   2.975  25.670  0.00  0.00    +0.092 A 
ATOM     15  C   UNL     1      -6.342   1.817  24.918  0.00  0.00    +0.066 A 
ATOM     16  C   UNL     1      -6.413   2.368  26.181  0.00  0.00    +0.119 A 
ENDBRANCH  13  14
ENDBRANCH   4  13
TORSDOF 2
ENDMDL
MODEL 8
REMARK VINA RESULT:      -2.9      2.702      4.972
REMARK  Name = 75368558
REMARK  2 active torsions:
REMARK  status: ('A' for Active; 'I' for Inactive)
REMARK    1  A    between atoms: N_4  and  C_13
REMARK    2  A    between atoms: C_13  and  C_14
REMARK                            x       y       z     vdW  Elec       q    Type
REMARK                         _______ _______ _______ _____ _____    ______ ____
ROOT
ATOM      2  O   UNL     1      -6.815   1.053  27.074  0.00  0.00    -0.253 OA
ATOM      3  N   UNL     1      -5.415   1.519  25.242  0.00  0.00    -0.279 N 
ATOM      4  N   UNL     1      -3.184   1.384  23.535  0.00  0.00    -0.293 NA
ATOM      5  N   UNL     1      -6.362   3.235  26.338  0.00  0.00    -0.297 N 
ATOM      7  C   UNL     1      -5.045   2.690  24.475  0.00  0.00    +0.109 C 
ATOM      8  C   UNL     1      -3.549   2.670  24.162  0.00  0.00    +0.109 C 
ATOM      9  C   UNL     1      -4.979   0.212  24.795  0.00  0.00    +0.125 C 
ATOM     10  C   UNL     1      -5.502   3.852  25.354  0.00  0.00    +0.129 C 
ATOM     11  C   UNL     1      -3.491   0.253  24.434  0.00  0.00    +0.104 C 
ATOM     12  C   UNL     1      -6.265   1.831  26.307  0.00  0.00    +0.303 C 
ATOM     17  H   UNL     1      -6.905   3.748  27.026  0.00  0.00    +0.150 HD
ENDROOT
BRANCH   4  13
ATOM     13  C   UNL     1      -1.766   1.377  23.176  0.00  0.00    +0.147 C 
BRANCH  13  14
ATOM      1  S   UNL     1      -0.525   1.180  25.655  0.00  0.00    -0.079 S 
ATOM      6  N   UNL     1      -0.444   3.267  24.131  0.00  0.00    -0.251 NA
ATOM     14  C   UNL     1      -0.918   2.045  24.226  0.00  0.00    +0.092 A 
ATOM     15  C   UNL     1       0.357   2.543  26.207  0.00  0.00    +0.066 A 
ATOM     16  C   UNL     1       0.287   3.551  25.268  0.00  0.00    +0.119 A 
ENDBRANCH  13  14
ENDBRANCH   4  13
TORSDOF 2
ENDMDL
MODEL 9
REMARK VINA RESULT:      -2.4      3.269      4.550
REMARK  Name = 75368558
REMARK  2 active torsions:
REMARK  status: ('A' for Active; 'I' for Inactive)
REMARK    1  A    between atoms: N_4  and  C_13
REMARK    2  A    between atoms: C_13  and  C_14
REMARK                            x       y       z     vdW  Elec       q    Type
REMARK                         _______ _______ _______ _____ _____    ______ ____
ROOT
ATOM      2  O   UNL     1       3.583   1.391  23.392  0.00  0.00    -0.253 OA
ATOM      3  N   UNL     1       1.241   1.166  23.437  0.00  0.00    -0.279 N 
ATOM      4  N   UNL     1      -1.365   0.994  24.479  0.00  0.00    -0.293 NA
ATOM      5  N   UNL     1       2.433  -0.228  22.141  0.00  0.00    -0.297 N 
ATOM      7  C   UNL     1       0.248   0.396  22.718  0.00  0.00    +0.109 C 
ATOM      8  C   UNL     1      -0.820  -0.124  23.681  0.00  0.00    +0.109 C 
ATOM      9  C   UNL     1       0.810   2.193  24.363  0.00  0.00    +0.125 C 
ATOM     10  C   UNL     1       1.068  -0.687  22.023  0.00  0.00    +0.129 C 
ATOM     11  C   UNL     1      -0.301   1.648  25.266  0.00  0.00    +0.104 C 
ATOM     12  C   UNL     1       2.544   0.852  23.037  0.00  0.00    +0.303 C 
ATOM     17  H   UNL     1       3.229  -0.679  21.701  0.00  0.00    +0.150 HD
ENDROOT
BRANCH   4  13
ATOM     13  C   UNL     1      -2.430   0.517  25.361  0.00  0.00    +0.147 C 
BRANCH  13  14
ATOM      1  S   UNL     1      -3.491   3.086  25.332  0.00  0.00    -0.079 S 
ATOM      6  N   UNL     1      -4.885   0.916  25.149  0.00  0.00    -0.251 NA
ATOM     14  C   UNL     1      -3.661   1.379  25.272  0.00  0.00    +0.092 A 
ATOM     15  C   UNL     1      -5.193   3.236  25.180  0.00  0.00    +0.066 A 
ATOM     16  C   UNL     1      -5.762   1.982  25.096  0.00  0.00    +0.119 A 
ENDBRANCH  13  14
ENDBRANCH   4  13
TORSDOF 2
ENDMDL
MODEL 10
REMARK VINA RESULT:      -2.3      3.226      3.984
REMARK  Name = 75368558
REMARK  2 active torsions:
REMARK  status: ('A' for Active; 'I' for Inactive)
REMARK    1  A    between atoms: N_4  and  C_13
REMARK    2  A    between atoms: C_13  and  C_14
REMARK                            x       y       z     vdW  Elec       q    Type
REMARK                         _______ _______ _______ _____ _____    ______ ____
ROOT
ATOM      2  O   UNL     1       3.614   1.843  23.182  0.00  0.00    -0.253 OA
ATOM      3  N   UNL     1       1.364   1.205  23.441  0.00  0.00    -0.279 N 
ATOM      4  N   UNL     1      -1.066   0.591  24.716  0.00  0.00    -0.293 NA
ATOM      5  N   UNL     1       2.668   0.021  22.047  0.00  0.00    -0.297 N 
ATOM      7  C   UNL     1       0.465   0.256  22.818  0.00  0.00    +0.109 C 
ATOM      8  C   UNL     1      -0.402  -0.427  23.876  0.00  0.00    +0.109 C 
ATOM      9  C   UNL     1       0.840   2.156  24.399  0.00  0.00    +0.125 C 
ATOM     10  C   UNL     1       1.402  -0.677  22.055  0.00  0.00    +0.129 C 
ATOM     11  C   UNL     1      -0.071   1.440  25.401  0.00  0.00    +0.104 C 
ATOM     12  C   UNL     1       2.661   1.121  22.925  0.00  0.00    +0.303 C 
ATOM     17  H   UNL     1       3.489  -0.290  21.538  0.00  0.00    +0.150 HD
ENDROOT
BRANCH   4  13
ATOM     13  C   UNL     1      -1.945  -0.051  25.693  0.00  0.00    +0.147 C 
BRANCH  13  14
ATOM      1  S   UNL     1      -4.149  -0.606  24.093  0.00  0.00    -0.079 S 
ATOM      6  N   UNL     1      -2.638  -2.395  25.189  0.00  0.00    -0.251 NA
ATOM     14  C   UNL     1      -2.819  -1.100  25.058  0.00  0.00    +0.092 A 
ATOM     15  C   UNL     1      -4.528  -2.256  23.815  0.00  0.00    +0.066 A 
ATOM     16  C   UNL     1      -3.619  -3.056  24.475  0.00  0.00    +0.119 A 
ENDBRANCH  13  14
ENDBRANCH   4  13
TORSDOF 2
ENDMDL
