MODEL 1
REMARK VINA RESULT:      -4.1      0.000      0.000
REMARK  Name = 11941639
REMARK  8 active torsions:
REMARK  status: ('A' for Active; 'I' for Inactive)
REMARK    1  A    between atoms: N_4  and  C_11
REMARK    2  A    between atoms: N_5  and  C_12
REMARK    3  A    between atoms: N_7  and  C_21
REMARK    4  A    between atoms: C_17  and  C_18
REMARK    5  A    between atoms: C_17  and  C_22
REMARK    6  A    between atoms: C_17  and  C_23
REMARK    7  A    between atoms: C_17  and  C_24
REMARK    8  A    between atoms: C_21  and  C_25
REMARK                            x       y       z     vdW  Elec       q    Type
REMARK                         _______ _______ _______ _____ _____    ______ ____
ROOT
ATOM      1  O   UNL     1      -3.572  -1.026  23.305  0.00  0.00    -0.370 OA
ATOM      2  O   UNL     1      -2.023  -1.197  26.008  0.00  0.00    -0.370 OA
ATOM      9  C   UNL     1      -2.846  -0.183  25.409  0.00  0.00    +0.171 C 
ATOM     10  C   UNL     1      -2.567  -0.200  23.918  0.00  0.00    +0.171 C 
ATOM     11  C   UNL     1      -4.305  -0.560  25.516  0.00  0.00    +0.130 C 
ATOM     12  C   UNL     1      -1.209  -0.854  23.806  0.00  0.00    +0.131 C 
ATOM     13  C   UNL     1      -4.508  -1.453  24.305  0.00  0.00    +0.185 C 
ATOM     14  C   UNL     1      -1.204  -1.798  24.995  0.00  0.00    +0.185 C 
ENDROOT
BRANCH  11   4
ATOM      4  N   UNL     1      -5.131   0.622  25.410  0.00  0.00    -0.306 N 
ATOM      6  N   UNL     1      -3.270   2.041  25.236  0.00  0.00    -0.219 NA
ATOM      8  N   UNL     1      -5.512   2.927  25.181  0.00  0.00    -0.223 NA
ATOM     15  C   UNL     1      -4.623   1.902  25.272  0.00  0.00    +0.216 A 
ATOM     18  C   UNL     1      -2.810   3.302  25.100  0.00  0.00    +0.052 A 
ATOM     19  C   UNL     1      -3.626   4.411  25.000  0.00  0.00    +0.043 A 
ATOM     20  C   UNL     1      -4.982   4.160  25.048  0.00  0.00    +0.116 A 
ATOM     31  H   UNL     1      -6.140   0.524  25.382  0.00  0.00    +0.149 HD
BRANCH  18  17
ATOM     17  C   UNL     1      -1.328   3.474  25.059  0.00  0.00    +0.005 C 
ATOM     22  C   UNL     1      -0.740   2.981  23.702  0.00  0.00    +0.017 C 
ATOM     23  C   UNL     1      -0.533   2.702  26.164  0.00  0.00    +0.017 C 
ATOM     24  C   UNL     1      -0.928   4.971  25.230  0.00  0.00    +0.017 C 
ENDBRANCH  18  17
ENDBRANCH  11   4
BRANCH  12   5
ATOM      3  O   UNL     1       1.204  -0.739  22.227  0.00  0.00    -0.253 OA
ATOM      5  N   UNL     1      -0.150   0.121  23.906  0.00  0.00    -0.292 N 
ATOM      7  N   UNL     1       1.845   1.154  23.408  0.00  0.00    -0.295 N 
ATOM     16  C   UNL     1       0.986   0.101  23.100  0.00  0.00    +0.300 C 
ATOM     32  H   UNL     1      -0.265   0.895  24.552  0.00  0.00    +0.151 HD
ATOM     33  H   UNL     1       1.570   1.812  24.130  0.00  0.00    +0.151 HD
BRANCH   7  21
ATOM     21  C   UNL     1       3.097   1.368  22.722  0.00  0.00    +0.141 C 
BRANCH  21  25
ATOM     25  C   UNL     1       4.179   0.460  23.231  0.00  0.00    -0.030 A 
ATOM     26  C   UNL     1       5.448   0.972  23.472  0.00  0.00    +0.005 A 
ATOM     27  C   UNL     1       3.900  -0.884  23.456  0.00  0.00    +0.005 A 
ATOM     28  C   UNL     1       6.454   0.129  23.945  0.00  0.00    +0.000 A 
ATOM     29  C   UNL     1       4.906  -1.727  23.929  0.00  0.00    +0.000 A 
ATOM     30  C   UNL     1       6.182  -1.221  24.174  0.00  0.00    +0.000 A 
ENDBRANCH  21  25
ENDBRANCH   7  21
ENDBRANCH  12   5
TORSDOF 5
ENDMDL
MODEL 2
REMARK VINA RESULT:      -1.5      1.868      3.720
REMARK  Name = 11941639
REMARK  8 active torsions:
REMARK  status: ('A' for Active; 'I' for Inactive)
REMARK    1  A    between atoms: N_4  and  C_11
REMARK    2  A    between atoms: N_5  and  C_12
REMARK    3  A    between atoms: N_7  and  C_21
REMARK    4  A    between atoms: C_17  and  C_18
REMARK    5  A    between atoms: C_17  and  C_22
REMARK    6  A    between atoms: C_17  and  C_23
REMARK    7  A    between atoms: C_17  and  C_24
REMARK    8  A    between atoms: C_21  and  C_25
REMARK                            x       y       z     vdW  Elec       q    Type
REMARK                         _______ _______ _______ _____ _____    ______ ____
ROOT
ATOM      1  O   UNL     1      -2.236   3.835  27.082  0.00  0.00    -0.370 OA
ATOM      2  O   UNL     1      -1.237   4.140  24.142  0.00  0.00    -0.370 OA
ATOM      9  C   UNL     1      -2.408   3.546  24.726  0.00  0.00    +0.171 C 
ATOM     10  C   UNL     1      -1.980   2.894  26.027  0.00  0.00    +0.171 C 
ATOM     11  C   UNL     1      -3.382   4.619  25.155  0.00  0.00    +0.130 C 
ATOM     12  C   UNL     1      -0.493   2.682  25.860  0.00  0.00    +0.131 C 
ATOM     13  C   UNL     1      -2.875   4.998  26.534  0.00  0.00    +0.185 C 
ATOM     14  C   UNL     1      -0.098   3.842  24.963  0.00  0.00    +0.185 C 
ENDROOT
BRANCH  11   4
ATOM      4  N   UNL     1      -4.716   4.068  25.245  0.00  0.00    -0.306 N 
ATOM      6  N   UNL     1      -3.968   1.891  24.791  0.00  0.00    -0.219 NA
ATOM      8  N   UNL     1      -6.304   2.342  25.182  0.00  0.00    -0.223 NA
ATOM     15  C   UNL     1      -5.005   2.727  25.067  0.00  0.00    +0.216 A 
ATOM     18  C   UNL     1      -4.286   0.591  24.624  0.00  0.00    +0.052 A 
ATOM     19  C   UNL     1      -5.570   0.096  24.719  0.00  0.00    +0.043 A 
ATOM     20  C   UNL     1      -6.549   1.027  25.002  0.00  0.00    +0.116 A 
ATOM     31  H   UNL     1      -5.488   4.674  25.503  0.00  0.00    +0.149 HD
BRANCH  18  17
ATOM     17  C   UNL     1      -3.160  -0.341  24.319  0.00  0.00    +0.005 C 
ATOM     22  C   UNL     1      -3.689  -1.730  23.847  0.00  0.00    +0.017 C 
ATOM     23  C   UNL     1      -2.200  -0.646  25.516  0.00  0.00    +0.017 C 
ATOM     24  C   UNL     1      -2.249   0.225  23.188  0.00  0.00    +0.017 C 
ENDBRANCH  18  17
ENDBRANCH  11   4
BRANCH  12   5
ATOM      3  O   UNL     1       1.351   2.186  23.696  0.00  0.00    -0.253 OA
ATOM      5  N   UNL     1      -0.212   1.414  25.230  0.00  0.00    -0.292 N 
ATOM      7  N   UNL     1       0.774  -0.062  23.766  0.00  0.00    -0.295 N 
ATOM     16  C   UNL     1       0.698   1.264  24.186  0.00  0.00    +0.300 C 
ATOM     32  H   UNL     1      -0.652   0.580  25.606  0.00  0.00    +0.151 HD
ATOM     33  H   UNL     1       0.212  -0.758  24.245  0.00  0.00    +0.151 HD
BRANCH   7  21
ATOM     21  C   UNL     1       1.642  -0.495  22.697  0.00  0.00    +0.141 C 
BRANCH  21  25
ATOM     25  C   UNL     1       3.092  -0.393  23.074  0.00  0.00    -0.030 A 
ATOM     26  C   UNL     1       3.799   0.765  22.774  0.00  0.00    +0.005 A 
ATOM     27  C   UNL     1       3.711  -1.457  23.720  0.00  0.00    +0.005 A 
ATOM     28  C   UNL     1       5.147   0.860  23.123  0.00  0.00    +0.000 A 
ATOM     29  C   UNL     1       5.058  -1.361  24.070  0.00  0.00    +0.000 A 
ATOM     30  C   UNL     1       5.776  -0.203  23.772  0.00  0.00    +0.000 A 
ENDBRANCH  21  25
ENDBRANCH   7  21
ENDBRANCH  12   5
TORSDOF 5
ENDMDL
