MODEL 1
REMARK VINA RESULT:      -5.3      0.000      0.000
REMARK  Name = 75536645
REMARK  7 active torsions:
REMARK  status: ('A' for Active; 'I' for Inactive)
REMARK    1  A    between atoms: O_3  and  C_9
REMARK    2  A    between atoms: N_5  and  C_8
REMARK    3  A    between atoms: N_5  and  C_13
REMARK    4  A    between atoms: N_6  and  C_12
REMARK    5  A    between atoms: C_10  and  C_12
REMARK    6  A    between atoms: C_13  and  C_14
REMARK    7  A    between atoms: C_15  and  C_18
REMARK                            x       y       z     vdW  Elec       q    Type
REMARK                         _______ _______ _______ _____ _____    ______ ____
ROOT
ATOM      2  O   UNL     1      -1.623  -2.540  23.843  0.00  0.00    -0.371 OA
ATOM      8  C   UNL     1      -0.037  -0.948  24.613  0.00  0.00    +0.111 C 
ATOM      9  C   UNL     1      -1.264  -0.895  25.504  0.00  0.00    +0.164 C 
ATOM     10  C   UNL     1      -1.887  -2.257  25.227  0.00  0.00    +0.165 C 
ATOM     11  C   UNL     1      -0.587  -1.652  23.384  0.00  0.00    +0.181 C 
ENDROOT
BRANCH   9   3
ATOM      3  O   UNL     1      -0.940  -0.732  26.871  0.00  0.00    -0.388 OA
ATOM     27  H   UNL     1      -0.559   0.155  26.991  0.00  0.00    +0.210 HD
ENDBRANCH   9   3
BRANCH   8   5
ATOM      5  N   UNL     1       0.523   0.359  24.313  0.00  0.00    -0.305 NA
ATOM     26  H   UNL     1       1.373   0.239  23.760  0.00  0.00    +0.123 HD
BRANCH   5  13
ATOM     13  C   UNL     1      -0.421   1.173  23.553  0.00  0.00    +0.118 C 
BRANCH  13  14
ATOM      7  N   UNL     1      -0.654   4.877  24.299  0.00  0.00    -0.263 NA
ATOM     14  C   UNL     1      -0.746   2.461  24.260  0.00  0.00    -0.015 A 
ATOM     16  C   UNL     1      -1.412   2.460  25.481  0.00  0.00    +0.008 A 
ATOM     17  C   UNL     1      -0.391   3.685  23.716  0.00  0.00    +0.115 A 
ATOM     19  C   UNL     1      -1.698   3.666  26.112  0.00  0.00    +0.020 A 
ATOM     22  C   UNL     1      -1.301   4.836  25.485  0.00  0.00    +0.111 A 
ENDBRANCH  13  14
ENDBRANCH   5  13
ENDBRANCH   8   5
BRANCH  10  12
ATOM     12  C   UNL     1      -3.384  -2.295  25.481  0.00  0.00    +0.138 C 
BRANCH  12   6
ATOM      4  O   UNL     1      -4.018  -0.486  23.344  0.00  0.00    -0.270 OA
ATOM      6  N   UNL     1      -3.924  -0.973  25.611  0.00  0.00    -0.309 N 
ATOM     15  C   UNL     1      -4.202  -0.162  24.514  0.00  0.00    +0.244 C 
ATOM     28  H   UNL     1      -4.034  -0.617  26.554  0.00  0.00    +0.149 HD
BRANCH  15  18
ATOM      1  F   UNL     1      -6.215   4.953  25.656  0.00  0.00    -0.205 F 
ATOM     18  C   UNL     1      -4.735   1.192  24.816  0.00  0.00    +0.037 A 
ATOM     20  C   UNL     1      -4.305   2.292  24.074  0.00  0.00    +0.016 A 
ATOM     21  C   UNL     1      -5.664   1.362  25.841  0.00  0.00    +0.016 A 
ATOM     23  C   UNL     1      -4.805   3.563  24.358  0.00  0.00    +0.039 A 
ATOM     24  C   UNL     1      -6.164   2.633  26.126  0.00  0.00    +0.039 A 
ATOM     25  C   UNL     1      -5.735   3.733  25.384  0.00  0.00    +0.123 A 
ENDBRANCH  15  18
ENDBRANCH  12   6
ENDBRANCH  10  12
TORSDOF 7
ENDMDL
MODEL 2
REMARK VINA RESULT:      -4.9      2.274      3.625
REMARK  Name = 75536645
REMARK  7 active torsions:
REMARK  status: ('A' for Active; 'I' for Inactive)
REMARK    1  A    between atoms: O_3  and  C_9
REMARK    2  A    between atoms: N_5  and  C_8
REMARK    3  A    between atoms: N_5  and  C_13
REMARK    4  A    between atoms: N_6  and  C_12
REMARK    5  A    between atoms: C_10  and  C_12
REMARK    6  A    between atoms: C_13  and  C_14
REMARK    7  A    between atoms: C_15  and  C_18
REMARK                            x       y       z     vdW  Elec       q    Type
REMARK                         _______ _______ _______ _____ _____    ______ ____
ROOT
ATOM      2  O   UNL     1      -1.614  -2.669  23.880  0.00  0.00    -0.371 OA
ATOM      8  C   UNL     1      -0.011  -0.973  24.322  0.00  0.00    +0.111 C 
ATOM      9  C   UNL     1      -1.188  -0.799  25.264  0.00  0.00    +0.164 C 
ATOM     10  C   UNL     1      -1.806  -2.190  25.221  0.00  0.00    +0.165 C 
ATOM     11  C   UNL     1      -0.618  -1.850  23.240  0.00  0.00    +0.181 C 
ENDROOT
BRANCH   9   3
ATOM      3  O   UNL     1      -0.792  -0.438  26.573  0.00  0.00    -0.388 OA
ATOM     27  H   UNL     1      -0.962   0.512  26.693  0.00  0.00    +0.210 HD
ENDBRANCH   9   3
BRANCH   8   5
ATOM      5  N   UNL     1       0.513   0.281  23.807  0.00  0.00    -0.305 NA
ATOM     26  H   UNL     1       1.073   0.732  24.532  0.00  0.00    +0.123 HD
BRANCH   5  13
ATOM     13  C   UNL     1       1.353   0.057  22.635  0.00  0.00    +0.118 C 
BRANCH  13  14
ATOM      7  N   UNL     1       4.596  -1.461  23.865  0.00  0.00    -0.263 NA
ATOM     14  C   UNL     1       2.806  -0.081  23.006  0.00  0.00    -0.015 A 
ATOM     16  C   UNL     1       3.690   0.981  22.851  0.00  0.00    +0.008 A 
ATOM     17  C   UNL     1       3.304  -1.271  23.513  0.00  0.00    +0.115 A 
ATOM     19  C   UNL     1       5.026   0.824  23.204  0.00  0.00    +0.020 A 
ATOM     22  C   UNL     1       5.425  -0.406  23.702  0.00  0.00    +0.111 A 
ENDBRANCH  13  14
ENDBRANCH   5  13
ENDBRANCH   8   5
BRANCH  10  12
ATOM     12  C   UNL     1      -3.286  -2.200  25.563  0.00  0.00    +0.138 C 
BRANCH  12   6
ATOM      4  O   UNL     1      -4.012  -0.439  23.414  0.00  0.00    -0.270 OA
ATOM      6  N   UNL     1      -3.801  -0.867  25.685  0.00  0.00    -0.309 N 
ATOM     15  C   UNL     1      -4.128  -0.081  24.583  0.00  0.00    +0.244 C 
ATOM     28  H   UNL     1      -3.855  -0.484  26.623  0.00  0.00    +0.149 HD
BRANCH  15  18
ATOM      1  F   UNL     1      -6.008   5.091  25.695  0.00  0.00    -0.205 F 
ATOM     18  C   UNL     1      -4.626   1.287  24.877  0.00  0.00    +0.037 A 
ATOM     20  C   UNL     1      -5.814   1.460  25.587  0.00  0.00    +0.016 A 
ATOM     21  C   UNL     1      -3.904   2.399  24.444  0.00  0.00    +0.016 A 
ATOM     23  C   UNL     1      -6.281   2.745  25.863  0.00  0.00    +0.039 A 
ATOM     24  C   UNL     1      -4.371   3.684  24.720  0.00  0.00    +0.039 A 
ATOM     25  C   UNL     1      -5.560   3.857  25.429  0.00  0.00    +0.123 A 
ENDBRANCH  15  18
ENDBRANCH  12   6
ENDBRANCH  10  12
TORSDOF 7
ENDMDL
MODEL 3
REMARK VINA RESULT:      -4.2      2.567      5.219
REMARK  Name = 75536645
REMARK  7 active torsions:
REMARK  status: ('A' for Active; 'I' for Inactive)
REMARK    1  A    between atoms: O_3  and  C_9
REMARK    2  A    between atoms: N_5  and  C_8
REMARK    3  A    between atoms: N_5  and  C_13
REMARK    4  A    between atoms: N_6  and  C_12
REMARK    5  A    between atoms: C_10  and  C_12
REMARK    6  A    between atoms: C_13  and  C_14
REMARK    7  A    between atoms: C_15  and  C_18
REMARK                            x       y       z     vdW  Elec       q    Type
REMARK                         _______ _______ _______ _____ _____    ______ ____
ROOT
ATOM      2  O   UNL     1       0.415   3.403  23.513  0.00  0.00    -0.371 OA
ATOM      8  C   UNL     1      -0.874   4.105  25.380  0.00  0.00    +0.111 C 
ATOM      9  C   UNL     1      -0.546   2.631  25.531  0.00  0.00    +0.164 C 
ATOM     10  C   UNL     1       0.657   2.502  24.605  0.00  0.00    +0.165 C 
ATOM     11  C   UNL     1      -0.628   4.318  23.896  0.00  0.00    +0.181 C 
ENDROOT
BRANCH   9   3
ATOM      3  O   UNL     1      -0.227   2.276  26.862  0.00  0.00    -0.388 OA
ATOM     27  H   UNL     1      -0.649   1.422  27.060  0.00  0.00    +0.210 HD
ENDBRANCH   9   3
BRANCH   8   5
ATOM      5  N   UNL     1      -2.228   4.446  25.784  0.00  0.00    -0.305 NA
ATOM     26  H   UNL     1      -2.253   5.425  26.074  0.00  0.00    +0.123 HD
BRANCH   5  13
ATOM     13  C   UNL     1      -3.167   4.258  24.683  0.00  0.00    +0.118 C 
BRANCH  13  14
ATOM      7  N   UNL     1      -5.927   2.706  26.758  0.00  0.00    -0.263 NA
ATOM     14  C   UNL     1      -4.324   3.380  25.077  0.00  0.00    -0.015 A 
ATOM     16  C   UNL     1      -4.860   2.457  24.186  0.00  0.00    +0.008 A 
ATOM     17  C   UNL     1      -4.888   3.464  26.340  0.00  0.00    +0.115 A 
ATOM     19  C   UNL     1      -5.928   1.658  24.579  0.00  0.00    +0.020 A 
ATOM     22  C   UNL     1      -6.420   1.820  25.864  0.00  0.00    +0.111 A 
ENDBRANCH  13  14
ENDBRANCH   5  13
ENDBRANCH   8   5
BRANCH  10  12
ATOM     12  C   UNL     1       0.856   1.093  24.074  0.00  0.00    +0.138 C 
BRANCH  12   6
ATOM      4  O   UNL     1       0.154  -1.402  25.310  0.00  0.00    -0.270 OA
ATOM      6  N   UNL     1      -0.394   0.400  23.955  0.00  0.00    -0.309 N 
ATOM     15  C   UNL     1      -0.648  -0.811  24.592  0.00  0.00    +0.244 C 
ATOM     28  H   UNL     1      -1.076   0.799  23.319  0.00  0.00    +0.149 HD
BRANCH  15  18
ATOM      1  F   UNL     1      -5.694  -3.093  23.666  0.00  0.00    -0.205 F 
ATOM     18  C   UNL     1      -1.983  -1.415  24.347  0.00  0.00    +0.037 A 
ATOM     20  C   UNL     1      -2.156  -2.795  24.458  0.00  0.00    +0.016 A 
ATOM     21  C   UNL     1      -3.064  -0.602  24.006  0.00  0.00    +0.016 A 
ATOM     23  C   UNL     1      -3.409  -3.362  24.228  0.00  0.00    +0.039 A 
ATOM     24  C   UNL     1      -4.317  -1.169  23.775  0.00  0.00    +0.039 A 
ATOM     25  C   UNL     1      -4.490  -2.549  23.887  0.00  0.00    +0.123 A 
ENDBRANCH  15  18
ENDBRANCH  12   6
ENDBRANCH  10  12
TORSDOF 7
ENDMDL
MODEL 4
REMARK VINA RESULT:      -3.9      3.140      6.605
REMARK  Name = 75536645
REMARK  7 active torsions:
REMARK  status: ('A' for Active; 'I' for Inactive)
REMARK    1  A    between atoms: O_3  and  C_9
REMARK    2  A    between atoms: N_5  and  C_8
REMARK    3  A    between atoms: N_5  and  C_13
REMARK    4  A    between atoms: N_6  and  C_12
REMARK    5  A    between atoms: C_10  and  C_12
REMARK    6  A    between atoms: C_13  and  C_14
REMARK    7  A    between atoms: C_15  and  C_18
REMARK                            x       y       z     vdW  Elec       q    Type
REMARK                         _______ _______ _______ _____ _____    ______ ____
ROOT
ATOM      2  O   UNL     1      -3.271   4.236  23.789  0.00  0.00    -0.371 OA
ATOM      8  C   UNL     1      -4.674   3.111  25.341  0.00  0.00    +0.111 C 
ATOM      9  C   UNL     1      -3.373   3.481  26.028  0.00  0.00    +0.164 C 
ATOM     10  C   UNL     1      -2.868   4.596  25.121  0.00  0.00    +0.165 C 
ATOM     11  C   UNL     1      -4.282   3.215  23.876  0.00  0.00    +0.181 C 
ENDROOT
BRANCH   9   3
ATOM      3  O   UNL     1      -3.564   3.928  27.356  0.00  0.00    -0.388 OA
ATOM     27  H   UNL     1      -4.491   3.764  27.603  0.00  0.00    +0.210 HD
ENDBRANCH   9   3
BRANCH   8   5
ATOM      5  N   UNL     1      -5.170   1.793  25.701  0.00  0.00    -0.305 NA
ATOM     26  H   UNL     1      -6.123   1.881  26.058  0.00  0.00    +0.123 HD
BRANCH   5  13
ATOM     13  C   UNL     1      -5.181   0.902  24.546  0.00  0.00    +0.118 C 
BRANCH  13  14
ATOM      7  N   UNL     1      -2.205  -1.108  25.747  0.00  0.00    -0.263 NA
ATOM     14  C   UNL     1      -4.205  -0.233  24.705  0.00  0.00    -0.015 A 
ATOM     16  C   UNL     1      -4.365  -1.421  24.000  0.00  0.00    +0.008 A 
ATOM     17  C   UNL     1      -3.118  -0.127  25.558  0.00  0.00    +0.115 A 
ATOM     19  C   UNL     1      -3.447  -2.451  24.166  0.00  0.00    +0.020 A 
ATOM     22  C   UNL     1      -2.394  -2.246  25.043  0.00  0.00    +0.111 A 
ENDBRANCH  13  14
ENDBRANCH   5  13
ENDBRANCH   8   5
BRANCH  10  12
ATOM     12  C   UNL     1      -1.361   4.774  25.171  0.00  0.00    +0.138 C 
BRANCH  12   6
ATOM      4  O   UNL     1      -0.138   2.419  26.267  0.00  0.00    -0.270 OA
ATOM      6  N   UNL     1      -0.690   3.738  24.440  0.00  0.00    -0.309 N 
ATOM     15  C   UNL     1      -0.123   2.626  25.057  0.00  0.00    +0.244 C 
ATOM     28  H   UNL     1      -0.580   3.884  23.442  0.00  0.00    +0.149 HD
BRANCH  15  18
ATOM      1  F   UNL     1       2.455  -1.040  21.676  0.00  0.00    -0.205 F 
ATOM     18  C   UNL     1       0.559   1.656  24.162  0.00  0.00    +0.037 A 
ATOM     20  C   UNL     1      -0.128   0.535  23.696  0.00  0.00    +0.016 A 
ATOM     21  C   UNL     1       1.886   1.866  23.789  0.00  0.00    +0.016 A 
ATOM     23  C   UNL     1       0.512  -0.375  22.856  0.00  0.00    +0.039 A 
ATOM     24  C   UNL     1       2.527   0.954  22.950  0.00  0.00    +0.039 A 
ATOM     25  C   UNL     1       1.840  -0.166  22.483  0.00  0.00    +0.123 A 
ENDBRANCH  15  18
ENDBRANCH  12   6
ENDBRANCH  10  12
TORSDOF 7
ENDMDL
MODEL 5
REMARK VINA RESULT:      -2.9     17.115     19.409
REMARK  Name = 75536645
REMARK  7 active torsions:
REMARK  status: ('A' for Active; 'I' for Inactive)
REMARK    1  A    between atoms: O_3  and  C_9
REMARK    2  A    between atoms: N_5  and  C_8
REMARK    3  A    between atoms: N_5  and  C_13
REMARK    4  A    between atoms: N_6  and  C_12
REMARK    5  A    between atoms: C_10  and  C_12
REMARK    6  A    between atoms: C_13  and  C_14
REMARK    7  A    between atoms: C_15  and  C_18
REMARK                            x       y       z     vdW  Elec       q    Type
REMARK                         _______ _______ _______ _____ _____    ______ ____
ROOT
ATOM      2  O   UNL     1      13.944  -6.662  30.303  0.00  0.00    -0.371 OA
ATOM      8  C   UNL     1      15.486  -7.251  28.594  0.00  0.00    +0.111 C 
ATOM      9  C   UNL     1      15.230  -8.464  29.470  0.00  0.00    +0.164 C 
ATOM     10  C   UNL     1      13.903  -8.086  30.114  0.00  0.00    +0.165 C 
ATOM     11  C   UNL     1      15.006  -6.124  29.493  0.00  0.00    +0.181 C 
ENDROOT
BRANCH   9   3
ATOM      3  O   UNL     1      15.132  -9.664  28.727  0.00  0.00    -0.388 OA
ATOM     27  H   UNL     1      14.253 -10.049  28.883  0.00  0.00    +0.210 HD
ENDBRANCH   9   3
BRANCH   8   5
ATOM      5  N   UNL     1      16.875  -7.104  28.195  0.00  0.00    -0.305 NA
ATOM     26  H   UNL     1      17.077  -7.762  27.441  0.00  0.00    +0.123 HD
BRANCH   5  13
ATOM     13  C   UNL     1      17.145  -5.750  27.721  0.00  0.00    +0.118 C 
BRANCH  13  14
ATOM      7  N   UNL     1      17.390  -6.850  24.107  0.00  0.00    -0.263 NA
ATOM     14  C   UNL     1      17.211  -5.686  26.219  0.00  0.00    -0.015 A 
ATOM     16  C   UNL     1      17.159  -4.467  25.550  0.00  0.00    +0.008 A 
ATOM     17  C   UNL     1      17.326  -6.838  25.458  0.00  0.00    +0.115 A 
ATOM     19  C   UNL     1      17.224  -4.438  24.162  0.00  0.00    +0.020 A 
ATOM     22  C   UNL     1      17.338  -5.646  23.493  0.00  0.00    +0.111 A 
ENDBRANCH  13  14
ENDBRANCH   5  13
ENDBRANCH   8   5
BRANCH  10  12
ATOM     12  C   UNL     1      13.665  -8.773  31.448  0.00  0.00    +0.138 C 
BRANCH  12   6
ATOM      4  O   UNL     1      11.523  -7.168  32.484  0.00  0.00    -0.270 OA
ATOM      6  N   UNL     1      12.294  -9.167  31.594  0.00  0.00    -0.309 N 
ATOM     15  C   UNL     1      11.317  -8.319  32.109  0.00  0.00    +0.244 C 
ATOM     28  H   UNL     1      12.071 -10.130  31.368  0.00  0.00    +0.149 HD
BRANCH  15  18
ATOM      1  F   UNL     1       6.144 -10.460  32.531  0.00  0.00    -0.205 F 
ATOM     18  C   UNL     1       9.948  -8.885  32.221  0.00  0.00    +0.037 A 
ATOM     20  C   UNL     1       9.739 -10.249  32.017  0.00  0.00    +0.016 A 
ATOM     21  C   UNL     1       8.873  -8.053  32.530  0.00  0.00    +0.016 A 
ATOM     23  C   UNL     1       8.454 -10.781  32.121  0.00  0.00    +0.039 A 
ATOM     24  C   UNL     1       7.587  -8.585  32.634  0.00  0.00    +0.039 A 
ATOM     25  C   UNL     1       7.378  -9.949  32.430  0.00  0.00    +0.123 A 
ENDBRANCH  15  18
ENDBRANCH  12   6
ENDBRANCH  10  12
TORSDOF 7
ENDMDL
MODEL 6
REMARK VINA RESULT:      -2.9      2.021      3.147
REMARK  Name = 75536645
REMARK  7 active torsions:
REMARK  status: ('A' for Active; 'I' for Inactive)
REMARK    1  A    between atoms: O_3  and  C_9
REMARK    2  A    between atoms: N_5  and  C_8
REMARK    3  A    between atoms: N_5  and  C_13
REMARK    4  A    between atoms: N_6  and  C_12
REMARK    5  A    between atoms: C_10  and  C_12
REMARK    6  A    between atoms: C_13  and  C_14
REMARK    7  A    between atoms: C_15  and  C_18
REMARK                            x       y       z     vdW  Elec       q    Type
REMARK                         _______ _______ _______ _____ _____    ______ ____
ROOT
ATOM      2  O   UNL     1      -4.289  -2.366  23.464  0.00  0.00    -0.371 OA
ATOM      8  C   UNL     1      -2.534  -2.635  25.041  0.00  0.00    +0.111 C 
ATOM      9  C   UNL     1      -3.310  -1.375  25.374  0.00  0.00    +0.164 C 
ATOM     10  C   UNL     1      -4.627  -1.643  24.658  0.00  0.00    +0.165 C 
ATOM     11  C   UNL     1      -2.948  -2.871  23.598  0.00  0.00    +0.181 C 
ENDROOT
BRANCH   9   3
ATOM      3  O   UNL     1      -3.493  -1.198  26.766  0.00  0.00    -0.388 OA
ATOM     27  H   UNL     1      -3.021  -0.391  27.035  0.00  0.00    +0.210 HD
ENDBRANCH   9   3
BRANCH   8   5
ATOM      5  N   UNL     1      -1.096  -2.495  25.201  0.00  0.00    -0.305 NA
ATOM     26  H   UNL     1      -0.672  -3.423  25.238  0.00  0.00    +0.123 HD
BRANCH   5  13
ATOM     13  C   UNL     1      -0.514  -1.756  24.086  0.00  0.00    +0.118 C 
BRANCH  13  14
ATOM      7  N   UNL     1       0.774   1.799  23.889  0.00  0.00    -0.263 NA
ATOM     14  C   UNL     1      -0.269  -0.313  24.437  0.00  0.00    -0.015 A 
ATOM     16  C   UNL     1      -0.824   0.251  25.582  0.00  0.00    +0.008 A 
ATOM     17  C   UNL     1       0.515   0.496  23.631  0.00  0.00    +0.115 A 
ATOM     19  C   UNL     1      -0.579   1.587  25.881  0.00  0.00    +0.020 A 
ATOM     22  C   UNL     1       0.220   2.310  25.011  0.00  0.00    +0.111 A 
ENDBRANCH  13  14
ENDBRANCH   5  13
ENDBRANCH   8   5
BRANCH  10  12
ATOM     12  C   UNL     1      -5.382  -0.376  24.295  0.00  0.00    +0.138 C 
BRANCH  12   6
ATOM      4  O   UNL     1      -5.901   1.977  25.856  0.00  0.00    -0.270 OA
ATOM      6  N   UNL     1      -4.541   0.781  24.407  0.00  0.00    -0.309 N 
ATOM     15  C   UNL     1      -4.874   1.882  25.191  0.00  0.00    +0.244 C 
ATOM     28  H   UNL     1      -3.709   0.796  23.826  0.00  0.00    +0.149 HD
BRANCH  15  18
ATOM      1  F   UNL     1      -1.226   6.150  25.150  0.00  0.00    -0.205 F 
ATOM     18  C   UNL     1      -3.909   3.012  25.180  0.00  0.00    +0.037 A 
ATOM     20  C   UNL     1      -3.620   3.694  26.362  0.00  0.00    +0.016 A 
ATOM     21  C   UNL     1      -3.292   3.390  23.988  0.00  0.00    +0.016 A 
ATOM     23  C   UNL     1      -2.714   4.754  26.352  0.00  0.00    +0.039 A 
ATOM     24  C   UNL     1      -2.386   4.451  23.978  0.00  0.00    +0.039 A 
ATOM     25  C   UNL     1      -2.097   5.133  25.160  0.00  0.00    +0.123 A 
ENDBRANCH  15  18
ENDBRANCH  12   6
ENDBRANCH  10  12
TORSDOF 7
ENDMDL
MODEL 7
REMARK VINA RESULT:      -1.8     16.603     19.189
REMARK  Name = 75536645
REMARK  7 active torsions:
REMARK  status: ('A' for Active; 'I' for Inactive)
REMARK    1  A    between atoms: O_3  and  C_9
REMARK    2  A    between atoms: N_5  and  C_8
REMARK    3  A    between atoms: N_5  and  C_13
REMARK    4  A    between atoms: N_6  and  C_12
REMARK    5  A    between atoms: C_10  and  C_12
REMARK    6  A    between atoms: C_13  and  C_14
REMARK    7  A    between atoms: C_15  and  C_18
REMARK                            x       y       z     vdW  Elec       q    Type
REMARK                         _______ _______ _______ _____ _____    ______ ____
ROOT
ATOM      2  O   UNL     1      13.479  -6.729  30.959  0.00  0.00    -0.371 OA
ATOM      8  C   UNL     1      15.351  -7.861  30.034  0.00  0.00    +0.111 C 
ATOM      9  C   UNL     1      14.837  -8.647  31.225  0.00  0.00    +0.164 C 
ATOM     10  C   UNL     1      13.414  -8.114  31.336  0.00  0.00    +0.165 C 
ATOM     11  C   UNL     1      14.728  -6.497  30.281  0.00  0.00    +0.181 C 
ENDROOT
BRANCH   9   3
ATOM      3  O   UNL     1      14.860 -10.045  31.008  0.00  0.00    -0.388 OA
ATOM     27  H   UNL     1      13.948 -10.378  31.066  0.00  0.00    +0.210 HD
ENDBRANCH   9   3
BRANCH   8   5
ATOM      5  N   UNL     1      16.802  -7.812  29.949  0.00  0.00    -0.305 NA
ATOM     26  H   UNL     1      17.193  -7.911  30.887  0.00  0.00    +0.123 HD
BRANCH   5  13
ATOM     13  C   UNL     1      17.315  -8.889  29.110  0.00  0.00    +0.118 C 
BRANCH  13  14
ATOM      7  N   UNL     1      15.785  -8.036  25.754  0.00  0.00    -0.263 NA
ATOM     14  C   UNL     1      16.533  -9.023  27.831  0.00  0.00    -0.015 A 
ATOM     16  C   UNL     1      15.854 -10.198  27.525  0.00  0.00    +0.008 A 
ATOM     17  C   UNL     1      16.468  -7.981  26.920  0.00  0.00    +0.115 A 
ATOM     19  C   UNL     1      15.139 -10.292  26.337  0.00  0.00    +0.020 A 
ATOM     22  C   UNL     1      15.136  -9.193  25.493  0.00  0.00    +0.111 A 
ENDBRANCH  13  14
ENDBRANCH   5  13
ENDBRANCH   8   5
BRANCH  10  12
ATOM     12  C   UNL     1      12.835  -8.239  32.735  0.00  0.00    +0.138 C 
BRANCH  12   6
ATOM      4  O   UNL     1      10.871  -6.146  32.643  0.00  0.00    -0.270 OA
ATOM      6  N   UNL     1      11.411  -8.402  32.695  0.00  0.00    -0.309 N 
ATOM     15  C   UNL     1      10.529  -7.326  32.652  0.00  0.00    +0.244 C 
ATOM     28  H   UNL     1      11.059  -9.351  32.772  0.00  0.00    +0.149 HD
BRANCH  15  18
ATOM      1  F   UNL     1       5.060  -8.596  32.610  0.00  0.00    -0.205 F 
ATOM     18  C   UNL     1       9.082  -7.662  32.641  0.00  0.00    +0.037 A 
ATOM     20  C   UNL     1       8.132  -6.666  32.871  0.00  0.00    +0.016 A 
ATOM     21  C   UNL     1       8.673  -8.973  32.401  0.00  0.00    +0.016 A 
ATOM     23  C   UNL     1       6.774  -6.981  32.860  0.00  0.00    +0.039 A 
ATOM     24  C   UNL     1       7.314  -9.289  32.390  0.00  0.00    +0.039 A 
ATOM     25  C   UNL     1       6.365  -8.293  32.620  0.00  0.00    +0.123 A 
ENDBRANCH  15  18
ENDBRANCH  12   6
ENDBRANCH  10  12
TORSDOF 7
ENDMDL
