MODEL 1
REMARK VINA RESULT:      -3.4      0.000      0.000
REMARK  Name = 11885189
REMARK  3 active torsions:
REMARK  status: ('A' for Active; 'I' for Inactive)
REMARK    1  A    between atoms: S_1  and  N_7
REMARK    2  A    between atoms: S_1  and  C_20
REMARK    3  A    between atoms: C_18  and  C_21
REMARK                            x       y       z     vdW  Elec       q    Type
REMARK                         _______ _______ _______ _____ _____    ______ ____
ROOT
ATOM      6  O   UNL     1      15.343  -7.907  25.902  0.00  0.00    -0.267 OA
ATOM      7  N   UNL     1      13.958  -8.182  30.683  0.00  0.00    -0.175 NA
ATOM      8  N   UNL     1      15.854  -8.220  28.157  0.00  0.00    -0.311 N 
ATOM      9  C   UNL     1      14.921 -10.174  29.525  0.00  0.00    +0.025 C 
ATOM     10  C   UNL     1      16.417  -8.544  30.591  0.00  0.00    +0.052 C 
ATOM     11  C   UNL     1      16.201 -10.033  30.336  0.00  0.00    +0.017 C 
ATOM     12  C   UNL     1      13.722  -9.605  30.301  0.00  0.00    +0.114 C 
ATOM     13  C   UNL     1      15.244  -7.988  31.419  0.00  0.00    +0.119 C 
ATOM     14  C   UNL     1      15.115  -9.490  28.166  0.00  0.00    +0.130 C 
ATOM     15  C   UNL     1      16.550  -7.780  29.286  0.00  0.00    +0.026 A 
ATOM     16  C   UNL     1      17.313  -6.678  29.220  0.00  0.00    +0.022 A 
ATOM     17  C   UNL     1      15.913  -7.531  26.929  0.00  0.00    +0.260 A 
ATOM     18  C   UNL     1      16.747  -6.279  26.897  0.00  0.00    +0.053 A 
ATOM     19  C   UNL     1      17.405  -5.916  28.008  0.00  0.00    +0.016 A 
ENDROOT
BRANCH  18  21
ATOM      3  S   UNL     1      17.405  -6.159  24.219  0.00  0.00    -0.096 S 
ATOM     21  C   UNL     1      16.841  -5.455  25.678  0.00  0.00    +0.024 A 
ATOM     24  C   UNL     1      16.529  -4.118  25.509  0.00  0.00    +0.016 A 
ATOM     26  C   UNL     1      16.755  -3.675  24.174  0.00  0.00    +0.008 A 
ATOM     27  C   UNL     1      17.231  -4.685  23.368  0.00  0.00    +0.046 A 
ENDBRANCH  18  21
BRANCH   7   1
ATOM      1  S   UNL     1      12.606  -7.355  31.327  0.00  0.00    +0.067 S 
ATOM      4  O   UNL     1      11.903  -6.706  30.240  0.00  0.00    -0.152 OA
ATOM      5  O   UNL     1      13.010  -6.635  32.517  0.00  0.00    -0.152 OA
BRANCH   1  20
ATOM      2  S   UNL     1       9.947  -7.961  32.381  0.00  0.00    -0.077 S 
ATOM     20  C   UNL     1      11.463  -8.589  31.939  0.00  0.00    +0.143 A 
ATOM     22  C   UNL     1      11.578  -9.928  32.117  0.00  0.00    +0.036 A 
ATOM     23  C   UNL     1      10.373 -10.481  32.641  0.00  0.00    +0.010 A 
ATOM     25  C   UNL     1       9.404  -9.521  32.831  0.00  0.00    +0.047 A 
ENDBRANCH   1  20
ENDBRANCH   7   1
TORSDOF 3
ENDMDL
MODEL 2
REMARK VINA RESULT:      -3.2      2.263      7.818
REMARK  Name = 11885189
REMARK  3 active torsions:
REMARK  status: ('A' for Active; 'I' for Inactive)
REMARK    1  A    between atoms: S_1  and  N_7
REMARK    2  A    between atoms: S_1  and  C_20
REMARK    3  A    between atoms: C_18  and  C_21
REMARK                            x       y       z     vdW  Elec       q    Type
REMARK                         _______ _______ _______ _____ _____    ______ ____
ROOT
ATOM      6  O   UNL     1      11.079  -7.041  31.269  0.00  0.00    -0.267 OA
ATOM      7  N   UNL     1      15.364  -9.248  29.998  0.00  0.00    -0.175 NA
ATOM      8  N   UNL     1      13.036  -8.174  31.843  0.00  0.00    -0.311 N 
ATOM      9  C   UNL     1      15.368  -7.199  31.426  0.00  0.00    +0.025 C 
ATOM     10  C   UNL     1      15.139  -9.411  32.469  0.00  0.00    +0.052 C 
ATOM     11  C   UNL     1      15.777  -8.035  32.632  0.00  0.00    +0.017 C 
ATOM     12  C   UNL     1      15.864  -7.848  30.124  0.00  0.00    +0.114 C 
ATOM     13  C   UNL     1      15.681 -10.083  31.195  0.00  0.00    +0.119 C 
ATOM     14  C   UNL     1      13.845  -7.014  31.444  0.00  0.00    +0.130 C 
ATOM     15  C   UNL     1      13.626  -9.308  32.407  0.00  0.00    +0.026 A 
ATOM     16  C   UNL     1      12.858 -10.306  32.871  0.00  0.00    +0.022 A 
ATOM     17  C   UNL     1      11.638  -8.039  31.727  0.00  0.00    +0.260 A 
ATOM     18  C   UNL     1      10.805  -9.191  32.223  0.00  0.00    +0.053 A 
ATOM     19  C   UNL     1      11.428 -10.245  32.770  0.00  0.00    +0.016 A 
ENDROOT
BRANCH  18  21
ATOM      3  S   UNL     1       8.525 -10.525  31.423  0.00  0.00    -0.096 S 
ATOM     21  C   UNL     1       9.336  -9.177  32.108  0.00  0.00    +0.024 A 
ATOM     24  C   UNL     1       8.446  -8.188  32.486  0.00  0.00    +0.016 A 
ATOM     26  C   UNL     1       7.094  -8.543  32.211  0.00  0.00    +0.008 A 
ATOM     27  C   UNL     1       6.994  -9.789  31.633  0.00  0.00    +0.046 A 
ENDBRANCH  18  21
BRANCH   7   1
ATOM      1  S   UNL     1      15.632  -9.995  28.482  0.00  0.00    +0.067 S 
ATOM      4  O   UNL     1      14.380 -10.555  28.017  0.00  0.00    -0.152 OA
ATOM      5  O   UNL     1      16.846 -10.781  28.546  0.00  0.00    -0.152 OA
BRANCH   1  20
ATOM      2  S   UNL     1      17.282  -9.099  26.242  0.00  0.00    -0.077 S 
ATOM     20  C   UNL     1      16.019  -8.702  27.307  0.00  0.00    +0.143 A 
ATOM     22  C   UNL     1      15.497  -7.467  27.107  0.00  0.00    +0.036 A 
ATOM     23  C   UNL     1      16.152  -6.801  26.031  0.00  0.00    +0.010 A 
ATOM     25  C   UNL     1      17.144  -7.576  25.471  0.00  0.00    +0.047 A 
ENDBRANCH   1  20
ENDBRANCH   7   1
TORSDOF 3
ENDMDL
MODEL 3
REMARK VINA RESULT:      -1.1      2.903      7.119
REMARK  Name = 11885189
REMARK  3 active torsions:
REMARK  status: ('A' for Active; 'I' for Inactive)
REMARK    1  A    between atoms: S_1  and  N_7
REMARK    2  A    between atoms: S_1  and  C_20
REMARK    3  A    between atoms: C_18  and  C_21
REMARK                            x       y       z     vdW  Elec       q    Type
REMARK                         _______ _______ _______ _____ _____    ______ ____
ROOT
ATOM      6  O   UNL     1      10.974  -6.254  30.712  0.00  0.00    -0.267 OA
ATOM      7  N   UNL     1      15.764  -7.342  29.866  0.00  0.00    -0.175 NA
ATOM      8  N   UNL     1      13.135  -6.675  31.484  0.00  0.00    -0.311 N 
ATOM      9  C   UNL     1      15.123  -5.166  30.911  0.00  0.00    +0.025 C 
ATOM     10  C   UNL     1      15.462  -7.144  32.326  0.00  0.00    +0.052 C 
ATOM     11  C   UNL     1      15.684  -5.637  32.246  0.00  0.00    +0.017 C 
ATOM     12  C   UNL     1      15.849  -5.858  29.745  0.00  0.00    +0.114 C 
ATOM     13  C   UNL     1      16.237  -7.840  31.193  0.00  0.00    +0.119 C 
ATOM     14  C   UNL     1      13.610  -5.419  30.890  0.00  0.00    +0.130 C 
ATOM     15  C   UNL     1      13.985  -7.484  32.241  0.00  0.00    +0.026 A 
ATOM     16  C   UNL     1      13.501  -8.566  32.872  0.00  0.00    +0.022 A 
ATOM     17  C   UNL     1      11.762  -6.962  31.342  0.00  0.00    +0.260 A 
ATOM     18  C   UNL     1      11.257  -8.202  32.030  0.00  0.00    +0.053 A 
ATOM     19  C   UNL     1      12.118  -8.930  32.756  0.00  0.00    +0.016 A 
ENDROOT
BRANCH  18  21
ATOM      3  S   UNL     1       8.627  -7.741  32.730  0.00  0.00    -0.096 S 
ATOM     21  C   UNL     1       9.850  -8.622  31.909  0.00  0.00    +0.024 A 
ATOM     24  C   UNL     1       9.319  -9.682  31.196  0.00  0.00    +0.016 A 
ATOM     26  C   UNL     1       7.903  -9.767  31.327  0.00  0.00    +0.008 A 
ATOM     27  C   UNL     1       7.398  -8.772  32.133  0.00  0.00    +0.046 A 
ENDBRANCH  18  21
BRANCH   7   1
ATOM      1  S   UNL     1      16.309  -8.227  28.507  0.00  0.00    +0.067 S 
ATOM      4  O   UNL     1      17.404  -9.079  28.919  0.00  0.00    -0.152 OA
ATOM      5  O   UNL     1      16.418  -7.336  27.371  0.00  0.00    -0.152 OA
BRANCH   1  20
ATOM      2  S   UNL     1      13.956  -9.760  29.320  0.00  0.00    -0.077 S 
ATOM     20  C   UNL     1      15.000  -9.357  28.042  0.00  0.00    +0.143 A 
ATOM     22  C   UNL     1      14.687  -9.952  26.864  0.00  0.00    +0.036 A 
ATOM     23  C   UNL     1      13.536 -10.781  27.000  0.00  0.00    +0.010 A 
ATOM     25  C   UNL     1      13.037 -10.768  28.284  0.00  0.00    +0.047 A 
ENDBRANCH   1  20
ENDBRANCH   7   1
TORSDOF 3
ENDMDL
