MODEL 1
REMARK VINA RESULT:      -6.6      0.000      0.000
REMARK  Name = 56775611
REMARK  7 active torsions:
REMARK  status: ('A' for Active; 'I' for Inactive)
REMARK    1  A    between atoms: O_3  and  C_17
REMARK    2  A    between atoms: N_4  and  C_7
REMARK    3  A    between atoms: N_4  and  C_10
REMARK    4  A    between atoms: C_6  and  C_10
REMARK    5  A    between atoms: C_7  and  C_13
REMARK    6  A    between atoms: C_13  and  C_14
REMARK    7  A    between atoms: C_16  and  C_17
REMARK                            x       y       z     vdW  Elec       q    Type
REMARK                         _______ _______ _______ _____ _____    ______ ____
ROOT
ATOM      1  O   UNL     1       1.449   0.994  23.668  0.00  0.00    -0.376 OA
ATOM      7  C   UNL     1      -0.669   1.037  23.932  0.00  0.00    +0.072 C 
ATOM     11  C   UNL     1       0.524   1.917  24.288  0.00  0.00    +0.184 C 
ATOM     12  C   UNL     1       0.355   0.163  23.218  0.00  0.00    +0.184 C 
ENDROOT
BRANCH   7   4
ATOM      4  N   UNL     1      -1.121   0.343  25.142  0.00  0.00    -0.306 NA
ATOM     18  H   UNL     1      -1.859   0.814  25.663  0.00  0.00    +0.123 HD
BRANCH   4  10
ATOM     10  C   UNL     1      -1.548  -1.007  24.796  0.00  0.00    +0.085 C 
BRANCH  10   6
ATOM      6  C   UNL     1      -2.981  -1.234  25.153  0.00  0.00    +0.003 C 
ATOM      8  C   UNL     1      -3.579  -2.596  24.955  0.00  0.00    +0.005 C 
ATOM      9  C   UNL     1      -3.982  -1.461  24.059  0.00  0.00    +0.005 C 
ENDBRANCH  10   6
ENDBRANCH   4  10
ENDBRANCH   7   4
BRANCH   7  13
ATOM     13  C   UNL     1      -1.797   1.627  23.142  0.00  0.00    +0.085 C 
BRANCH  13  14
ATOM      2  O   UNL     1      -3.376   3.853  25.509  0.00  0.00    -0.357 OA
ATOM      5  N   UNL     1      -2.265   3.362  24.834  0.00  0.00    -0.083 NA
ATOM     14  C   UNL     1      -2.741   2.396  24.042  0.00  0.00    +0.086 A 
ATOM     15  C   UNL     1      -4.131   2.235  24.174  0.00  0.00    +0.073 A 
ATOM     16  C   UNL     1      -4.481   3.174  25.107  0.00  0.00    +0.163 A 
BRANCH  16  17
ATOM     17  C   UNL     1      -5.753   3.568  25.726  0.00  0.00    +0.232 C 
BRANCH  17   3
ATOM      3  O   UNL     1      -6.281   2.488  26.502  0.00  0.00    -0.387 OA
ATOM     19  H   UNL     1      -5.951   2.606  27.410  0.00  0.00    +0.210 HD
ENDBRANCH  17   3
ENDBRANCH  16  17
ENDBRANCH  13  14
ENDBRANCH   7  13
TORSDOF 7
ENDMDL
MODEL 2
REMARK VINA RESULT:      -6.2      1.782      4.845
REMARK  Name = 56775611
REMARK  7 active torsions:
REMARK  status: ('A' for Active; 'I' for Inactive)
REMARK    1  A    between atoms: O_3  and  C_17
REMARK    2  A    between atoms: N_4  and  C_7
REMARK    3  A    between atoms: N_4  and  C_10
REMARK    4  A    between atoms: C_6  and  C_10
REMARK    5  A    between atoms: C_7  and  C_13
REMARK    6  A    between atoms: C_13  and  C_14
REMARK    7  A    between atoms: C_16  and  C_17
REMARK                            x       y       z     vdW  Elec       q    Type
REMARK                         _______ _______ _______ _____ _____    ______ ____
ROOT
ATOM      1  O   UNL     1      -3.913   3.022  23.274  0.00  0.00    -0.376 OA
ATOM      7  C   UNL     1      -3.096   1.454  24.469  0.00  0.00    +0.072 C 
ATOM     11  C   UNL     1      -2.889   2.021  23.069  0.00  0.00    +0.184 C 
ATOM     12  C   UNL     1      -4.093   2.594  24.643  0.00  0.00    +0.184 C 
ENDROOT
BRANCH   7   4
ATOM      4  N   UNL     1      -3.835   0.192  24.362  0.00  0.00    -0.306 NA
ATOM     18  H   UNL     1      -3.614  -0.372  23.544  0.00  0.00    +0.123 HD
BRANCH   4  10
ATOM     10  C   UNL     1      -3.630  -0.594  25.573  0.00  0.00    +0.085 C 
BRANCH  10   6
ATOM      6  C   UNL     1      -3.592  -2.057  25.272  0.00  0.00    +0.003 C 
ATOM      8  C   UNL     1      -2.479  -2.602  24.426  0.00  0.00    +0.005 C 
ATOM      9  C   UNL     1      -3.873  -2.525  23.874  0.00  0.00    +0.005 C 
ENDBRANCH  10   6
ENDBRANCH   4  10
ENDBRANCH   7   4
BRANCH   7  13
ATOM     13  C   UNL     1      -1.924   1.367  25.398  0.00  0.00    +0.085 C 
BRANCH  13  14
ATOM      2  O   UNL     1       1.325   1.741  23.864  0.00  0.00    -0.357 OA
ATOM      5  N   UNL     1       0.286   2.190  24.668  0.00  0.00    -0.083 NA
ATOM     14  C   UNL     1      -0.631   1.220  24.622  0.00  0.00    +0.086 A 
ATOM     15  C   UNL     1      -0.230   0.145  23.811  0.00  0.00    +0.073 A 
ATOM     16  C   UNL     1       1.006   0.522  23.358  0.00  0.00    +0.163 A 
BRANCH  16  17
ATOM     17  C   UNL     1       2.001  -0.104  22.478  0.00  0.00    +0.232 C 
BRANCH  17   3
ATOM      3  O   UNL     1       3.172   0.714  22.394  0.00  0.00    -0.387 OA
ATOM     19  H   UNL     1       3.753   0.451  23.128  0.00  0.00    +0.210 HD
ENDBRANCH  17   3
ENDBRANCH  16  17
ENDBRANCH  13  14
ENDBRANCH   7  13
TORSDOF 7
ENDMDL
MODEL 3
REMARK VINA RESULT:      -6.2      2.282      4.226
REMARK  Name = 56775611
REMARK  7 active torsions:
REMARK  status: ('A' for Active; 'I' for Inactive)
REMARK    1  A    between atoms: O_3  and  C_17
REMARK    2  A    between atoms: N_4  and  C_7
REMARK    3  A    between atoms: N_4  and  C_10
REMARK    4  A    between atoms: C_6  and  C_10
REMARK    5  A    between atoms: C_7  and  C_13
REMARK    6  A    between atoms: C_13  and  C_14
REMARK    7  A    between atoms: C_16  and  C_17
REMARK                            x       y       z     vdW  Elec       q    Type
REMARK                         _______ _______ _______ _____ _____    ______ ____
ROOT
ATOM      1  O   UNL     1      -3.332  -2.804  24.999  0.00  0.00    -0.376 OA
ATOM      7  C   UNL     1      -2.549  -0.821  25.097  0.00  0.00    +0.072 C 
ATOM     11  C   UNL     1      -3.507  -1.689  25.903  0.00  0.00    +0.184 C 
ATOM     12  C   UNL     1      -2.343  -2.068  24.244  0.00  0.00    +0.184 C 
ENDROOT
BRANCH   7   4
ATOM      4  N   UNL     1      -3.328   0.154  24.327  0.00  0.00    -0.306 NA
ATOM     18  H   UNL     1      -3.738  -0.202  23.465  0.00  0.00    +0.123 HD
BRANCH   4  10
ATOM     10  C   UNL     1      -4.372   0.718  25.174  0.00  0.00    +0.085 C 
BRANCH  10   6
ATOM      6  C   UNL     1      -4.967   1.944  24.561  0.00  0.00    +0.003 C 
ATOM      8  C   UNL     1      -4.072   2.915  23.848  0.00  0.00    +0.005 C 
ATOM      9  C   UNL     1      -4.675   3.283  25.172  0.00  0.00    +0.005 C 
ENDBRANCH  10   6
ENDBRANCH   4  10
ENDBRANCH   7   4
BRANCH   7  13
ATOM     13  C   UNL     1      -1.367  -0.210  25.786  0.00  0.00    +0.085 C 
BRANCH  13  14
ATOM      2  O   UNL     1      -0.465   2.610  23.715  0.00  0.00    -0.357 OA
ATOM      5  N   UNL     1      -0.678   1.253  23.920  0.00  0.00    -0.083 NA
ATOM     14  C   UNL     1      -1.046   1.150  25.200  0.00  0.00    +0.086 A 
ATOM     15  C   UNL     1      -1.083   2.397  25.847  0.00  0.00    +0.073 A 
ATOM     16  C   UNL     1      -0.710   3.281  24.870  0.00  0.00    +0.163 A 
BRANCH  16  17
ATOM     17  C   UNL     1      -0.532   4.738  24.831  0.00  0.00    +0.232 C 
BRANCH  17   3
ATOM      3  O   UNL     1      -1.713   5.394  25.299  0.00  0.00    -0.387 OA
ATOM     19  H   UNL     1      -1.797   5.184  26.245  0.00  0.00    +0.210 HD
ENDBRANCH  17   3
ENDBRANCH  16  17
ENDBRANCH  13  14
ENDBRANCH   7  13
TORSDOF 7
ENDMDL
MODEL 4
REMARK VINA RESULT:      -6.0      1.290      4.771
REMARK  Name = 56775611
REMARK  7 active torsions:
REMARK  status: ('A' for Active; 'I' for Inactive)
REMARK    1  A    between atoms: O_3  and  C_17
REMARK    2  A    between atoms: N_4  and  C_7
REMARK    3  A    between atoms: N_4  and  C_10
REMARK    4  A    between atoms: C_6  and  C_10
REMARK    5  A    between atoms: C_7  and  C_13
REMARK    6  A    between atoms: C_13  and  C_14
REMARK    7  A    between atoms: C_16  and  C_17
REMARK                            x       y       z     vdW  Elec       q    Type
REMARK                         _______ _______ _______ _____ _____    ______ ____
ROOT
ATOM      1  O   UNL     1      -5.520   3.319  25.721  0.00  0.00    -0.376 OA
ATOM      7  C   UNL     1      -3.988   2.218  24.724  0.00  0.00    +0.072 C 
ATOM     11  C   UNL     1      -5.509   2.309  24.687  0.00  0.00    +0.184 C 
ATOM     12  C   UNL     1      -4.075   3.350  25.740  0.00  0.00    +0.184 C 
ENDROOT
BRANCH   7   4
ATOM      4  N   UNL     1      -3.605   0.986  25.421  0.00  0.00    -0.306 NA
ATOM     18  H   UNL     1      -3.892   0.932  26.397  0.00  0.00    +0.123 HD
BRANCH   4  10
ATOM     10  C   UNL     1      -4.122  -0.165  24.691  0.00  0.00    +0.085 C 
BRANCH  10   6
ATOM      6  C   UNL     1      -3.628  -1.448  25.276  0.00  0.00    +0.003 C 
ATOM      8  C   UNL     1      -2.350  -2.043  24.763  0.00  0.00    +0.005 C 
ATOM      9  C   UNL     1      -3.663  -2.695  24.443  0.00  0.00    +0.005 C 
ENDBRANCH  10   6
ENDBRANCH   4  10
ENDBRANCH   7   4
BRANCH   7  13
ATOM     13  C   UNL     1      -3.215   2.436  23.459  0.00  0.00    +0.085 C 
BRANCH  13  14
ATOM      2  O   UNL     1       0.248   1.914  24.345  0.00  0.00    -0.357 OA
ATOM      5  N   UNL     1      -0.957   2.598  24.442  0.00  0.00    -0.083 NA
ATOM     14  C   UNL     1      -1.786   1.959  23.611  0.00  0.00    +0.086 A 
ATOM     15  C   UNL     1      -1.165   0.874  22.968  0.00  0.00    +0.073 A 
ATOM     16  C   UNL     1       0.111   0.889  23.464  0.00  0.00    +0.163 A 
BRANCH  16  17
ATOM     17  C   UNL     1       1.299   0.056  23.239  0.00  0.00    +0.232 C 
BRANCH  17   3
ATOM      3  O   UNL     1       2.458   0.878  23.076  0.00  0.00    -0.387 OA
ATOM     19  H   UNL     1       3.173   0.461  23.587  0.00  0.00    +0.210 HD
ENDBRANCH  17   3
ENDBRANCH  16  17
ENDBRANCH  13  14
ENDBRANCH   7  13
TORSDOF 7
ENDMDL
MODEL 5
REMARK VINA RESULT:      -5.9      2.312      4.578
REMARK  Name = 56775611
REMARK  7 active torsions:
REMARK  status: ('A' for Active; 'I' for Inactive)
REMARK    1  A    between atoms: O_3  and  C_17
REMARK    2  A    between atoms: N_4  and  C_7
REMARK    3  A    between atoms: N_4  and  C_10
REMARK    4  A    between atoms: C_6  and  C_10
REMARK    5  A    between atoms: C_7  and  C_13
REMARK    6  A    between atoms: C_13  and  C_14
REMARK    7  A    between atoms: C_16  and  C_17
REMARK                            x       y       z     vdW  Elec       q    Type
REMARK                         _______ _______ _______ _____ _____    ______ ____
ROOT
ATOM      1  O   UNL     1      -1.243   5.486  25.050  0.00  0.00    -0.376 OA
ATOM      7  C   UNL     1      -1.416   3.361  25.142  0.00  0.00    +0.072 C 
ATOM     11  C   UNL     1      -0.534   4.385  24.437  0.00  0.00    +0.184 C 
ATOM     12  C   UNL     1      -2.051   4.568  25.822  0.00  0.00    +0.184 C 
ENDROOT
BRANCH   7   4
ATOM      4  N   UNL     1      -2.367   2.809  24.173  0.00  0.00    -0.306 NA
ATOM     18  H   UNL     1      -2.361   1.794  24.088  0.00  0.00    +0.123 HD
BRANCH   4  10
ATOM     10  C   UNL     1      -3.712   3.268  24.499  0.00  0.00    +0.085 C 
BRANCH  10   6
ATOM      6  C   UNL     1      -4.728   2.204  24.237  0.00  0.00    +0.003 C 
ATOM      8  C   UNL     1      -5.815   1.966  25.244  0.00  0.00    +0.005 C 
ATOM      9  C   UNL     1      -4.717   0.958  25.074  0.00  0.00    +0.005 C 
ENDBRANCH  10   6
ENDBRANCH   4  10
ENDBRANCH   7   4
BRANCH   7  13
ATOM     13  C   UNL     1      -0.770   2.308  25.990  0.00  0.00    +0.085 C 
BRANCH  13  14
ATOM      2  O   UNL     1      -0.377  -0.565  23.835  0.00  0.00    -0.357 OA
ATOM      5  N   UNL     1      -0.109   0.750  24.193  0.00  0.00    -0.083 NA
ATOM     14  C   UNL     1      -0.820   0.958  25.305  0.00  0.00    +0.086 A 
ATOM     15  C   UNL     1      -1.551  -0.179  25.691  0.00  0.00    +0.073 A 
ATOM     16  C   UNL     1      -1.237  -1.108  24.735  0.00  0.00    +0.163 A 
BRANCH  16  17
ATOM     17  C   UNL     1      -1.631  -2.503  24.507  0.00  0.00    +0.232 C 
BRANCH  17   3
ATOM      3  O   UNL     1      -3.055  -2.629  24.543  0.00  0.00    -0.387 OA
ATOM     19  H   UNL     1      -3.391  -1.886  25.073  0.00  0.00    +0.210 HD
ENDBRANCH  17   3
ENDBRANCH  16  17
ENDBRANCH  13  14
ENDBRANCH   7  13
TORSDOF 7
ENDMDL
MODEL 6
REMARK VINA RESULT:      -5.9      1.890      3.437
REMARK  Name = 56775611
REMARK  7 active torsions:
REMARK  status: ('A' for Active; 'I' for Inactive)
REMARK    1  A    between atoms: O_3  and  C_17
REMARK    2  A    between atoms: N_4  and  C_7
REMARK    3  A    between atoms: N_4  and  C_10
REMARK    4  A    between atoms: C_6  and  C_10
REMARK    5  A    between atoms: C_7  and  C_13
REMARK    6  A    between atoms: C_13  and  C_14
REMARK    7  A    between atoms: C_16  and  C_17
REMARK                            x       y       z     vdW  Elec       q    Type
REMARK                         _______ _______ _______ _____ _____    ______ ____
ROOT
ATOM      1  O   UNL     1       0.552  -1.055  24.012  0.00  0.00    -0.376 OA
ATOM      7  C   UNL     1      -0.696   0.677  23.970  0.00  0.00    +0.072 C 
ATOM     11  C   UNL     1       0.581   0.197  23.288  0.00  0.00    +0.184 C 
ATOM     12  C   UNL     1      -0.710  -0.701  24.622  0.00  0.00    +0.184 C 
ENDROOT
BRANCH   7   4
ATOM      4  N   UNL     1      -0.343   1.676  24.983  0.00  0.00    -0.306 NA
ATOM     18  H   UNL     1       0.581   1.566  25.397  0.00  0.00    +0.123 HD
BRANCH   4  10
ATOM     10  C   UNL     1      -0.473   3.011  24.413  0.00  0.00    +0.085 C 
BRANCH  10   6
ATOM      6  C   UNL     1      -0.836   4.016  25.457  0.00  0.00    +0.003 C 
ATOM      8  C   UNL     1      -2.285   4.278  25.749  0.00  0.00    +0.005 C 
ATOM      9  C   UNL     1      -1.463   5.314  25.039  0.00  0.00    +0.005 C 
ENDBRANCH  10   6
ENDBRANCH   4  10
ENDBRANCH   7   4
BRANCH   7  13
ATOM     13  C   UNL     1      -1.860   1.090  23.122  0.00  0.00    +0.085 C 
BRANCH  13  14
ATOM      2  O   UNL     1      -4.627   0.435  25.351  0.00  0.00    -0.357 OA
ATOM      5  N   UNL     1      -3.407   0.106  24.776  0.00  0.00    -0.083 NA
ATOM     14  C   UNL     1      -3.138   1.109  23.936  0.00  0.00    +0.086 A 
ATOM     15  C   UNL     1      -4.144   2.091  23.939  0.00  0.00    +0.073 A 
ATOM     16  C   UNL     1      -5.056   1.620  24.844  0.00  0.00    +0.163 A 
BRANCH  16  17
ATOM     17  C   UNL     1      -6.341   2.121  25.347  0.00  0.00    +0.232 C 
BRANCH  17   3
ATOM      3  O   UNL     1      -6.200   2.589  26.691  0.00  0.00    -0.387 OA
ATOM     19  H   UNL     1      -6.839   2.094  27.231  0.00  0.00    +0.210 HD
ENDBRANCH  17   3
ENDBRANCH  16  17
ENDBRANCH  13  14
ENDBRANCH   7  13
TORSDOF 7
ENDMDL
MODEL 7
REMARK VINA RESULT:      -5.7      1.910      3.383
REMARK  Name = 56775611
REMARK  7 active torsions:
REMARK  status: ('A' for Active; 'I' for Inactive)
REMARK    1  A    between atoms: O_3  and  C_17
REMARK    2  A    between atoms: N_4  and  C_7
REMARK    3  A    between atoms: N_4  and  C_10
REMARK    4  A    between atoms: C_6  and  C_10
REMARK    5  A    between atoms: C_7  and  C_13
REMARK    6  A    between atoms: C_13  and  C_14
REMARK    7  A    between atoms: C_16  and  C_17
REMARK                            x       y       z     vdW  Elec       q    Type
REMARK                         _______ _______ _______ _____ _____    ______ ____
ROOT
ATOM      1  O   UNL     1      -2.690  -2.665  25.368  0.00  0.00    -0.376 OA
ATOM      7  C   UNL     1      -2.252  -0.718  24.610  0.00  0.00    +0.072 C 
ATOM     11  C   UNL     1      -1.735  -2.139  24.418  0.00  0.00    +0.184 C 
ATOM     12  C   UNL     1      -3.289  -1.359  25.525  0.00  0.00    +0.184 C 
ENDROOT
BRANCH   7   4
ATOM      4  N   UNL     1      -1.293   0.027  25.431  0.00  0.00    -0.306 NA
ATOM     18  H   UNL     1      -0.757  -0.535  26.089  0.00  0.00    +0.123 HD
BRANCH   4  10
ATOM     10  C   UNL     1      -0.387   0.770  24.564  0.00  0.00    +0.085 C 
BRANCH  10   6
ATOM      6  C   UNL     1       0.070   2.036  25.212  0.00  0.00    +0.003 C 
ATOM      8  C   UNL     1      -0.846   2.743  26.168  0.00  0.00    +0.005 C 
ATOM      9  C   UNL     1      -0.569   3.335  24.817  0.00  0.00    +0.005 C 
ENDBRANCH  10   6
ENDBRANCH   4  10
ENDBRANCH   7   4
BRANCH   7  13
ATOM     13  C   UNL     1      -2.720   0.053  23.413  0.00  0.00    +0.085 C 
BRANCH  13  14
ATOM      2  O   UNL     1      -4.078   3.380  23.788  0.00  0.00    -0.357 OA
ATOM      5  N   UNL     1      -3.277   2.443  23.148  0.00  0.00    -0.083 NA
ATOM     14  C   UNL     1      -3.450   1.311  23.835  0.00  0.00    +0.086 A 
ATOM     15  C   UNL     1      -4.341   1.471  24.911  0.00  0.00    +0.073 A 
ATOM     16  C   UNL     1      -4.707   2.789  24.837  0.00  0.00    +0.163 A 
BRANCH  16  17
ATOM     17  C   UNL     1      -5.600   3.642  25.630  0.00  0.00    +0.232 C 
BRANCH  17   3
ATOM      3  O   UNL     1      -6.215   2.880  26.674  0.00  0.00    -0.387 OA
ATOM     19  H   UNL     1      -7.118   3.225  26.780  0.00  0.00    +0.210 HD
ENDBRANCH  17   3
ENDBRANCH  16  17
ENDBRANCH  13  14
ENDBRANCH   7  13
TORSDOF 7
ENDMDL
MODEL 8
REMARK VINA RESULT:      -5.6      2.460      5.354
REMARK  Name = 56775611
REMARK  7 active torsions:
REMARK  status: ('A' for Active; 'I' for Inactive)
REMARK    1  A    between atoms: O_3  and  C_17
REMARK    2  A    between atoms: N_4  and  C_7
REMARK    3  A    between atoms: N_4  and  C_10
REMARK    4  A    between atoms: C_6  and  C_10
REMARK    5  A    between atoms: C_7  and  C_13
REMARK    6  A    between atoms: C_13  and  C_14
REMARK    7  A    between atoms: C_16  and  C_17
REMARK                            x       y       z     vdW  Elec       q    Type
REMARK                         _______ _______ _______ _____ _____    ______ ____
ROOT
ATOM      1  O   UNL     1      -1.422   5.287  25.277  0.00  0.00    -0.376 OA
ATOM      7  C   UNL     1      -1.765   3.190  25.063  0.00  0.00    +0.072 C 
ATOM     11  C   UNL     1      -0.765   4.221  24.553  0.00  0.00    +0.184 C 
ATOM     12  C   UNL     1      -2.345   4.345  25.871  0.00  0.00    +0.184 C 
ENDROOT
BRANCH   7   4
ATOM      4  N   UNL     1      -2.695   2.858  23.979  0.00  0.00    -0.306 NA
ATOM     18  H   UNL     1      -2.258   2.547  23.113  0.00  0.00    +0.123 HD
BRANCH   4  10
ATOM     10  C   UNL     1      -3.641   1.851  24.443  0.00  0.00    +0.085 C 
BRANCH  10   6
ATOM      6  C   UNL     1      -5.026   2.405  24.532  0.00  0.00    +0.003 C 
ATOM      8  C   UNL     1      -5.597   2.737  25.879  0.00  0.00    +0.005 C 
ATOM      9  C   UNL     1      -6.118   1.556  25.113  0.00  0.00    +0.005 C 
ENDBRANCH  10   6
ENDBRANCH   4  10
ENDBRANCH   7   4
BRANCH   7  13
ATOM     13  C   UNL     1      -1.257   1.981  25.787  0.00  0.00    +0.085 C 
BRANCH  13  14
ATOM      2  O   UNL     1       0.124  -0.731  23.840  0.00  0.00    -0.357 OA
ATOM      5  N   UNL     1      -0.769  -0.215  24.771  0.00  0.00    -0.083 NA
ATOM     14  C   UNL     1      -0.471   1.085  24.852  0.00  0.00    +0.086 A 
ATOM     15  C   UNL     1       0.591   1.443  24.004  0.00  0.00    +0.073 A 
ATOM     16  C   UNL     1       0.929   0.266  23.391  0.00  0.00    +0.163 A 
BRANCH  16  17
ATOM     17  C   UNL     1       1.939  -0.107  22.394  0.00  0.00    +0.232 C 
BRANCH  17   3
ATOM      3  O   UNL     1       3.234  -0.166  22.998  0.00  0.00    -0.387 OA
ATOM     19  H   UNL     1       3.421   0.721  23.352  0.00  0.00    +0.210 HD
ENDBRANCH  17   3
ENDBRANCH  16  17
ENDBRANCH  13  14
ENDBRANCH   7  13
TORSDOF 7
ENDMDL
MODEL 9
REMARK VINA RESULT:      -5.5      2.384      5.388
REMARK  Name = 56775611
REMARK  7 active torsions:
REMARK  status: ('A' for Active; 'I' for Inactive)
REMARK    1  A    between atoms: O_3  and  C_17
REMARK    2  A    between atoms: N_4  and  C_7
REMARK    3  A    between atoms: N_4  and  C_10
REMARK    4  A    between atoms: C_6  and  C_10
REMARK    5  A    between atoms: C_7  and  C_13
REMARK    6  A    between atoms: C_13  and  C_14
REMARK    7  A    between atoms: C_16  and  C_17
REMARK                            x       y       z     vdW  Elec       q    Type
REMARK                         _______ _______ _______ _____ _____    ______ ____
ROOT
ATOM      1  O   UNL     1      -3.199  -2.402  25.176  0.00  0.00    -0.376 OA
ATOM      7  C   UNL     1      -2.689  -0.343  24.935  0.00  0.00    +0.072 C 
ATOM     11  C   UNL     1      -3.611  -1.174  25.819  0.00  0.00    +0.184 C 
ATOM     12  C   UNL     1      -2.235  -1.684  24.371  0.00  0.00    +0.184 C 
ENDROOT
BRANCH   7   4
ATOM      4  N   UNL     1      -3.498   0.345  23.924  0.00  0.00    -0.306 NA
ATOM     18  H   UNL     1      -4.464   0.029  23.853  0.00  0.00    +0.123 HD
BRANCH   4  10
ATOM     10  C   UNL     1      -3.466   1.781  24.172  0.00  0.00    +0.085 C 
BRANCH  10   6
ATOM      6  C   UNL     1      -4.840   2.329  24.377  0.00  0.00    +0.003 C 
ATOM      8  C   UNL     1      -5.080   3.308  25.489  0.00  0.00    +0.005 C 
ATOM      9  C   UNL     1      -5.622   1.912  25.588  0.00  0.00    +0.005 C 
ENDBRANCH  10   6
ENDBRANCH   4  10
ENDBRANCH   7   4
BRANCH   7  13
ATOM     13  C   UNL     1      -1.677   0.553  25.581  0.00  0.00    +0.085 C 
BRANCH  13  14
ATOM      2  O   UNL     1       1.299   1.620  23.832  0.00  0.00    -0.357 OA
ATOM      5  N   UNL     1       0.259   1.826  24.729  0.00  0.00    -0.083 NA
ATOM     14  C   UNL     1      -0.447   0.692  24.707  0.00  0.00    +0.086 A 
ATOM     15  C   UNL     1       0.095  -0.256  23.823  0.00  0.00    +0.073 A 
ATOM     16  C   UNL     1       1.191   0.376  23.299  0.00  0.00    +0.163 A 
BRANCH  16  17
ATOM     17  C   UNL     1       2.217  -0.011  22.323  0.00  0.00    +0.232 C 
BRANCH  17   3
ATOM      3  O   UNL     1       3.306   0.916  22.355  0.00  0.00    -0.387 OA
ATOM     19  H   UNL     1       2.930   1.799  22.193  0.00  0.00    +0.210 HD
ENDBRANCH  17   3
ENDBRANCH  16  17
ENDBRANCH  13  14
ENDBRANCH   7  13
TORSDOF 7
ENDMDL
MODEL 10
REMARK VINA RESULT:      -5.2      2.141      3.983
REMARK  Name = 56775611
REMARK  7 active torsions:
REMARK  status: ('A' for Active; 'I' for Inactive)
REMARK    1  A    between atoms: O_3  and  C_17
REMARK    2  A    between atoms: N_4  and  C_7
REMARK    3  A    between atoms: N_4  and  C_10
REMARK    4  A    between atoms: C_6  and  C_10
REMARK    5  A    between atoms: C_7  and  C_13
REMARK    6  A    between atoms: C_13  and  C_14
REMARK    7  A    between atoms: C_16  and  C_17
REMARK                            x       y       z     vdW  Elec       q    Type
REMARK                         _______ _______ _______ _____ _____    ______ ____
ROOT
ATOM      1  O   UNL     1      -3.767  -2.566  24.912  0.00  0.00    -0.376 OA
ATOM      7  C   UNL     1      -3.708  -0.437  24.774  0.00  0.00    +0.072 C 
ATOM     11  C   UNL     1      -4.153  -1.605  23.902  0.00  0.00    +0.184 C 
ATOM     12  C   UNL     1      -3.415  -1.502  25.825  0.00  0.00    +0.184 C 
ENDROOT
BRANCH   7   4
ATOM      4  N   UNL     1      -2.437   0.081  24.259  0.00  0.00    -0.306 NA
ATOM     18  H   UNL     1      -2.491   0.992  23.806  0.00  0.00    +0.123 HD
BRANCH   4  10
ATOM     10  C   UNL     1      -1.458   0.124  25.338  0.00  0.00    +0.085 C 
BRANCH  10   6
ATOM      6  C   UNL     1      -0.210   0.827  24.913  0.00  0.00    +0.003 C 
ATOM      8  C   UNL     1       0.110   2.171  25.499  0.00  0.00    +0.005 C 
ATOM      9  C   UNL     1      -0.317   2.060  24.064  0.00  0.00    +0.005 C 
ENDBRANCH  10   6
ENDBRANCH   4  10
ENDBRANCH   7   4
BRANCH   7  13
ATOM     13  C   UNL     1      -4.692   0.647  25.095  0.00  0.00    +0.085 C 
BRANCH  13  14
ATOM      2  O   UNL     1      -3.367   3.762  23.834  0.00  0.00    -0.357 OA
ATOM      5  N   UNL     1      -3.965   2.521  23.662  0.00  0.00    -0.083 NA
ATOM     14  C   UNL     1      -4.072   2.014  24.893  0.00  0.00    +0.086 A 
ATOM     15  C   UNL     1      -3.563   2.883  25.874  0.00  0.00    +0.073 A 
ATOM     16  C   UNL     1      -3.132   3.967  25.156  0.00  0.00    +0.163 A 
BRANCH  16  17
ATOM     17  C   UNL     1      -2.498   5.240  25.520  0.00  0.00    +0.232 C 
BRANCH  17   3
ATOM      3  O   UNL     1      -1.167   5.298  24.998  0.00  0.00    -0.387 OA
ATOM     19  H   UNL     1      -1.246   5.372  24.032  0.00  0.00    +0.210 HD
ENDBRANCH  17   3
ENDBRANCH  16  17
ENDBRANCH  13  14
ENDBRANCH   7  13
TORSDOF 7
ENDMDL
