MODEL 1
REMARK VINA RESULT:      -0.7      0.000      0.000
REMARK  Name = 45783623
REMARK  8 active torsions:
REMARK  status: ('A' for Active; 'I' for Inactive)
REMARK    1  A    between atoms: O_2  and  C_28
REMARK    2  A    between atoms: O_2  and  C_29
REMARK    3  A    between atoms: N_4  and  C_13
REMARK    4  A    between atoms: N_8  and  C_26
REMARK    5  A    between atoms: C_9  and  C_14
REMARK    6  A    between atoms: C_13  and  C_15
REMARK    7  A    between atoms: C_18  and  C_21
REMARK    8  A    between atoms: C_27  and  C_28
REMARK                            x       y       z     vdW  Elec       q    Type
REMARK                         _______ _______ _______ _____ _____    ______ ____
ROOT
ATOM      1  O   UNL     1      -2.387   3.796  24.665  0.00  0.00    -0.336 OA
ATOM      5  N   UNL     1      -2.233   1.676  23.957  0.00  0.00    -0.190 NA
ATOM      6  N   UNL     1      -1.017   3.528  24.530  0.00  0.00    -0.056 NA
ATOM     14  C   UNL     1      -3.030   2.654  24.308  0.00  0.00    +0.245 A 
ATOM     18  C   UNL     1      -1.009   2.260  24.109  0.00  0.00    +0.204 A 
ENDROOT
BRANCH  18  21
ATOM      7  N   UNL     1       2.596   1.600  23.479  0.00  0.00    -0.239 NA
ATOM     21  C   UNL     1       0.205   1.547  23.833  0.00  0.00    +0.041 A 
ATOM     23  C   UNL     1       0.201   0.167  23.654  0.00  0.00    +0.016 A 
ATOM     24  C   UNL     1       1.418   2.211  23.736  0.00  0.00    +0.124 A 
ATOM     25  C   UNL     1       1.393  -0.496  23.388  0.00  0.00    +0.044 A 
ATOM     26  C   UNL     1       2.553   0.259  23.311  0.00  0.00    +0.125 A 
BRANCH  26   8
ATOM      3  O   UNL     1       5.277   0.529  24.561  0.00  0.00    -0.273 OA
ATOM      8  N   UNL     1       3.748  -0.420  23.041  0.00  0.00    -0.268 N 
ATOM     27  C   UNL     1       4.991  -0.252  23.658  0.00  0.00    +0.244 C 
ATOM     30  H   UNL     1       3.678  -1.115  22.302  0.00  0.00    +0.156 HD
BRANCH  27  28
ATOM     28  C   UNL     1       6.043  -1.171  23.076  0.00  0.00    +0.255 C 
BRANCH  28   2
ATOM      2  O   UNL     1       6.984  -0.394  22.364  0.00  0.00    -0.374 OA
ATOM     29  C   UNL     1       8.253  -0.377  23.008  0.00  0.00    +0.194 C 
ENDBRANCH  28   2
ENDBRANCH  27  28
ENDBRANCH  26   8
ENDBRANCH  18  21
BRANCH  14   9
ATOM      4  N   UNL     1      -5.107   1.518  25.076  0.00  0.00    -0.287 NA
ATOM      9  C   UNL     1      -4.543   2.685  24.368  0.00  0.00    +0.146 C 
ATOM     10  C   UNL     1      -5.083   3.905  25.136  0.00  0.00    +0.030 C 
ATOM     11  C   UNL     1      -5.987   3.328  26.216  0.00  0.00    +0.017 C 
ATOM     12  C   UNL     1      -6.364   1.965  25.673  0.00  0.00    +0.085 C 
BRANCH   4  13
ATOM     13  C   UNL     1      -5.291   0.358  24.214  0.00  0.00    +0.120 C 
BRANCH  13  15
ATOM     15  C   UNL     1      -4.340  -0.757  24.561  0.00  0.00    -0.033 A 
ATOM     16  C   UNL     1      -4.298  -1.909  23.777  0.00  0.00    +0.005 A 
ATOM     17  C   UNL     1      -3.499  -0.636  25.668  0.00  0.00    +0.005 A 
ATOM     19  C   UNL     1      -3.417  -2.941  24.099  0.00  0.00    +0.000 A 
ATOM     20  C   UNL     1      -2.618  -1.668  25.990  0.00  0.00    +0.000 A 
ATOM     22  C   UNL     1      -2.576  -2.820  25.206  0.00  0.00    +0.000 A 
ENDBRANCH  13  15
ENDBRANCH   4  13
ENDBRANCH  14   9
TORSDOF 7
ENDMDL
MODEL 2
REMARK VINA RESULT:       0.5      2.029      3.806
REMARK  Name = 45783623
REMARK  8 active torsions:
REMARK  status: ('A' for Active; 'I' for Inactive)
REMARK    1  A    between atoms: O_2  and  C_28
REMARK    2  A    between atoms: O_2  and  C_29
REMARK    3  A    between atoms: N_4  and  C_13
REMARK    4  A    between atoms: N_8  and  C_26
REMARK    5  A    between atoms: C_9  and  C_14
REMARK    6  A    between atoms: C_13  and  C_15
REMARK    7  A    between atoms: C_18  and  C_21
REMARK    8  A    between atoms: C_27  and  C_28
REMARK                            x       y       z     vdW  Elec       q    Type
REMARK                         _______ _______ _______ _____ _____    ______ ____
ROOT
ATOM      1  O   UNL     1      -4.363  -0.541  25.055  0.00  0.00    -0.336 OA
ATOM      5  N   UNL     1      -2.826   1.088  25.008  0.00  0.00    -0.190 NA
ATOM      6  N   UNL     1      -3.183  -1.131  24.583  0.00  0.00    -0.056 NA
ATOM     14  C   UNL     1      -4.066   0.765  25.281  0.00  0.00    +0.245 A 
ATOM     18  C   UNL     1      -2.324  -0.108  24.584  0.00  0.00    +0.204 A 
ENDROOT
BRANCH  18  21
ATOM      7  N   UNL     1       0.938   0.664  22.975  0.00  0.00    -0.239 NA
ATOM     21  C   UNL     1      -0.960  -0.246  24.166  0.00  0.00    +0.041 A 
ATOM     23  C   UNL     1      -0.212  -1.366  24.515  0.00  0.00    +0.016 A 
ATOM     24  C   UNL     1      -0.343   0.732  23.402  0.00  0.00    +0.124 A 
ATOM     25  C   UNL     1       1.109  -1.471  24.096  0.00  0.00    +0.044 A 
ATOM     26  C   UNL     1       1.633  -0.439  23.335  0.00  0.00    +0.125 A 
BRANCH  26   8
ATOM      3  O   UNL     1       3.771   1.654  23.016  0.00  0.00    -0.273 OA
ATOM      8  N   UNL     1       2.964  -0.556  22.917  0.00  0.00    -0.268 N 
ATOM     27  C   UNL     1       3.918   0.457  22.787  0.00  0.00    +0.244 C 
ATOM     30  H   UNL     1       3.249  -1.505  22.684  0.00  0.00    +0.156 HD
BRANCH  27  28
ATOM     28  C   UNL     1       5.248  -0.072  22.296  0.00  0.00    +0.255 C 
BRANCH  28   2
ATOM      2  O   UNL     1       6.176  -0.034  23.361  0.00  0.00    -0.374 OA
ATOM     29  C   UNL     1       5.723  -0.782  24.485  0.00  0.00    +0.194 C 
ENDBRANCH  28   2
ENDBRANCH  27  28
ENDBRANCH  26   8
ENDBRANCH  18  21
BRANCH  14   9
ATOM      4  N   UNL     1      -4.991   3.065  25.503  0.00  0.00    -0.287 NA
ATOM      9  C   UNL     1      -5.191   1.633  25.804  0.00  0.00    +0.146 C 
ATOM     10  C   UNL     1      -6.552   1.288  25.171  0.00  0.00    +0.030 C 
ATOM     11  C   UNL     1      -7.067   2.599  24.594  0.00  0.00    +0.017 C 
ATOM     12  C   UNL     1      -6.324   3.654  25.389  0.00  0.00    +0.085 C 
BRANCH   4  13
ATOM     13  C   UNL     1      -4.172   3.751  26.494  0.00  0.00    +0.120 C 
BRANCH  13  15
ATOM     15  C   UNL     1      -2.806   4.090  25.956  0.00  0.00    -0.033 A 
ATOM     16  C   UNL     1      -1.736   3.223  26.173  0.00  0.00    +0.005 A 
ATOM     17  C   UNL     1      -2.613   5.272  25.240  0.00  0.00    +0.005 A 
ATOM     19  C   UNL     1      -0.471   3.538  25.674  0.00  0.00    +0.000 A 
ATOM     20  C   UNL     1      -1.350   5.586  24.742  0.00  0.00    +0.000 A 
ATOM     22  C   UNL     1      -0.278   4.720  24.958  0.00  0.00    +0.000 A 
ENDBRANCH  13  15
ENDBRANCH   4  13
ENDBRANCH  14   9
TORSDOF 7
ENDMDL
