MODEL 1
REMARK VINA RESULT:      -5.8      0.000      0.000
REMARK  Name = 51137406
REMARK  6 active torsions:
REMARK  status: ('A' for Active; 'I' for Inactive)
REMARK    1  A    between atoms: N_2  and  C_9
REMARK    2  A    between atoms: C_5  and  C_10
REMARK    3  A    between atoms: C_9  and  C_11
REMARK    4  A    between atoms: C_9  and  C_12
REMARK    5  A    between atoms: C_13  and  C_14
REMARK    6  A    between atoms: C_14  and  C_15
REMARK                            x       y       z     vdW  Elec       q    Type
REMARK                         _______ _______ _______ _____ _____    ______ ____
ROOT
ATOM      1  O   UNL     1       0.257   1.045  23.976  0.00  0.00    -0.424 OA
ATOM      3  N   UNL     1      -0.870  -0.651  24.903  0.00  0.00    -0.112 NA
ATOM      4  N   UNL     1      -0.004  -1.177  23.963  0.00  0.00    -0.112 NA
ATOM     10  C   UNL     1      -0.684   0.648  24.877  0.00  0.00    +0.222 A 
ATOM     13  C   UNL     1       0.633  -0.152  23.446  0.00  0.00    +0.222 A 
ENDROOT
BRANCH  10   5
ATOM      2  N   UNL     1      -3.025   3.374  25.595  0.00  0.00    -0.299 NA
ATOM      5  C   UNL     1      -1.351   1.733  25.688  0.00  0.00    +0.092 C 
ATOM      6  C   UNL     1      -2.820   1.953  25.300  0.00  0.00    +0.097 C 
ATOM      7  C   UNL     1      -0.703   3.124  25.565  0.00  0.00    +0.029 C 
ATOM      8  C   UNL     1      -1.824   4.040  25.091  0.00  0.00    +0.085 C 
BRANCH   2   9
ATOM      9  C   UNL     1      -4.243   3.895  24.992  0.00  0.00    +0.050 C 
ATOM     11  C   UNL     1      -5.468   3.247  25.630  0.00  0.00    +0.024 C 
ATOM     12  C   UNL     1      -4.212   3.646  23.488  0.00  0.00    +0.024 C 
ENDBRANCH   2   9
ENDBRANCH  10   5
BRANCH  13  14
ATOM     14  C   UNL     1       1.669  -0.120  22.408  0.00  0.00    +0.132 C 
BRANCH  14  15
ATOM     15  C   UNL     1       3.100  -0.172  22.931  0.00  0.00    -0.038 A 
ATOM     16  C   UNL     1       3.918   0.954  22.838  0.00  0.00    +0.004 A 
ATOM     17  C   UNL     1       3.591  -1.345  23.504  0.00  0.00    +0.004 A 
ATOM     18  C   UNL     1       5.227   0.906  23.316  0.00  0.00    +0.000 A 
ATOM     19  C   UNL     1       4.900  -1.393  23.983  0.00  0.00    +0.000 A 
ATOM     20  C   UNL     1       5.719  -0.267  23.889  0.00  0.00    +0.000 A 
ENDBRANCH  14  15
ENDBRANCH  13  14
TORSDOF 4
ENDMDL
MODEL 2
REMARK VINA RESULT:      -5.6      2.671      6.497
REMARK  Name = 51137406
REMARK  6 active torsions:
REMARK  status: ('A' for Active; 'I' for Inactive)
REMARK    1  A    between atoms: N_2  and  C_9
REMARK    2  A    between atoms: C_5  and  C_10
REMARK    3  A    between atoms: C_9  and  C_11
REMARK    4  A    between atoms: C_9  and  C_12
REMARK    5  A    between atoms: C_13  and  C_14
REMARK    6  A    between atoms: C_14  and  C_15
REMARK                            x       y       z     vdW  Elec       q    Type
REMARK                         _______ _______ _______ _____ _____    ______ ____
ROOT
ATOM      1  O   UNL     1      -3.134   1.824  24.641  0.00  0.00    -0.424 OA
ATOM      3  N   UNL     1      -3.603   4.011  24.628  0.00  0.00    -0.112 NA
ATOM      4  N   UNL     1      -4.789   3.321  24.790  0.00  0.00    -0.112 NA
ATOM     10  C   UNL     1      -2.664   3.099  24.545  0.00  0.00    +0.222 A 
ATOM     13  C   UNL     1      -4.468   2.048  24.792  0.00  0.00    +0.222 A 
ENDROOT
BRANCH  10   5
ATOM      2  N   UNL     1       0.825   2.058  24.134  0.00  0.00    -0.299 NA
ATOM      5  C   UNL     1      -1.173   3.263  24.365  0.00  0.00    +0.092 C 
ATOM      6  C   UNL     1      -0.533   2.106  23.586  0.00  0.00    +0.097 C 
ATOM      7  C   UNL     1      -0.368   3.345  25.674  0.00  0.00    +0.029 C 
ATOM      8  C   UNL     1       0.656   2.221  25.577  0.00  0.00    +0.085 C 
BRANCH   2   9
ATOM      9  C   UNL     1       1.517   0.823  23.793  0.00  0.00    +0.050 C 
ATOM     11  C   UNL     1       2.735   1.122  22.923  0.00  0.00    +0.024 C 
ATOM     12  C   UNL     1       0.553  -0.119  23.080  0.00  0.00    +0.024 C 
ENDBRANCH   2   9
ENDBRANCH  10   5
BRANCH  13  14
ATOM     14  C   UNL     1      -5.327   0.866  24.933  0.00  0.00    +0.132 C 
BRANCH  14  15
ATOM     15  C   UNL     1      -4.590  -0.468  24.883  0.00  0.00    -0.038 A 
ATOM     16  C   UNL     1      -4.703  -1.285  23.758  0.00  0.00    +0.004 A 
ATOM     17  C   UNL     1      -3.803  -0.871  25.961  0.00  0.00    +0.004 A 
ATOM     18  C   UNL     1      -4.030  -2.505  23.712  0.00  0.00    +0.000 A 
ATOM     19  C   UNL     1      -3.129  -2.092  25.915  0.00  0.00    +0.000 A 
ATOM     20  C   UNL     1      -3.243  -2.909  24.790  0.00  0.00    +0.000 A 
ENDBRANCH  14  15
ENDBRANCH  13  14
TORSDOF 4
ENDMDL
MODEL 3
REMARK VINA RESULT:      -5.3      2.958      4.641
REMARK  Name = 51137406
REMARK  6 active torsions:
REMARK  status: ('A' for Active; 'I' for Inactive)
REMARK    1  A    between atoms: N_2  and  C_9
REMARK    2  A    between atoms: C_5  and  C_10
REMARK    3  A    between atoms: C_9  and  C_11
REMARK    4  A    between atoms: C_9  and  C_12
REMARK    5  A    between atoms: C_13  and  C_14
REMARK    6  A    between atoms: C_14  and  C_15
REMARK                            x       y       z     vdW  Elec       q    Type
REMARK                         _______ _______ _______ _____ _____    ______ ____
ROOT
ATOM      1  O   UNL     1      -1.136   1.150  25.033  0.00  0.00    -0.424 OA
ATOM      3  N   UNL     1       0.567   2.560  24.687  0.00  0.00    -0.112 NA
ATOM      4  N   UNL     1       0.953   1.308  24.248  0.00  0.00    -0.112 NA
ATOM     10  C   UNL     1      -0.658   2.422  25.136  0.00  0.00    +0.222 A 
ATOM     13  C   UNL     1      -0.071   0.517  24.469  0.00  0.00    +0.222 A 
ENDROOT
BRANCH  10   5
ATOM      2  N   UNL     1      -3.850   4.029  25.946  0.00  0.00    -0.299 NA
ATOM      5  C   UNL     1      -1.586   3.451  25.736  0.00  0.00    +0.092 C 
ATOM      6  C   UNL     1      -2.960   2.876  26.105  0.00  0.00    +0.097 C 
ATOM      7  C   UNL     1      -1.899   4.650  24.823  0.00  0.00    +0.029 C 
ATOM      8  C   UNL     1      -3.418   4.670  24.704  0.00  0.00    +0.085 C 
BRANCH   2   9
ATOM      9  C   UNL     1      -5.254   3.646  25.912  0.00  0.00    +0.050 C 
ATOM     11  C   UNL     1      -5.446   2.418  25.027  0.00  0.00    +0.024 C 
ATOM     12  C   UNL     1      -6.088   4.819  25.411  0.00  0.00    +0.024 C 
ENDBRANCH   2   9
ENDBRANCH  10   5
BRANCH  13  14
ATOM     14  C   UNL     1      -0.222  -0.917  24.197  0.00  0.00    +0.132 C 
BRANCH  14  15
ATOM     15  C   UNL     1      -1.661  -1.419  24.197  0.00  0.00    -0.038 A 
ATOM     16  C   UNL     1      -2.706  -0.541  23.911  0.00  0.00    +0.004 A 
ATOM     17  C   UNL     1      -1.934  -2.757  24.484  0.00  0.00    +0.004 A 
ATOM     18  C   UNL     1      -4.023  -0.999  23.912  0.00  0.00    +0.000 A 
ATOM     19  C   UNL     1      -3.251  -3.216  24.486  0.00  0.00    +0.000 A 
ATOM     20  C   UNL     1      -4.296  -2.337  24.199  0.00  0.00    +0.000 A 
ENDBRANCH  14  15
ENDBRANCH  13  14
TORSDOF 4
ENDMDL
MODEL 4
REMARK VINA RESULT:      -5.3      2.974      6.534
REMARK  Name = 51137406
REMARK  6 active torsions:
REMARK  status: ('A' for Active; 'I' for Inactive)
REMARK    1  A    between atoms: N_2  and  C_9
REMARK    2  A    between atoms: C_5  and  C_10
REMARK    3  A    between atoms: C_9  and  C_11
REMARK    4  A    between atoms: C_9  and  C_12
REMARK    5  A    between atoms: C_13  and  C_14
REMARK    6  A    between atoms: C_14  and  C_15
REMARK                            x       y       z     vdW  Elec       q    Type
REMARK                         _______ _______ _______ _____ _____    ______ ____
ROOT
ATOM      1  O   UNL     1      -0.968   1.675  24.353  0.00  0.00    -0.424 OA
ATOM      3  N   UNL     1       1.192   1.368  23.856  0.00  0.00    -0.112 NA
ATOM      4  N   UNL     1       1.004   2.708  24.136  0.00  0.00    -0.112 NA
ATOM     10  C   UNL     1       0.015   0.803  23.994  0.00  0.00    +0.222 A 
ATOM     13  C   UNL     1      -0.270   2.842  24.421  0.00  0.00    +0.222 A 
ENDROOT
BRANCH  10   5
ATOM      2  N   UNL     1      -2.017  -2.215  24.425  0.00  0.00    -0.299 NA
ATOM      5  C   UNL     1      -0.388  -0.642  23.817  0.00  0.00    +0.092 C 
ATOM      6  C   UNL     1      -1.905  -0.854  23.894  0.00  0.00    +0.097 C 
ATOM      7  C   UNL     1       0.195  -1.609  24.862  0.00  0.00    +0.029 C 
ATOM      8  C   UNL     1      -1.016  -2.289  25.489  0.00  0.00    +0.085 C 
BRANCH   2   9
ATOM      9  C   UNL     1      -3.358  -2.516  24.904  0.00  0.00    +0.050 C 
ATOM     11  C   UNL     1      -4.345  -2.527  23.740  0.00  0.00    +0.024 C 
ATOM     12  C   UNL     1      -3.764  -1.491  25.957  0.00  0.00    +0.024 C 
ENDBRANCH   2   9
ENDBRANCH  10   5
BRANCH  13  14
ATOM     14  C   UNL     1      -1.025   4.044  24.795  0.00  0.00    +0.132 C 
BRANCH  14  15
ATOM     15  C   UNL     1      -2.513   3.816  25.030  0.00  0.00    -0.038 A 
ATOM     16  C   UNL     1      -3.083   4.144  26.261  0.00  0.00    +0.004 A 
ATOM     17  C   UNL     1      -3.306   3.280  24.015  0.00  0.00    +0.004 A 
ATOM     18  C   UNL     1      -4.445   3.935  26.476  0.00  0.00    +0.000 A 
ATOM     19  C   UNL     1      -4.668   3.071  24.231  0.00  0.00    +0.000 A 
ATOM     20  C   UNL     1      -5.238   3.399  25.461  0.00  0.00    +0.000 A 
ENDBRANCH  14  15
ENDBRANCH  13  14
TORSDOF 4
ENDMDL
MODEL 5
REMARK VINA RESULT:      -4.6      3.222      6.508
REMARK  Name = 51137406
REMARK  6 active torsions:
REMARK  status: ('A' for Active; 'I' for Inactive)
REMARK    1  A    between atoms: N_2  and  C_9
REMARK    2  A    between atoms: C_5  and  C_10
REMARK    3  A    between atoms: C_9  and  C_11
REMARK    4  A    between atoms: C_9  and  C_12
REMARK    5  A    between atoms: C_13  and  C_14
REMARK    6  A    between atoms: C_14  and  C_15
REMARK                            x       y       z     vdW  Elec       q    Type
REMARK                         _______ _______ _______ _____ _____    ______ ____
ROOT
ATOM      1  O   UNL     1      -3.901   1.551  25.284  0.00  0.00    -0.424 OA
ATOM      3  N   UNL     1      -5.959   0.711  25.022  0.00  0.00    -0.112 NA
ATOM      4  N   UNL     1      -6.044   2.087  24.927  0.00  0.00    -0.112 NA
ATOM     10  C   UNL     1      -4.691   0.442  25.230  0.00  0.00    +0.222 A 
ATOM     13  C   UNL     1      -4.820   2.536  25.087  0.00  0.00    +0.222 A 
ENDROOT
BRANCH  10   5
ATOM      2  N   UNL     1      -2.030  -2.058  24.925  0.00  0.00    -0.299 NA
ATOM      5  C   UNL     1      -4.006  -0.892  25.411  0.00  0.00    +0.092 C 
ATOM      6  C   UNL     1      -2.477  -0.775  25.474  0.00  0.00    +0.097 C 
ATOM      7  C   UNL     1      -4.273  -1.914  24.292  0.00  0.00    +0.029 C 
ATOM      8  C   UNL     1      -2.894  -2.295  23.769  0.00  0.00    +0.085 C 
BRANCH   2   9
ATOM      9  C   UNL     1      -0.619  -2.048  24.569  0.00  0.00    +0.050 C 
ATOM     11  C   UNL     1       0.229  -2.490  25.759  0.00  0.00    +0.024 C 
ATOM     12  C   UNL     1      -0.222  -0.653  24.102  0.00  0.00    +0.024 C 
ENDBRANCH   2   9
ENDBRANCH  10   5
BRANCH  13  14
ATOM     14  C   UNL     1      -4.321   3.916  25.079  0.00  0.00    +0.132 C 
BRANCH  14  15
ATOM     15  C   UNL     1      -2.819   4.050  24.854  0.00  0.00    -0.038 A 
ATOM     16  C   UNL     1      -2.097   2.984  24.315  0.00  0.00    +0.004 A 
ATOM     17  C   UNL     1      -2.166   5.237  25.187  0.00  0.00    +0.004 A 
ATOM     18  C   UNL     1      -0.723   3.107  24.110  0.00  0.00    +0.000 A 
ATOM     19  C   UNL     1      -0.792   5.359  24.982  0.00  0.00    +0.000 A 
ATOM     20  C   UNL     1      -0.070   4.294  24.443  0.00  0.00    +0.000 A 
ENDBRANCH  14  15
ENDBRANCH  13  14
TORSDOF 4
ENDMDL
MODEL 6
REMARK VINA RESULT:      -4.5     16.515     17.626
REMARK  Name = 51137406
REMARK  6 active torsions:
REMARK  status: ('A' for Active; 'I' for Inactive)
REMARK    1  A    between atoms: N_2  and  C_9
REMARK    2  A    between atoms: C_5  and  C_10
REMARK    3  A    between atoms: C_9  and  C_11
REMARK    4  A    between atoms: C_9  and  C_12
REMARK    5  A    between atoms: C_13  and  C_14
REMARK    6  A    between atoms: C_14  and  C_15
REMARK                            x       y       z     vdW  Elec       q    Type
REMARK                         _______ _______ _______ _____ _____    ______ ____
ROOT
ATOM      1  O   UNL     1      16.861  -6.171  27.128  0.00  0.00    -0.424 OA
ATOM      3  N   UNL     1      15.300  -7.773  27.087  0.00  0.00    -0.112 NA
ATOM      4  N   UNL     1      15.714  -7.546  25.788  0.00  0.00    -0.112 NA
ATOM     10  C   UNL     1      15.995  -6.949  27.835  0.00  0.00    +0.222 A 
ATOM     13  C   UNL     1      16.625  -6.604  25.860  0.00  0.00    +0.222 A 
ENDROOT
BRANCH  10   5
ATOM      2  N   UNL     1      14.539  -6.259  31.126  0.00  0.00    -0.299 NA
ATOM      5  C   UNL     1      15.968  -6.751  29.332  0.00  0.00    +0.092 C 
ATOM      6  C   UNL     1      14.627  -7.147  29.964  0.00  0.00    +0.097 C 
ATOM      7  C   UNL     1      16.206  -5.304  29.799  0.00  0.00    +0.029 C 
ATOM      8  C   UNL     1      14.983  -4.954  30.638  0.00  0.00    +0.085 C 
BRANCH   2   9
ATOM      9  C   UNL     1      13.198  -6.213  31.690  0.00  0.00    +0.050 C 
ATOM     11  C   UNL     1      12.171  -6.648  30.648  0.00  0.00    +0.024 C 
ATOM     12  C   UNL     1      12.906  -4.804  32.191  0.00  0.00    +0.024 C 
ENDBRANCH   2   9
ENDBRANCH  10   5
BRANCH  13  14
ATOM     14  C   UNL     1      17.405  -5.973  24.789  0.00  0.00    +0.132 C 
BRANCH  14  15
ATOM     15  C   UNL     1      17.115  -4.491  24.575  0.00  0.00    -0.038 A 
ATOM     16  C   UNL     1      17.341  -3.581  25.608  0.00  0.00    +0.004 A 
ATOM     17  C   UNL     1      16.625  -4.045  23.348  0.00  0.00    +0.004 A 
ATOM     18  C   UNL     1      17.075  -2.226  25.414  0.00  0.00    +0.000 A 
ATOM     19  C   UNL     1      16.359  -2.690  23.154  0.00  0.00    +0.000 A 
ATOM     20  C   UNL     1      16.584  -1.780  24.186  0.00  0.00    +0.000 A 
ENDBRANCH  14  15
ENDBRANCH  13  14
TORSDOF 4
ENDMDL
MODEL 7
REMARK VINA RESULT:      -4.4      3.955      5.346
REMARK  Name = 51137406
REMARK  6 active torsions:
REMARK  status: ('A' for Active; 'I' for Inactive)
REMARK    1  A    between atoms: N_2  and  C_9
REMARK    2  A    between atoms: C_5  and  C_10
REMARK    3  A    between atoms: C_9  and  C_11
REMARK    4  A    between atoms: C_9  and  C_12
REMARK    5  A    between atoms: C_13  and  C_14
REMARK    6  A    between atoms: C_14  and  C_15
REMARK                            x       y       z     vdW  Elec       q    Type
REMARK                         _______ _______ _______ _____ _____    ______ ____
ROOT
ATOM      1  O   UNL     1      -4.114   1.182  24.530  0.00  0.00    -0.424 OA
ATOM      3  N   UNL     1      -6.185   1.984  24.802  0.00  0.00    -0.112 NA
ATOM      4  N   UNL     1      -6.275   0.614  24.641  0.00  0.00    -0.112 NA
ATOM     10  C   UNL     1      -4.906   2.271  24.730  0.00  0.00    +0.222 A 
ATOM     13  C   UNL     1      -5.043   0.188  24.486  0.00  0.00    +0.222 A 
ENDROOT
BRANCH  10   5
ATOM      2  N   UNL     1      -2.110   4.602  25.146  0.00  0.00    -0.299 NA
ATOM      5  C   UNL     1      -4.212   3.608  24.837  0.00  0.00    +0.092 C 
ATOM      6  C   UNL     1      -2.763   3.572  24.334  0.00  0.00    +0.097 C 
ATOM      7  C   UNL     1      -4.114   4.175  26.265  0.00  0.00    +0.029 C 
ATOM      8  C   UNL     1      -2.626   4.399  26.499  0.00  0.00    +0.085 C 
BRANCH   2   9
ATOM      9  C   UNL     1      -0.658   4.518  25.087  0.00  0.00    +0.050 C 
ATOM     11  C   UNL     1      -0.174   4.719  23.654  0.00  0.00    +0.024 C 
ATOM     12  C   UNL     1      -0.205   3.169  25.634  0.00  0.00    +0.024 C 
ENDBRANCH   2   9
ENDBRANCH  10   5
BRANCH  13  14
ATOM     14  C   UNL     1      -4.544  -1.177  24.280  0.00  0.00    +0.132 C 
BRANCH  14  15
ATOM     15  C   UNL     1      -3.087  -1.390  24.673  0.00  0.00    -0.038 A 
ATOM     16  C   UNL     1      -2.395  -2.508  24.206  0.00  0.00    +0.004 A 
ATOM     17  C   UNL     1      -2.445  -0.467  25.499  0.00  0.00    +0.004 A 
ATOM     18  C   UNL     1      -1.061  -2.703  24.566  0.00  0.00    +0.000 A 
ATOM     19  C   UNL     1      -1.112  -0.662  25.859  0.00  0.00    +0.000 A 
ATOM     20  C   UNL     1      -0.419  -1.780  25.392  0.00  0.00    +0.000 A 
ENDBRANCH  14  15
ENDBRANCH  13  14
TORSDOF 4
ENDMDL
MODEL 8
REMARK VINA RESULT:      -2.9      1.749      7.542
REMARK  Name = 51137406
REMARK  6 active torsions:
REMARK  status: ('A' for Active; 'I' for Inactive)
REMARK    1  A    between atoms: N_2  and  C_9
REMARK    2  A    between atoms: C_5  and  C_10
REMARK    3  A    between atoms: C_9  and  C_11
REMARK    4  A    between atoms: C_9  and  C_12
REMARK    5  A    between atoms: C_13  and  C_14
REMARK    6  A    between atoms: C_14  and  C_15
REMARK                            x       y       z     vdW  Elec       q    Type
REMARK                         _______ _______ _______ _____ _____    ______ ____
ROOT
ATOM      1  O   UNL     1      -1.920   3.017  24.945  0.00  0.00    -0.424 OA
ATOM      3  N   UNL     1      -0.222   4.470  25.071  0.00  0.00    -0.112 NA
ATOM      4  N   UNL     1      -1.400   5.191  25.036  0.00  0.00    -0.112 NA
ATOM     10  C   UNL     1      -0.573   3.206  25.016  0.00  0.00    +0.222 A 
ATOM     13  C   UNL     1      -2.365   4.303  24.962  0.00  0.00    +0.222 A 
ENDROOT
BRANCH  10   5
ATOM      2  N   UNL     1       1.517   0.538  23.623  0.00  0.00    -0.299 NA
ATOM      5  C   UNL     1       0.290   1.966  25.021  0.00  0.00    +0.092 C 
ATOM      6  C   UNL     1       1.343   1.965  23.905  0.00  0.00    +0.097 C 
ATOM      7  C   UNL     1      -0.476   0.644  24.835  0.00  0.00    +0.029 C 
ATOM      8  C   UNL     1       0.162  -0.013  23.617  0.00  0.00    +0.085 C 
BRANCH   2   9
ATOM      9  C   UNL     1       2.216   0.301  22.368  0.00  0.00    +0.050 C 
ATOM     11  C   UNL     1       1.429  -0.676  21.500  0.00  0.00    +0.024 C 
ATOM     12  C   UNL     1       3.615  -0.229  22.659  0.00  0.00    +0.024 C 
ENDBRANCH   2   9
ENDBRANCH  10   5
BRANCH  13  14
ATOM     14  C   UNL     1      -3.818   4.503  24.900  0.00  0.00    +0.132 C 
BRANCH  14  15
ATOM     15  C   UNL     1      -4.644   3.233  25.074  0.00  0.00    -0.038 A 
ATOM     16  C   UNL     1      -4.305   2.079  24.367  0.00  0.00    +0.004 A 
ATOM     17  C   UNL     1      -5.738   3.226  25.939  0.00  0.00    +0.004 A 
ATOM     18  C   UNL     1      -5.061   0.918  24.526  0.00  0.00    +0.000 A 
ATOM     19  C   UNL     1      -6.494   2.065  26.097  0.00  0.00    +0.000 A 
ATOM     20  C   UNL     1      -6.156   0.910  25.391  0.00  0.00    +0.000 A 
ENDBRANCH  14  15
ENDBRANCH  13  14
TORSDOF 4
ENDMDL
MODEL 9
REMARK VINA RESULT:      -2.9     16.794     18.246
REMARK  Name = 51137406
REMARK  6 active torsions:
REMARK  status: ('A' for Active; 'I' for Inactive)
REMARK    1  A    between atoms: N_2  and  C_9
REMARK    2  A    between atoms: C_5  and  C_10
REMARK    3  A    between atoms: C_9  and  C_11
REMARK    4  A    between atoms: C_9  and  C_12
REMARK    5  A    between atoms: C_13  and  C_14
REMARK    6  A    between atoms: C_14  and  C_15
REMARK                            x       y       z     vdW  Elec       q    Type
REMARK                         _______ _______ _______ _____ _____    ______ ____
ROOT
ATOM      1  O   UNL     1      16.123  -7.236  27.539  0.00  0.00    -0.424 OA
ATOM      3  N   UNL     1      16.968  -9.006  28.615  0.00  0.00    -0.112 NA
ATOM      4  N   UNL     1      17.382  -9.069  27.298  0.00  0.00    -0.112 NA
ATOM     10  C   UNL     1      16.236  -7.921  28.711  0.00  0.00    +0.222 A 
ATOM     13  C   UNL     1      16.865  -8.017  26.707  0.00  0.00    +0.222 A 
ENDROOT
BRANCH  10   5
ATOM      2  N   UNL     1      13.633  -7.617  31.271  0.00  0.00    -0.299 NA
ATOM      5  C   UNL     1      15.523  -7.342  29.910  0.00  0.00    +0.092 C 
ATOM      6  C   UNL     1      14.738  -8.394  30.705  0.00  0.00    +0.097 C 
ATOM      7  C   UNL     1      14.489  -6.250  29.583  0.00  0.00    +0.029 C 
ATOM      8  C   UNL     1      13.181  -6.753  30.181  0.00  0.00    +0.085 C 
BRANCH   2   9
ATOM      9  C   UNL     1      12.567  -8.463  31.787  0.00  0.00    +0.050 C 
ATOM     11  C   UNL     1      12.479  -9.754  30.979  0.00  0.00    +0.024 C 
ATOM     12  C   UNL     1      11.248  -7.700  31.745  0.00  0.00    +0.024 C 
ENDBRANCH   2   9
ENDBRANCH  10   5
BRANCH  13  14
ATOM     14  C   UNL     1      16.978  -7.577  25.311  0.00  0.00    +0.132 C 
BRANCH  14  15
ATOM     15  C   UNL     1      17.102  -6.070  25.125  0.00  0.00    -0.038 A 
ATOM     16  C   UNL     1      17.025  -5.516  23.846  0.00  0.00    +0.004 A 
ATOM     17  C   UNL     1      17.292  -5.242  26.232  0.00  0.00    +0.004 A 
ATOM     18  C   UNL     1      17.139  -4.137  23.675  0.00  0.00    +0.000 A 
ATOM     19  C   UNL     1      17.405  -3.863  26.061  0.00  0.00    +0.000 A 
ATOM     20  C   UNL     1      17.329  -3.310  24.782  0.00  0.00    +0.000 A 
ENDBRANCH  14  15
ENDBRANCH  13  14
TORSDOF 4
ENDMDL
MODEL 10
REMARK VINA RESULT:      -2.8      2.995      7.083
REMARK  Name = 51137406
REMARK  6 active torsions:
REMARK  status: ('A' for Active; 'I' for Inactive)
REMARK    1  A    between atoms: N_2  and  C_9
REMARK    2  A    between atoms: C_5  and  C_10
REMARK    3  A    between atoms: C_9  and  C_11
REMARK    4  A    between atoms: C_9  and  C_12
REMARK    5  A    between atoms: C_13  and  C_14
REMARK    6  A    between atoms: C_14  and  C_15
REMARK                            x       y       z     vdW  Elec       q    Type
REMARK                         _______ _______ _______ _____ _____    ______ ____
ROOT
ATOM      1  O   UNL     1      -1.674   2.491  24.738  0.00  0.00    -0.424 OA
ATOM      3  N   UNL     1       0.535   2.717  24.468  0.00  0.00    -0.112 NA
ATOM      4  N   UNL     1       0.052   3.884  25.030  0.00  0.00    -0.112 NA
ATOM     10  C   UNL     1      -0.506   1.933  24.315  0.00  0.00    +0.222 A 
ATOM     13  C   UNL     1      -1.242   3.708  25.169  0.00  0.00    +0.222 A 
ENDROOT
BRANCH  10   5
ATOM      2  N   UNL     1      -1.905  -1.404  23.739  0.00  0.00    -0.299 NA
ATOM      5  C   UNL     1      -0.584   0.534  23.751  0.00  0.00    +0.092 C 
ATOM      6  C   UNL     1      -2.026   0.045  23.561  0.00  0.00    +0.097 C 
ATOM      7  C   UNL     1       0.084  -0.550  24.615  0.00  0.00    +0.029 C 
ATOM      8  C   UNL     1      -1.015  -1.570  24.888  0.00  0.00    +0.085 C 
BRANCH   2   9
ATOM      9  C   UNL     1      -3.194  -2.048  23.939  0.00  0.00    +0.050 C 
ATOM     11  C   UNL     1      -4.303  -1.002  24.016  0.00  0.00    +0.024 C 
ATOM     12  C   UNL     1      -3.150  -2.892  25.209  0.00  0.00    +0.024 C 
ENDBRANCH   2   9
ENDBRANCH  10   5
BRANCH  13  14
ATOM     14  C   UNL     1      -2.257   4.617  25.715  0.00  0.00    +0.132 C 
BRANCH  14  15
ATOM     15  C   UNL     1      -3.684   4.084  25.664  0.00  0.00    -0.038 A 
ATOM     16  C   UNL     1      -3.919   2.711  25.742  0.00  0.00    +0.004 A 
ATOM     17  C   UNL     1      -4.755   4.969  25.539  0.00  0.00    +0.004 A 
ATOM     18  C   UNL     1      -5.225   2.223  25.695  0.00  0.00    +0.000 A 
ATOM     19  C   UNL     1      -6.061   4.481  25.492  0.00  0.00    +0.000 A 
ATOM     20  C   UNL     1      -6.296   3.108  25.570  0.00  0.00    +0.000 A 
ENDBRANCH  14  15
ENDBRANCH  13  14
TORSDOF 4
ENDMDL
