MODEL 1
REMARK VINA RESULT:      -3.6      0.000      0.000
REMARK  Name = 45783393
REMARK  8 active torsions:
REMARK  status: ('A' for Active; 'I' for Inactive)
REMARK    1  A    between atoms: O_3  and  C_26
REMARK    2  A    between atoms: O_3  and  C_27
REMARK    3  A    between atoms: N_4  and  C_13
REMARK    4  A    between atoms: N_7  and  C_23
REMARK    5  A    between atoms: C_9  and  C_14
REMARK    6  A    between atoms: C_13  and  C_15
REMARK    7  A    between atoms: C_16  and  C_18
REMARK    8  A    between atoms: C_23  and  C_26
REMARK                            x       y       z     vdW  Elec       q    Type
REMARK                         _______ _______ _______ _____ _____    ______ ____
ROOT
ATOM      2  O   UNL     1      -7.039  -8.626  11.430  0.00  0.00    -0.336 OA
ATOM      5  N   UNL     1      -5.710 -10.076  10.359  0.00  0.00    -0.190 NA
ATOM      6  N   UNL     1      -5.843  -8.669  12.158  0.00  0.00    -0.056 NA
ATOM     14  C   UNL     1      -6.877  -9.482  10.387  0.00  0.00    +0.245 A 
ATOM     16  C   UNL     1      -5.111  -9.546  11.464  0.00  0.00    +0.205 A 
ENDROOT
BRANCH  16  18
ATOM      7  N   UNL     1      -4.512 -10.506  14.070  0.00  0.00    -0.326 N 
ATOM      8  N   UNL     1      -2.225 -10.736  13.510  0.00  0.00    -0.240 NA
ATOM     18  C   UNL     1      -3.779  -9.913  11.850  0.00  0.00    +0.062 A 
ATOM     21  C   UNL     1      -3.470 -10.383  13.116  0.00  0.00    +0.130 A 
ATOM     22  C   UNL     1      -2.746  -9.799  10.927  0.00  0.00    +0.016 A 
ATOM     24  C   UNL     1      -1.452 -10.153  11.294  0.00  0.00    +0.020 A 
ATOM     25  C   UNL     1      -1.246 -10.611  12.585  0.00  0.00    +0.113 A 
ATOM     28  H   UNL     1      -5.431 -10.751  13.717  0.00  0.00    +0.148 HD
BRANCH   7  23
ATOM     23  C   UNL     1      -4.267 -10.570  15.473  0.00  0.00    +0.131 C 
BRANCH  23  26
ATOM     26  C   UNL     1      -5.481 -10.065  16.236  0.00  0.00    +0.178 C 
BRANCH  26   3
ATOM      3  O   UNL     1      -5.205 -10.084  17.631  0.00  0.00    -0.381 OA
ATOM     27  C   UNL     1      -6.400 -10.142  18.397  0.00  0.00    +0.194 C 
ENDBRANCH  26   3
ENDBRANCH  23  26
ENDBRANCH   7  23
ENDBRANCH  16  18
BRANCH  14   9
ATOM      4  N   UNL     1      -9.323  -9.184  10.039  0.00  0.00    -0.287 NA
ATOM      9  C   UNL     1      -8.046  -9.616   9.435  0.00  0.00    +0.146 C 
ATOM     10  C   UNL     1      -7.892  -8.740   8.178  0.00  0.00    +0.030 C 
ATOM     11  C   UNL     1      -9.155  -7.893   8.126  0.00  0.00    +0.017 C 
ATOM     12  C   UNL     1     -10.153  -8.692   8.941  0.00  0.00    +0.085 C 
BRANCH   4  13
ATOM     13  C   UNL     1      -9.984 -10.239  10.797  0.00  0.00    +0.127 C 
BRANCH  13  15
ATOM      1  S   UNL     1      -8.726 -10.781  13.217  0.00  0.00    -0.100 S 
ATOM     15  C   UNL     1      -9.919  -9.988  12.280  0.00  0.00    +0.004 A 
ATOM     17  C   UNL     1     -10.720  -9.170  13.047  0.00  0.00    +0.012 A 
ATOM     19  C   UNL     1     -10.348  -9.195  14.423  0.00  0.00    +0.008 A 
ATOM     20  C   UNL     1      -9.277 -10.031  14.653  0.00  0.00    +0.045 A 
ENDBRANCH  13  15
ENDBRANCH   4  13
ENDBRANCH  14   9
TORSDOF 7
ENDMDL
MODEL 2
REMARK VINA RESULT:      -1.1     14.429     17.056
REMARK  Name = 45783393
REMARK  8 active torsions:
REMARK  status: ('A' for Active; 'I' for Inactive)
REMARK    1  A    between atoms: O_3  and  C_26
REMARK    2  A    between atoms: O_3  and  C_27
REMARK    3  A    between atoms: N_4  and  C_13
REMARK    4  A    between atoms: N_7  and  C_23
REMARK    5  A    between atoms: C_9  and  C_14
REMARK    6  A    between atoms: C_13  and  C_15
REMARK    7  A    between atoms: C_16  and  C_18
REMARK    8  A    between atoms: C_23  and  C_26
REMARK                            x       y       z     vdW  Elec       q    Type
REMARK                         _______ _______ _______ _____ _____    ______ ____
ROOT
ATOM      2  O   UNL     1      -0.826  -2.566  25.322  0.00  0.00    -0.336 OA
ATOM      5  N   UNL     1      -1.163  -0.704  24.123  0.00  0.00    -0.190 NA
ATOM      6  N   UNL     1       0.445  -2.075  24.999  0.00  0.00    -0.056 NA
ATOM     14  C   UNL     1      -1.715  -1.701  24.768  0.00  0.00    +0.245 A 
ATOM     16  C   UNL     1       0.164  -0.977  24.292  0.00  0.00    +0.205 A 
ENDROOT
BRANCH  16  18
ATOM      7  N   UNL     1       0.269   1.807  24.848  0.00  0.00    -0.326 N 
ATOM      8  N   UNL     1       2.197   2.050  23.497  0.00  0.00    -0.240 NA
ATOM     18  C   UNL     1       1.183  -0.132  23.742  0.00  0.00    +0.062 A 
ATOM     21  C   UNL     1       1.249   1.228  24.002  0.00  0.00    +0.130 A 
ATOM     22  C   UNL     1       2.151  -0.684  22.911  0.00  0.00    +0.016 A 
ATOM     24  C   UNL     1       3.143   0.130  22.373  0.00  0.00    +0.020 A 
ATOM     25  C   UNL     1       3.122   1.478  22.694  0.00  0.00    +0.113 A 
ATOM     28  H   UNL     1      -0.090   1.228  25.598  0.00  0.00    +0.148 HD
BRANCH   7  23
ATOM     23  C   UNL     1      -0.013   3.204  24.853  0.00  0.00    +0.131 C 
BRANCH  23  26
ATOM     26  C   UNL     1      -1.129   3.505  25.839  0.00  0.00    +0.178 C 
BRANCH  26   3
ATOM      3  O   UNL     1      -1.641   4.809  25.591  0.00  0.00    -0.381 OA
ATOM     27  C   UNL     1      -0.843   5.512  24.650  0.00  0.00    +0.194 C 
ENDBRANCH  26   3
ENDBRANCH  23  26
ENDBRANCH   7  23
ENDBRANCH  16  18
BRANCH  14   9
ATOM      4  N   UNL     1      -4.069  -0.959  24.447  0.00  0.00    -0.287 NA
ATOM      9  C   UNL     1      -3.182  -2.013  24.978  0.00  0.00    +0.146 C 
ATOM     10  C   UNL     1      -3.625  -3.298  24.255  0.00  0.00    +0.030 C 
ATOM     11  C   UNL     1      -4.803  -2.880  23.386  0.00  0.00    +0.017 C 
ATOM     12  C   UNL     1      -5.314  -1.622  24.060  0.00  0.00    +0.085 C 
BRANCH   4  13
ATOM     13  C   UNL     1      -4.297   0.129  25.390  0.00  0.00    +0.127 C 
BRANCH  13  15
ATOM      1  S   UNL     1      -4.987   2.823  25.428  0.00  0.00    -0.100 S 
ATOM     15  C   UNL     1      -4.194   1.476  24.727  0.00  0.00    +0.004 A 
ATOM     17  C   UNL     1      -3.521   1.816  23.574  0.00  0.00    +0.012 A 
ATOM     19  C   UNL     1      -3.657   3.199  23.262  0.00  0.00    +0.008 A 
ATOM     20  C   UNL     1      -4.430   3.864  24.189  0.00  0.00    +0.045 A 
ENDBRANCH  13  15
ENDBRANCH   4  13
ENDBRANCH  14   9
TORSDOF 7
ENDMDL
MODEL 3
REMARK VINA RESULT:      -0.9     14.654     17.758
REMARK  Name = 45783393
REMARK  8 active torsions:
REMARK  status: ('A' for Active; 'I' for Inactive)
REMARK    1  A    between atoms: O_3  and  C_26
REMARK    2  A    between atoms: O_3  and  C_27
REMARK    3  A    between atoms: N_4  and  C_13
REMARK    4  A    between atoms: N_7  and  C_23
REMARK    5  A    between atoms: C_9  and  C_14
REMARK    6  A    between atoms: C_13  and  C_15
REMARK    7  A    between atoms: C_16  and  C_18
REMARK    8  A    between atoms: C_23  and  C_26
REMARK                            x       y       z     vdW  Elec       q    Type
REMARK                         _______ _______ _______ _____ _____    ______ ____
ROOT
ATOM      2  O   UNL     1      -3.922   2.219  23.808  0.00  0.00    -0.336 OA
ATOM      5  N   UNL     1      -4.049   0.666  25.417  0.00  0.00    -0.190 NA
ATOM      6  N   UNL     1      -3.433   1.033  23.245  0.00  0.00    -0.056 NA
ATOM     14  C   UNL     1      -4.263   1.915  25.088  0.00  0.00    +0.245 A 
ATOM     16  C   UNL     1      -3.540   0.165  24.255  0.00  0.00    +0.205 A 
ENDROOT
BRANCH  16  18
ATOM      7  N   UNL     1      -0.812  -0.626  24.308  0.00  0.00    -0.326 N 
ATOM      8  N   UNL     1      -1.418  -2.899  24.046  0.00  0.00    -0.240 NA
ATOM     18  C   UNL     1      -3.146  -1.209  24.134  0.00  0.00    +0.062 A 
ATOM     21  C   UNL     1      -1.820  -1.612  24.158  0.00  0.00    +0.130 A 
ATOM     22  C   UNL     1      -4.122  -2.188  23.987  0.00  0.00    +0.016 A 
ATOM     24  C   UNL     1      -3.747  -3.522  23.869  0.00  0.00    +0.020 A 
ATOM     25  C   UNL     1      -2.395  -3.822  23.904  0.00  0.00    +0.113 A 
ATOM     28  H   UNL     1      -1.041   0.182  24.876  0.00  0.00    +0.148 HD
BRANCH   7  23
ATOM     23  C   UNL     1       0.546  -0.853  23.938  0.00  0.00    +0.131 C 
BRANCH  23  26
ATOM     26  C   UNL     1       0.939   0.083  22.806  0.00  0.00    +0.178 C 
BRANCH  26   3
ATOM      3  O   UNL     1       2.263  -0.215  22.383  0.00  0.00    -0.381 OA
ATOM     27  C   UNL     1       3.184   0.779  22.811  0.00  0.00    +0.194 C 
ENDBRANCH  26   3
ENDBRANCH  23  26
ENDBRANCH   7  23
ENDBRANCH  16  18
BRANCH  14   9
ATOM      4  N   UNL     1      -4.126   4.324  25.697  0.00  0.00    -0.287 NA
ATOM      9  C   UNL     1      -4.828   3.045  25.923  0.00  0.00    +0.146 C 
ATOM     10  C   UNL     1      -6.302   3.345  25.595  0.00  0.00    +0.030 C 
ATOM     11  C   UNL     1      -6.341   4.828  25.256  0.00  0.00    +0.017 C 
ATOM     12  C   UNL     1      -5.107   5.382  25.939  0.00  0.00    +0.085 C 
BRANCH   4  13
ATOM     13  C   UNL     1      -2.936   4.480  26.524  0.00  0.00    +0.127 C 
BRANCH  13  15
ATOM      1  S   UNL     1      -1.102   4.470  24.433  0.00  0.00    -0.100 S 
ATOM     15  C   UNL     1      -1.729   3.836  25.895  0.00  0.00    +0.004 A 
ATOM     17  C   UNL     1      -1.007   2.751  26.339  0.00  0.00    +0.012 A 
ATOM     19  C   UNL     1       0.076   2.435  25.468  0.00  0.00    +0.008 A 
ATOM     20  C   UNL     1       0.139   3.292  24.391  0.00  0.00    +0.045 A 
ENDBRANCH  13  15
ENDBRANCH   4  13
ENDBRANCH  14   9
TORSDOF 7
ENDMDL
MODEL 4
REMARK VINA RESULT:      -0.4     15.091     17.280
REMARK  Name = 45783393
REMARK  8 active torsions:
REMARK  status: ('A' for Active; 'I' for Inactive)
REMARK    1  A    between atoms: O_3  and  C_26
REMARK    2  A    between atoms: O_3  and  C_27
REMARK    3  A    between atoms: N_4  and  C_13
REMARK    4  A    between atoms: N_7  and  C_23
REMARK    5  A    between atoms: C_9  and  C_14
REMARK    6  A    between atoms: C_13  and  C_15
REMARK    7  A    between atoms: C_16  and  C_18
REMARK    8  A    between atoms: C_23  and  C_26
REMARK                            x       y       z     vdW  Elec       q    Type
REMARK                         _______ _______ _______ _____ _____    ______ ____
ROOT
ATOM      2  O   UNL     1      -0.657   3.295  25.771  0.00  0.00    -0.336 OA
ATOM      5  N   UNL     1      -0.966   2.227  23.827  0.00  0.00    -0.190 NA
ATOM      6  N   UNL     1       0.555   2.657  25.480  0.00  0.00    -0.056 NA
ATOM     14  C   UNL     1      -1.498   2.991  24.748  0.00  0.00    +0.245 A 
ATOM     16  C   UNL     1       0.294   2.048  24.320  0.00  0.00    +0.205 A 
ENDROOT
BRANCH  16  18
ATOM      7  N   UNL     1      -0.272  -0.592  23.437  0.00  0.00    -0.326 N 
ATOM      8  N   UNL     1       1.908  -0.807  22.539  0.00  0.00    -0.240 NA
ATOM     18  C   UNL     1       1.269   1.255  23.629  0.00  0.00    +0.062 A 
ATOM     21  C   UNL     1       1.009  -0.034  23.192  0.00  0.00    +0.130 A 
ATOM     22  C   UNL     1       2.529   1.786  23.381  0.00  0.00    +0.016 A 
ATOM     24  C   UNL     1       3.479   1.022  22.712  0.00  0.00    +0.020 A 
ATOM     25  C   UNL     1       3.122  -0.257  22.316  0.00  0.00    +0.113 A 
ATOM     28  H   UNL     1      -1.059   0.047  23.429  0.00  0.00    +0.148 HD
BRANCH   7  23
ATOM     23  C   UNL     1      -0.516  -1.996  23.416  0.00  0.00    +0.131 C 
BRANCH  23  26
ATOM     26  C   UNL     1      -0.868  -2.483  24.812  0.00  0.00    +0.178 C 
BRANCH  26   3
ATOM      3  O   UNL     1      -0.112  -1.755  25.772  0.00  0.00    -0.381 OA
ATOM     27  C   UNL     1      -0.891  -0.738  26.386  0.00  0.00    +0.194 C 
ENDBRANCH  26   3
ENDBRANCH  23  26
ENDBRANCH   7  23
ENDBRANCH  16  18
BRANCH  14   9
ATOM      4  N   UNL     1      -3.906   2.568  25.214  0.00  0.00    -0.287 NA
ATOM      9  C   UNL     1      -2.894   3.571  24.825  0.00  0.00    +0.146 C 
ATOM     10  C   UNL     1      -3.017   4.682  25.885  0.00  0.00    +0.030 C 
ATOM     11  C   UNL     1      -4.161   4.245  26.788  0.00  0.00    +0.017 C 
ATOM     12  C   UNL     1      -4.961   3.297  25.917  0.00  0.00    +0.085 C 
BRANCH   4  13
ATOM     13  C   UNL     1      -4.423   1.807  24.085  0.00  0.00    +0.127 C 
BRANCH  13  15
ATOM      1  S   UNL     1      -3.976  -0.292  25.854  0.00  0.00    -0.100 S 
ATOM     15  C   UNL     1      -4.246   0.325  24.279  0.00  0.00    +0.004 A 
ATOM     17  C   UNL     1      -4.267  -0.673  23.330  0.00  0.00    +0.012 A 
ATOM     19  C   UNL     1      -4.059  -1.961  23.903  0.00  0.00    +0.008 A 
ATOM     20  C   UNL     1      -3.888  -1.898  25.269  0.00  0.00    +0.045 A 
ENDBRANCH  13  15
ENDBRANCH   4  13
ENDBRANCH  14   9
TORSDOF 7
ENDMDL
MODEL 5
REMARK VINA RESULT:       0.3     14.751     17.664
REMARK  Name = 45783393
REMARK  8 active torsions:
REMARK  status: ('A' for Active; 'I' for Inactive)
REMARK    1  A    between atoms: O_3  and  C_26
REMARK    2  A    between atoms: O_3  and  C_27
REMARK    3  A    between atoms: N_4  and  C_13
REMARK    4  A    between atoms: N_7  and  C_23
REMARK    5  A    between atoms: C_9  and  C_14
REMARK    6  A    between atoms: C_13  and  C_15
REMARK    7  A    between atoms: C_16  and  C_18
REMARK    8  A    between atoms: C_23  and  C_26
REMARK                            x       y       z     vdW  Elec       q    Type
REMARK                         _______ _______ _______ _____ _____    ______ ____
ROOT
ATOM      2  O   UNL     1      -1.419  -0.499  26.356  0.00  0.00    -0.336 OA
ATOM      5  N   UNL     1      -2.362   0.828  24.817  0.00  0.00    -0.190 NA
ATOM      6  N   UNL     1      -0.635   0.661  26.307  0.00  0.00    -0.056 NA
ATOM     14  C   UNL     1      -2.414  -0.318  25.448  0.00  0.00    +0.245 A 
ATOM     16  C   UNL     1      -1.254   1.394  25.377  0.00  0.00    +0.205 A 
ENDROOT
BRANCH  16  18
ATOM      7  N   UNL     1       0.985   1.738  23.664  0.00  0.00    -0.326 N 
ATOM      8  N   UNL     1       0.759   4.092  23.766  0.00  0.00    -0.240 NA
ATOM     18  C   UNL     1      -0.792   2.694  24.986  0.00  0.00    +0.062 A 
ATOM     21  C   UNL     1       0.299   2.880  24.152  0.00  0.00    +0.130 A 
ATOM     22  C   UNL     1      -1.453   3.823  25.456  0.00  0.00    +0.016 A 
ATOM     24  C   UNL     1      -1.009   5.087  25.081  0.00  0.00    +0.020 A 
ATOM     25  C   UNL     1       0.091   5.166  24.242  0.00  0.00    +0.113 A 
ATOM     28  H   UNL     1       0.429   0.908  23.491  0.00  0.00    +0.148 HD
BRANCH   7  23
ATOM     23  C   UNL     1       2.318   1.798  23.164  0.00  0.00    +0.131 C 
BRANCH  23  26
ATOM     26  C   UNL     1       2.784   0.410  22.758  0.00  0.00    +0.178 C 
BRANCH  26   3
ATOM      3  O   UNL     1       4.133   0.474  22.313  0.00  0.00    -0.381 OA
ATOM     27  C   UNL     1       5.044   0.269  23.384  0.00  0.00    +0.194 C 
ENDBRANCH  26   3
ENDBRANCH  23  26
ENDBRANCH   7  23
ENDBRANCH  16  18
BRANCH  14   9
ATOM      4  N   UNL     1      -4.412  -1.194  24.250  0.00  0.00    -0.287 NA
ATOM      9  C   UNL     1      -3.413  -1.447  25.308  0.00  0.00    +0.146 C 
ATOM     10  C   UNL     1      -2.751  -2.780  24.909  0.00  0.00    +0.030 C 
ATOM     11  C   UNL     1      -3.484  -3.228  23.653  0.00  0.00    +0.017 C 
ATOM     12  C   UNL     1      -4.813  -2.504  23.738  0.00  0.00    +0.085 C 
BRANCH   4  13
ATOM     13  C   UNL     1      -5.552  -0.414  24.713  0.00  0.00    +0.127 C 
BRANCH  13  15
ATOM      1  S   UNL     1      -5.755   2.021  26.043  0.00  0.00    -0.100 S 
ATOM     15  C   UNL     1      -5.258   1.063  24.714  0.00  0.00    +0.004 A 
ATOM     17  C   UNL     1      -4.613   1.809  23.752  0.00  0.00    +0.012 A 
ATOM     19  C   UNL     1      -4.525   3.185  24.111  0.00  0.00    +0.008 A 
ATOM     20  C   UNL     1      -5.106   3.437  25.334  0.00  0.00    +0.045 A 
ENDBRANCH  13  15
ENDBRANCH   4  13
ENDBRANCH  14   9
TORSDOF 7
ENDMDL
