MODEL 1
REMARK VINA RESULT:       9.9      0.000      0.000
REMARK  Name = 40533563
REMARK  2 active torsions:
REMARK  status: ('A' for Active; 'I' for Inactive)
REMARK    1  A    between atoms: N_6  and  C_21
REMARK    2  A    between atoms: C_18  and  C_20
REMARK                            x       y       z     vdW  Elec       q    Type
REMARK                         _______ _______ _______ _____ _____    ______ ____
ROOT
ATOM      2  O   UNL     1       0.703   1.537  26.001  0.00  0.00    -0.267 OA
ATOM      3  O   UNL     1      -4.293   1.976  23.076  0.00  0.00    -0.252 OA
ATOM      4  N   UNL     1      -3.918   3.220  24.990  0.00  0.00    -0.284 N 
ATOM      5  N   UNL     1      -0.746   3.252  25.371  0.00  0.00    -0.311 N 
ATOM      6  N   UNL     1      -4.531   0.948  25.141  0.00  0.00    -0.269 N 
ATOM      8  C   UNL     1      -2.591   4.131  26.912  0.00  0.00    +0.027 C 
ATOM      9  C   UNL     1      -2.312   5.097  24.671  0.00  0.00    +0.054 C 
ATOM     10  C   UNL     1      -2.416   5.440  26.154  0.00  0.00    +0.018 C 
ATOM     11  C   UNL     1      -3.861   3.388  26.451  0.00  0.00    +0.114 C 
ATOM     12  C   UNL     1      -1.330   3.280  26.720  0.00  0.00    +0.130 C 
ATOM     13  C   UNL     1      -3.622   4.431  24.214  0.00  0.00    +0.119 C 
ATOM     14  C   UNL     1      -1.142   4.171  24.396  0.00  0.00    +0.027 A 
ATOM     15  C   UNL     1      -0.512   4.208  23.212  0.00  0.00    +0.022 A 
ATOM     16  C   UNL     1       0.301   2.336  25.153  0.00  0.00    +0.259 A 
ATOM     17  C   UNL     1      -4.247   2.029  24.307  0.00  0.00    +0.306 C 
ATOM     18  C   UNL     1       0.960   2.374  23.801  0.00  0.00    +0.048 A 
ATOM     19  C   UNL     1       0.551   3.292  22.911  0.00  0.00    +0.015 A 
ATOM     31  H   UNL     1      -4.947   1.140  26.046  0.00  0.00    +0.156 HD
ENDROOT
BRANCH   6  21
ATOM      1 CL   UNL     1      -3.649  -4.799  23.985  0.00  0.00    -0.084 Cl
ATOM     21  C   UNL     1      -4.321  -0.426  24.865  0.00  0.00    +0.035 A 
ATOM     24  C   UNL     1      -3.575  -1.209  25.747  0.00  0.00    +0.025 A 
ATOM     25  C   UNL     1      -4.859  -0.995  23.711  0.00  0.00    +0.025 A 
ATOM     28  C   UNL     1      -3.367  -2.560  25.475  0.00  0.00    +0.022 A 
ATOM     29  C   UNL     1      -4.652  -2.348  23.439  0.00  0.00    +0.022 A 
ATOM     30  C   UNL     1      -3.906  -3.130  24.321  0.00  0.00    +0.041 A 
ENDBRANCH   6  21
BRANCH  18  20
ATOM      7  N   UNL     1       2.708  -0.861  23.041  0.00  0.00    -0.263 NA
ATOM     20  C   UNL     1       2.029   1.424  23.446  0.00  0.00    +0.005 A 
ATOM     22  C   UNL     1       3.322   1.862  23.188  0.00  0.00    +0.011 A 
ATOM     23  C   UNL     1       1.775   0.064  23.360  0.00  0.00    +0.119 A 
ATOM     26  C   UNL     1       4.309   0.941  22.855  0.00  0.00    +0.020 A 
ATOM     27  C   UNL     1       3.955  -0.397  22.796  0.00  0.00    +0.111 A 
ENDBRANCH  18  20
TORSDOF 2
ENDMDL
MODEL 2
REMARK VINA RESULT:      13.4      2.159      6.146
REMARK  Name = 40533563
REMARK  2 active torsions:
REMARK  status: ('A' for Active; 'I' for Inactive)
REMARK    1  A    between atoms: N_6  and  C_21
REMARK    2  A    between atoms: C_18  and  C_20
REMARK                            x       y       z     vdW  Elec       q    Type
REMARK                         _______ _______ _______ _____ _____    ______ ____
ROOT
ATOM      2  O   UNL     1      -3.655   0.321  22.373  0.00  0.00    -0.267 OA
ATOM      3  O   UNL     1      -0.033   2.627  26.281  0.00  0.00    -0.252 OA
ATOM      4  N   UNL     1      -1.430   3.966  25.013  0.00  0.00    -0.284 N 
ATOM      5  N   UNL     1      -3.740   2.025  23.963  0.00  0.00    -0.311 N 
ATOM      6  N   UNL     1       0.563   3.104  24.091  0.00  0.00    -0.269 N 
ATOM      8  C   UNL     1      -3.266   4.472  23.383  0.00  0.00    +0.027 C 
ATOM      9  C   UNL     1      -3.822   3.852  25.694  0.00  0.00    +0.054 C 
ATOM     10  C   UNL     1      -4.195   4.789  24.549  0.00  0.00    +0.018 C 
ATOM     11  C   UNL     1      -1.790   4.681  23.778  0.00  0.00    +0.114 C 
ATOM     12  C   UNL     1      -3.536   3.037  22.916  0.00  0.00    +0.130 C 
ATOM     13  C   UNL     1      -2.373   4.135  26.126  0.00  0.00    +0.119 C 
ATOM     14  C   UNL     1      -3.964   2.397  25.290  0.00  0.00    +0.027 A 
ATOM     15  C   UNL     1      -4.269   1.466  26.207  0.00  0.00    +0.022 A 
ATOM     16  C   UNL     1      -3.809   0.683  23.541  0.00  0.00    +0.259 A 
ATOM     17  C   UNL     1      -0.274   3.178  25.204  0.00  0.00    +0.306 C 
ATOM     18  C   UNL     1      -4.112  -0.342  24.600  0.00  0.00    +0.048 A 
ATOM     19  C   UNL     1      -4.338   0.076  25.855  0.00  0.00    +0.015 A 
ATOM     31  H   UNL     1       0.595   3.902  23.465  0.00  0.00    +0.156 HD
ENDROOT
BRANCH   6  21
ATOM      1 CL   UNL     1       4.103  -1.398  22.562  0.00  0.00    -0.084 Cl
ATOM     21  C   UNL     1       1.409   2.028  23.725  0.00  0.00    +0.035 A 
ATOM     24  C   UNL     1       0.932   0.717  23.773  0.00  0.00    +0.025 A 
ATOM     25  C   UNL     1       2.719   2.279  23.317  0.00  0.00    +0.025 A 
ATOM     28  C   UNL     1       1.765  -0.341  23.414  0.00  0.00    +0.022 A 
ATOM     29  C   UNL     1       3.552   1.219  22.957  0.00  0.00    +0.022 A 
ATOM     30  C   UNL     1       3.075  -0.090  23.006  0.00  0.00    +0.041 A 
ENDBRANCH   6  21
BRANCH  18  20
ATOM      7  N   UNL     1      -3.241  -3.995  24.607  0.00  0.00    -0.263 NA
ATOM     20  C   UNL     1      -4.154  -1.780  24.280  0.00  0.00    +0.005 A 
ATOM     22  C   UNL     1      -5.092  -2.290  23.390  0.00  0.00    +0.011 A 
ATOM     23  C   UNL     1      -3.258  -2.666  24.856  0.00  0.00    +0.119 A 
ATOM     26  C   UNL     1      -5.107  -3.651  23.108  0.00  0.00    +0.020 A 
ATOM     27  C   UNL     1      -4.168  -4.454  23.736  0.00  0.00    +0.111 A 
ENDBRANCH  18  20
TORSDOF 2
ENDMDL
