MODEL 1
REMARK VINA RESULT:      10.0      0.000      0.000
REMARK  Name = 45360615
REMARK  10 active torsions:
REMARK  status: ('A' for Active; 'I' for Inactive)
REMARK    1  A    between atoms: S_2  and  N_7
REMARK    2  A    between atoms: S_2  and  C_16
REMARK    3  A    between atoms: O_5  and  C_17
REMARK    4  A    between atoms: O_5  and  C_32
REMARK    5  A    between atoms: N_8  and  C_18
REMARK    6  A    between atoms: N_10  and  C_25
REMARK    7  A    between atoms: N_10  and  C_35
REMARK    8  A    between atoms: N_10  and  C_36
REMARK    9  A    between atoms: C_11  and  C_17
REMARK   10  A    between atoms: C_18  and  C_23
REMARK                            x       y       z     vdW  Elec       q    Type
REMARK                         _______ _______ _______ _____ _____    ______ ____
ROOT
ATOM      7  N   UNL     1      -3.932  -0.430  25.886  0.00  0.00    -0.157 NA
ATOM      8  N   UNL     1      -4.408   3.270  25.616  0.00  0.00    -0.328 N 
ATOM      9  N   UNL     1      -6.351   2.722  24.658  0.00  0.00    -0.240 NA
ATOM     11  C   UNL     1      -4.829  -0.756  24.719  0.00  0.00    +0.194 C 
ATOM     12  C   UNL     1      -3.360   0.966  25.920  0.00  0.00    +0.165 C 
ATOM     13  C   UNL     1      -6.029   0.210  24.629  0.00  0.00    +0.089 C 
ATOM     14  C   UNL     1      -4.416   1.912  25.512  0.00  0.00    +0.057 A 
ATOM     15  C   UNL     1      -5.614   1.601  24.917  0.00  0.00    +0.066 A 
ATOM     19  C   UNL     1      -5.595   3.713  25.089  0.00  0.00    +0.200 A 
ENDROOT
BRANCH   7   2
ATOM      2  S   UNL     1      -2.870  -1.670  26.408  0.00  0.00    +0.062 S 
ATOM      3  O   UNL     1      -3.553  -2.943  26.318  0.00  0.00    -0.153 OA
ATOM      4  O   UNL     1      -2.228  -1.253  27.635  0.00  0.00    -0.153 OA
BRANCH   2  16
ATOM     16  C   UNL     1      -1.669  -1.609  25.117  0.00  0.00    +0.113 A 
ATOM     20  C   UNL     1      -0.788  -0.528  24.947  0.00  0.00    +0.010 A 
ATOM     21  C   UNL     1      -1.626  -2.703  24.252  0.00  0.00    +0.029 A 
ATOM     22  C   UNL     1       0.148  -0.557  23.886  0.00  0.00    +0.005 A 
ATOM     24  C   UNL     1      -0.815   0.581  25.808  0.00  0.00    +0.010 A 
ATOM     25  C   UNL     1       1.029   0.523  23.718  0.00  0.00    +0.037 A 
ATOM     26  C   UNL     1      -0.706  -2.731  23.209  0.00  0.00    +0.003 A 
ATOM     27  C   UNL     1       0.177  -1.667  23.026  0.00  0.00    +0.010 A 
ATOM     28  C   UNL     1       0.068   1.647  25.626  0.00  0.00    +0.002 A 
ATOM     29  C   UNL     1       0.988   1.618  24.582  0.00  0.00    +0.024 A 
BRANCH  25  10
ATOM     10  N   UNL     1       1.985   0.545  22.673  0.00  0.00    -0.336 N 
ATOM     35  C   UNL     1       3.223   1.277  22.833  0.00  0.00    +0.129 C 
ATOM     36  C   UNL     1       1.735  -0.171  21.441  0.00  0.00    +0.129 C 
ENDBRANCH  25  10
ENDBRANCH   2  16
ENDBRANCH   7   2
BRANCH  11  17
ATOM      6  O   UNL     1      -3.380   0.211  23.062  0.00  0.00    -0.249 OA
ATOM     17  C   UNL     1      -4.012  -0.755  23.467  0.00  0.00    +0.326 C 
BRANCH  17   5
ATOM      5  O   UNL     1      -4.089  -1.979  22.871  0.00  0.00    -0.467 OA
ATOM     32  C   UNL     1      -4.935  -2.930  23.524  0.00  0.00    +0.280 C 
ENDBRANCH  17   5
ENDBRANCH  11  17
BRANCH   8  18
ATOM     18  C   UNL     1      -3.361   4.098  26.163  0.00  0.00    +0.158 C 
BRANCH  18  23
ATOM      1 CL   UNL     1       1.059   5.248  22.242  0.00  0.00    -0.084 Cl
ATOM     23  C   UNL     1      -2.253   4.386  25.181  0.00  0.00    -0.028 A 
ATOM     30  C   UNL     1      -2.069   3.557  24.075  0.00  0.00    +0.007 A 
ATOM     31  C   UNL     1      -1.413   5.482  25.379  0.00  0.00    +0.007 A 
ATOM     33  C   UNL     1      -1.043   3.822  23.167  0.00  0.00    +0.020 A 
ATOM     34  C   UNL     1      -0.388   5.748  24.471  0.00  0.00    +0.020 A 
ATOM     37  C   UNL     1      -0.203   4.918  23.365  0.00  0.00    +0.041 A 
ENDBRANCH  18  23
ENDBRANCH   8  18
TORSDOF 7
ENDMDL
MODEL 2
REMARK VINA RESULT:      10.8      1.870      5.240
REMARK  Name = 45360615
REMARK  10 active torsions:
REMARK  status: ('A' for Active; 'I' for Inactive)
REMARK    1  A    between atoms: S_2  and  N_7
REMARK    2  A    between atoms: S_2  and  C_16
REMARK    3  A    between atoms: O_5  and  C_17
REMARK    4  A    between atoms: O_5  and  C_32
REMARK    5  A    between atoms: N_8  and  C_18
REMARK    6  A    between atoms: N_10  and  C_25
REMARK    7  A    between atoms: N_10  and  C_35
REMARK    8  A    between atoms: N_10  and  C_36
REMARK    9  A    between atoms: C_11  and  C_17
REMARK   10  A    between atoms: C_18  and  C_23
REMARK                            x       y       z     vdW  Elec       q    Type
REMARK                         _______ _______ _______ _____ _____    ______ ____
ROOT
ATOM      7  N   UNL     1      -2.365  -0.783  24.328  0.00  0.00    -0.157 NA
ATOM      8  N   UNL     1       0.652   1.367  24.846  0.00  0.00    -0.328 N 
ATOM      9  N   UNL     1       1.450   0.284  23.063  0.00  0.00    -0.240 NA
ATOM     11  C   UNL     1      -1.611  -1.888  23.632  0.00  0.00    +0.194 C 
ATOM     12  C   UNL     1      -1.548   0.131  25.209  0.00  0.00    +0.165 C 
ATOM     13  C   UNL     1      -0.469  -1.339  22.752  0.00  0.00    +0.089 C 
ATOM     14  C   UNL     1      -0.274   0.421  24.524  0.00  0.00    +0.057 A 
ATOM     15  C   UNL     1       0.240  -0.232  23.431  0.00  0.00    +0.066 A 
ATOM     19  C   UNL     1       1.672   1.246  23.937  0.00  0.00    +0.200 A 
ENDROOT
BRANCH   7   2
ATOM      2  S   UNL     1      -3.924  -1.173  24.922  0.00  0.00    +0.062 S 
ATOM      3  O   UNL     1      -3.792  -1.758  26.240  0.00  0.00    -0.153 OA
ATOM      4  O   UNL     1      -4.669  -1.844  23.880  0.00  0.00    -0.153 OA
BRANCH   2  16
ATOM     16  C   UNL     1      -4.595   0.447  25.114  0.00  0.00    +0.113 A 
ATOM     20  C   UNL     1      -4.217   1.529  24.302  0.00  0.00    +0.010 A 
ATOM     21  C   UNL     1      -5.539   0.614  26.128  0.00  0.00    +0.029 A 
ATOM     22  C   UNL     1      -4.805   2.798  24.521  0.00  0.00    +0.005 A 
ATOM     24  C   UNL     1      -3.270   1.378  23.276  0.00  0.00    +0.010 A 
ATOM     25  C   UNL     1      -4.427   3.878  23.708  0.00  0.00    +0.037 A 
ATOM     26  C   UNL     1      -6.116   1.862  26.344  0.00  0.00    +0.003 A 
ATOM     27  C   UNL     1      -5.753   2.948  25.545  0.00  0.00    +0.010 A 
ATOM     28  C   UNL     1      -2.906   2.464  22.477  0.00  0.00    +0.002 A 
ATOM     29  C   UNL     1      -3.484   3.712  22.694  0.00  0.00    +0.024 A 
BRANCH  25  10
ATOM     10  N   UNL     1      -4.984   5.169  23.884  0.00  0.00    -0.336 N 
ATOM     35  C   UNL     1      -4.731   6.210  22.911  0.00  0.00    +0.129 C 
ATOM     36  C   UNL     1      -5.816   5.453  25.033  0.00  0.00    +0.129 C 
ENDBRANCH  25  10
ENDBRANCH   2  16
ENDBRANCH   7   2
BRANCH  11  17
ATOM      6  O   UNL     1      -0.124  -2.669  25.353  0.00  0.00    -0.249 OA
ATOM     17  C   UNL     1      -1.114  -2.854  24.659  0.00  0.00    +0.326 C 
BRANCH  17   5
ATOM      5  O   UNL     1      -1.931  -3.947  24.691  0.00  0.00    -0.467 OA
ATOM     32  C   UNL     1      -2.693  -4.181  23.503  0.00  0.00    +0.280 C 
ENDBRANCH  17   5
ENDBRANCH  11  17
BRANCH   8  18
ATOM     18  C   UNL     1       0.591   2.314  25.934  0.00  0.00    +0.158 C 
BRANCH  18  23
ATOM      1 CL   UNL     1      -2.666   7.210  24.649  0.00  0.00    -0.084 Cl
ATOM     23  C   UNL     1      -0.225   3.541  25.612  0.00  0.00    -0.028 A 
ATOM     30  C   UNL     1       0.251   4.473  24.691  0.00  0.00    +0.007 A 
ATOM     31  C   UNL     1      -1.456   3.744  26.236  0.00  0.00    +0.007 A 
ATOM     33  C   UNL     1      -0.503   5.609  24.393  0.00  0.00    +0.020 A 
ATOM     34  C   UNL     1      -2.210   4.878  25.940  0.00  0.00    +0.020 A 
ATOM     37  C   UNL     1      -1.734   5.811  25.018  0.00  0.00    +0.041 A 
ENDBRANCH  18  23
ENDBRANCH   8  18
TORSDOF 7
ENDMDL
MODEL 3
REMARK VINA RESULT:      11.4      2.647      4.937
REMARK  Name = 45360615
REMARK  10 active torsions:
REMARK  status: ('A' for Active; 'I' for Inactive)
REMARK    1  A    between atoms: S_2  and  N_7
REMARK    2  A    between atoms: S_2  and  C_16
REMARK    3  A    between atoms: O_5  and  C_17
REMARK    4  A    between atoms: O_5  and  C_32
REMARK    5  A    between atoms: N_8  and  C_18
REMARK    6  A    between atoms: N_10  and  C_25
REMARK    7  A    between atoms: N_10  and  C_35
REMARK    8  A    between atoms: N_10  and  C_36
REMARK    9  A    between atoms: C_11  and  C_17
REMARK   10  A    between atoms: C_18  and  C_23
REMARK                            x       y       z     vdW  Elec       q    Type
REMARK                         _______ _______ _______ _____ _____    ______ ____
ROOT
ATOM      7  N   UNL     1      -4.122   2.273  25.512  0.00  0.00    -0.157 NA
ATOM      8  N   UNL     1      -0.930   3.281  23.841  0.00  0.00    -0.328 N 
ATOM      9  N   UNL     1      -0.801   4.776  25.497  0.00  0.00    -0.240 NA
ATOM     11  C   UNL     1      -4.357   3.618  26.152  0.00  0.00    +0.194 C 
ATOM     12  C   UNL     1      -3.219   2.257  24.302  0.00  0.00    +0.165 C 
ATOM     13  C   UNL     1      -3.035   4.287  26.584  0.00  0.00    +0.089 C 
ATOM     14  C   UNL     1      -2.084   3.164  24.556  0.00  0.00    +0.057 A 
ATOM     15  C   UNL     1      -1.983   4.093  25.562  0.00  0.00    +0.066 A 
ATOM     19  C   UNL     1      -0.189   4.264  24.446  0.00  0.00    +0.200 A 
ENDROOT
BRANCH   7   2
ATOM      2  S   UNL     1      -5.466   1.214  25.437  0.00  0.00    +0.062 S 
ATOM      3  O   UNL     1      -6.353   1.653  24.380  0.00  0.00    -0.153 OA
ATOM      4  O   UNL     1      -5.960   0.986  26.778  0.00  0.00    -0.153 OA
BRANCH   2  16
ATOM     16  C   UNL     1      -4.666  -0.262  24.893  0.00  0.00    +0.113 A 
ATOM     20  C   UNL     1      -3.333  -0.566  25.212  0.00  0.00    +0.010 A 
ATOM     21  C   UNL     1      -5.430  -1.135  24.117  0.00  0.00    +0.029 A 
ATOM     22  C   UNL     1      -2.765  -1.773  24.736  0.00  0.00    +0.005 A 
ATOM     24  C   UNL     1      -2.550   0.300  25.992  0.00  0.00    +0.010 A 
ATOM     25  C   UNL     1      -1.432  -2.077  25.056  0.00  0.00    +0.037 A 
ATOM     26  C   UNL     1      -4.871  -2.321  23.650  0.00  0.00    +0.003 A 
ATOM     27  C   UNL     1      -3.548  -2.640  23.957  0.00  0.00    +0.010 A 
ATOM     28  C   UNL     1      -1.226  -0.018  26.300  0.00  0.00    +0.002 A 
ATOM     29  C   UNL     1      -0.668  -1.204  25.832  0.00  0.00    +0.024 A 
BRANCH  25  10
ATOM     10  N   UNL     1      -0.816  -3.270  24.607  0.00  0.00    -0.336 N 
ATOM     35  C   UNL     1      -1.249  -3.896  23.376  0.00  0.00    +0.129 C 
ATOM     36  C   UNL     1       0.258  -3.868  25.371  0.00  0.00    +0.129 C 
ENDBRANCH  25  10
ENDBRANCH   2  16
ENDBRANCH   7   2
BRANCH  11  17
ATOM      6  O   UNL     1      -6.136   5.105  25.518  0.00  0.00    -0.249 OA
ATOM     17  C   UNL     1      -5.136   4.473  25.206  0.00  0.00    +0.326 C 
BRANCH  17   5
ATOM      5  O   UNL     1      -4.559   4.431  23.971  0.00  0.00    -0.467 OA
ATOM     32  C   UNL     1      -4.174   5.697  23.427  0.00  0.00    +0.280 C 
ENDBRANCH  17   5
ENDBRANCH  11  17
BRANCH   8  18
ATOM     18  C   UNL     1      -0.550   2.531  22.668  0.00  0.00    +0.158 C 
BRANCH  18  23
ATOM      1 CL   UNL     1       3.917  -1.373  23.683  0.00  0.00    -0.084 Cl
ATOM     23  C   UNL     1       0.569   1.552  22.922  0.00  0.00    -0.028 A 
ATOM     30  C   UNL     1       1.867   2.017  23.131  0.00  0.00    +0.007 A 
ATOM     31  C   UNL     1       0.306   0.183  22.947  0.00  0.00    +0.007 A 
ATOM     33  C   UNL     1       2.903   1.112  23.365  0.00  0.00    +0.020 A 
ATOM     34  C   UNL     1       1.341  -0.722  23.181  0.00  0.00    +0.020 A 
ATOM     37  C   UNL     1       2.639  -0.258  23.390  0.00  0.00    +0.041 A 
ENDBRANCH  18  23
ENDBRANCH   8  18
TORSDOF 7
ENDMDL
MODEL 4
REMARK VINA RESULT:      11.5      2.873      6.433
REMARK  Name = 45360615
REMARK  10 active torsions:
REMARK  status: ('A' for Active; 'I' for Inactive)
REMARK    1  A    between atoms: S_2  and  N_7
REMARK    2  A    between atoms: S_2  and  C_16
REMARK    3  A    between atoms: O_5  and  C_17
REMARK    4  A    between atoms: O_5  and  C_32
REMARK    5  A    between atoms: N_8  and  C_18
REMARK    6  A    between atoms: N_10  and  C_25
REMARK    7  A    between atoms: N_10  and  C_35
REMARK    8  A    between atoms: N_10  and  C_36
REMARK    9  A    between atoms: C_11  and  C_17
REMARK   10  A    between atoms: C_18  and  C_23
REMARK                            x       y       z     vdW  Elec       q    Type
REMARK                         _______ _______ _______ _____ _____    ______ ____
ROOT
ATOM      7  N   UNL     1      -0.221   0.225  24.760  0.00  0.00    -0.157 NA
ATOM      8  N   UNL     1      -2.947  -2.213  23.971  0.00  0.00    -0.328 N 
ATOM      9  N   UNL     1      -1.452  -3.745  24.611  0.00  0.00    -0.240 NA
ATOM     11  C   UNL     1       0.896  -0.762  24.536  0.00  0.00    +0.194 C 
ATOM     12  C   UNL     1      -1.537  -0.092  24.091  0.00  0.00    +0.165 C 
ATOM     13  C   UNL     1       0.507  -2.185  24.991  0.00  0.00    +0.089 C 
ATOM     14  C   UNL     1      -1.790  -1.539  24.224  0.00  0.00    +0.057 A 
ATOM     15  C   UNL     1      -0.888  -2.500  24.610  0.00  0.00    +0.066 A 
ATOM     19  C   UNL     1      -2.694  -3.538  24.219  0.00  0.00    +0.200 A 
ENDROOT
BRANCH   7   2
ATOM      2  S   UNL     1       0.211   1.883  24.777  0.00  0.00    +0.062 S 
ATOM      3  O   UNL     1       1.240   2.111  23.784  0.00  0.00    -0.153 OA
ATOM      4  O   UNL     1       0.391   2.307  26.148  0.00  0.00    -0.153 OA
BRANCH   2  16
ATOM     16  C   UNL     1      -1.286   2.598  24.178  0.00  0.00    +0.113 A 
ATOM     20  C   UNL     1      -2.136   3.373  24.985  0.00  0.00    +0.010 A 
ATOM     21  C   UNL     1      -1.600   2.359  22.840  0.00  0.00    +0.029 A 
ATOM     22  C   UNL     1      -3.319   3.912  24.427  0.00  0.00    +0.005 A 
ATOM     24  C   UNL     1      -1.836   3.624  26.334  0.00  0.00    +0.010 A 
ATOM     25  C   UNL     1      -4.168   4.687  25.234  0.00  0.00    +0.037 A 
ATOM     26  C   UNL     1      -2.764   2.889  22.291  0.00  0.00    +0.003 A 
ATOM     27  C   UNL     1      -3.619   3.661  23.078  0.00  0.00    +0.010 A 
ATOM     28  C   UNL     1      -2.691   4.397  27.122  0.00  0.00    +0.002 A 
ATOM     29  C   UNL     1      -3.855   4.926  26.573  0.00  0.00    +0.024 A 
BRANCH  25  10
ATOM     10  N   UNL     1      -5.364   5.250  24.727  0.00  0.00    -0.336 N 
ATOM     35  C   UNL     1      -6.614   5.062  25.431  0.00  0.00    +0.129 C 
ATOM     36  C   UNL     1      -5.344   6.024  23.504  0.00  0.00    +0.129 C 
ENDBRANCH  25  10
ENDBRANCH   2  16
ENDBRANCH   7   2
BRANCH  11  17
ATOM      6  O   UNL     1       0.503  -0.617  22.168  0.00  0.00    -0.249 OA
ATOM     17  C   UNL     1       1.294  -0.722  23.095  0.00  0.00    +0.326 C 
BRANCH  17   5
ATOM      5  O   UNL     1       2.651  -0.821  22.994  0.00  0.00    -0.467 OA
ATOM     32  C   UNL     1       3.300   0.271  22.337  0.00  0.00    +0.280 C 
ENDBRANCH  17   5
ENDBRANCH  11  17
BRANCH   8  18
ATOM     18  C   UNL     1      -4.200  -1.657  23.521  0.00  0.00    +0.158 C 
BRANCH  18  23
ATOM      1 CL   UNL     1      -6.249   2.773  27.043  0.00  0.00    -0.084 Cl
ATOM     23  C   UNL     1      -4.713  -0.546  24.404  0.00  0.00    -0.028 A 
ATOM     30  C   UNL     1      -5.638   0.370  23.904  0.00  0.00    +0.007 A 
ATOM     31  C   UNL     1      -4.262  -0.436  25.719  0.00  0.00    +0.007 A 
ATOM     33  C   UNL     1      -6.113   1.397  24.720  0.00  0.00    +0.020 A 
ATOM     34  C   UNL     1      -4.735   0.590  26.535  0.00  0.00    +0.020 A 
ATOM     37  C   UNL     1      -5.661   1.507  26.036  0.00  0.00    +0.041 A 
ENDBRANCH  18  23
ENDBRANCH   8  18
TORSDOF 7
ENDMDL
MODEL 5
REMARK VINA RESULT:      11.9      3.160      5.591
REMARK  Name = 45360615
REMARK  10 active torsions:
REMARK  status: ('A' for Active; 'I' for Inactive)
REMARK    1  A    between atoms: S_2  and  N_7
REMARK    2  A    between atoms: S_2  and  C_16
REMARK    3  A    between atoms: O_5  and  C_17
REMARK    4  A    between atoms: O_5  and  C_32
REMARK    5  A    between atoms: N_8  and  C_18
REMARK    6  A    between atoms: N_10  and  C_25
REMARK    7  A    between atoms: N_10  and  C_35
REMARK    8  A    between atoms: N_10  and  C_36
REMARK    9  A    between atoms: C_11  and  C_17
REMARK   10  A    between atoms: C_18  and  C_23
REMARK                            x       y       z     vdW  Elec       q    Type
REMARK                         _______ _______ _______ _____ _____    ______ ____
ROOT
ATOM      7  N   UNL     1      -0.601   1.256  23.861  0.00  0.00    -0.157 NA
ATOM      8  N   UNL     1      -3.968   2.701  24.613  0.00  0.00    -0.328 N 
ATOM      9  N   UNL     1      -2.848   4.625  24.806  0.00  0.00    -0.240 NA
ATOM     11  C   UNL     1       0.161   2.317  24.615  0.00  0.00    +0.194 C 
ATOM     12  C   UNL     1      -2.046   1.065  24.253  0.00  0.00    +0.165 C 
ATOM     13  C   UNL     1      -0.511   3.702  24.494  0.00  0.00    +0.089 C 
ATOM     14  C   UNL     1      -2.649   2.394  24.470  0.00  0.00    +0.057 A 
ATOM     15  C   UNL     1      -1.982   3.589  24.597  0.00  0.00    +0.066 A 
ATOM     19  C   UNL     1      -4.038   4.057  24.813  0.00  0.00    +0.200 A 
ENDROOT
BRANCH   7   2
ATOM      2  S   UNL     1       0.253  -0.182  23.488  0.00  0.00    +0.062 S 
ATOM      3  O   UNL     1      -0.188  -0.671  22.199  0.00  0.00    -0.153 OA
ATOM      4  O   UNL     1       0.254  -1.042  24.652  0.00  0.00    -0.153 OA
BRANCH   2  16
ATOM     16  C   UNL     1       1.881   0.469  23.292  0.00  0.00    +0.113 A 
ATOM     20  C   UNL     1       3.039  -0.296  23.514  0.00  0.00    +0.010 A 
ATOM     21  C   UNL     1       1.975   1.805  22.898  0.00  0.00    +0.029 A 
ATOM     22  C   UNL     1       4.309   0.303  23.333  0.00  0.00    +0.005 A 
ATOM     24  C   UNL     1       2.963  -1.641  23.910  0.00  0.00    +0.010 A 
ATOM     25  C   UNL     1       5.465  -0.462  23.554  0.00  0.00    +0.037 A 
ATOM     26  C   UNL     1       3.224   2.392  22.722  0.00  0.00    +0.003 A 
ATOM     27  C   UNL     1       4.385   1.647  22.936  0.00  0.00    +0.010 A 
ATOM     28  C   UNL     1       4.123  -2.387  24.125  0.00  0.00    +0.002 A 
ATOM     29  C   UNL     1       5.372  -1.798  23.948  0.00  0.00    +0.024 A 
BRANCH  25  10
ATOM     10  N   UNL     1       6.760   0.086  23.388  0.00  0.00    -0.336 N 
ATOM     35  C   UNL     1       7.092   1.363  23.982  0.00  0.00    +0.129 C 
ATOM     36  C   UNL     1       7.763  -0.630  22.629  0.00  0.00    +0.129 C 
ENDBRANCH  25  10
ENDBRANCH   2  16
ENDBRANCH   7   2
BRANCH  11  17
ATOM      6  O   UNL     1      -0.271   0.926  26.528  0.00  0.00    -0.249 OA
ATOM     17  C   UNL     1       0.307   1.887  26.039  0.00  0.00    +0.326 C 
BRANCH  17   5
ATOM      5  O   UNL     1       1.171   2.724  26.682  0.00  0.00    -0.467 OA
ATOM     32  C   UNL     1       1.187   2.615  28.108  0.00  0.00    +0.280 C 
ENDBRANCH  17   5
ENDBRANCH  11  17
BRANCH   8  18
ATOM     18  C   UNL     1      -5.086   1.790  24.573  0.00  0.00    +0.158 C 
BRANCH  18  23
ATOM      1 CL   UNL     1      -3.462  -3.990  25.004  0.00  0.00    -0.084 Cl
ATOM     23  C   UNL     1      -4.679   0.341  24.682  0.00  0.00    -0.028 A 
ATOM     30  C   UNL     1      -4.784  -0.497  23.572  0.00  0.00    +0.007 A 
ATOM     31  C   UNL     1      -4.199  -0.160  25.891  0.00  0.00    +0.007 A 
ATOM     33  C   UNL     1      -4.408  -1.837  23.671  0.00  0.00    +0.020 A 
ATOM     34  C   UNL     1      -3.824  -1.499  25.992  0.00  0.00    +0.020 A 
ATOM     37  C   UNL     1      -3.928  -2.338  24.882  0.00  0.00    +0.041 A 
ENDBRANCH  18  23
ENDBRANCH   8  18
TORSDOF 7
ENDMDL
MODEL 6
REMARK VINA RESULT:      12.0      2.047      5.962
REMARK  Name = 45360615
REMARK  10 active torsions:
REMARK  status: ('A' for Active; 'I' for Inactive)
REMARK    1  A    between atoms: S_2  and  N_7
REMARK    2  A    between atoms: S_2  and  C_16
REMARK    3  A    between atoms: O_5  and  C_17
REMARK    4  A    between atoms: O_5  and  C_32
REMARK    5  A    between atoms: N_8  and  C_18
REMARK    6  A    between atoms: N_10  and  C_25
REMARK    7  A    between atoms: N_10  and  C_35
REMARK    8  A    between atoms: N_10  and  C_36
REMARK    9  A    between atoms: C_11  and  C_17
REMARK   10  A    between atoms: C_18  and  C_23
REMARK                            x       y       z     vdW  Elec       q    Type
REMARK                         _______ _______ _______ _____ _____    ______ ____
ROOT
ATOM      7  N   UNL     1      -1.502  -0.767  23.629  0.00  0.00    -0.157 NA
ATOM      8  N   UNL     1       1.483   1.462  23.299  0.00  0.00    -0.328 N 
ATOM      9  N   UNL     1       2.577  -0.442  22.885  0.00  0.00    -0.240 NA
ATOM     11  C   UNL     1      -0.704  -1.988  24.011  0.00  0.00    +0.194 C 
ATOM     12  C   UNL     1      -0.836   0.567  23.863  0.00  0.00    +0.165 C 
ATOM     13  C   UNL     1       0.652  -2.041  23.274  0.00  0.00    +0.089 C 
ATOM     14  C   UNL     1       0.581   0.456  23.467  0.00  0.00    +0.057 A 
ATOM     15  C   UNL     1       1.276  -0.701  23.213  0.00  0.00    +0.066 A 
ATOM     19  C   UNL     1       2.671   0.872  22.949  0.00  0.00    +0.200 A 
ENDROOT
BRANCH   7   2
ATOM      2  S   UNL     1      -3.182  -0.816  23.960  0.00  0.00    +0.062 S 
ATOM      3  O   UNL     1      -3.379  -1.170  25.350  0.00  0.00    -0.153 OA
ATOM      4  O   UNL     1      -3.848  -1.546  22.903  0.00  0.00    -0.153 OA
BRANCH   2  16
ATOM     16  C   UNL     1      -3.582   0.893  23.776  0.00  0.00    +0.113 A 
ATOM     20  C   UNL     1      -4.449   1.571  24.648  0.00  0.00    +0.010 A 
ATOM     21  C   UNL     1      -2.987   1.560  22.703  0.00  0.00    +0.029 A 
ATOM     22  C   UNL     1      -4.717   2.943  24.431  0.00  0.00    +0.005 A 
ATOM     24  C   UNL     1      -5.056   0.916  25.732  0.00  0.00    +0.010 A 
ATOM     25  C   UNL     1      -5.583   3.620  25.304  0.00  0.00    +0.037 A 
ATOM     26  C   UNL     1      -3.251   2.909  22.490  0.00  0.00    +0.003 A 
ATOM     27  C   UNL     1      -4.110   3.598  23.347  0.00  0.00    +0.010 A 
ATOM     28  C   UNL     1      -5.915   1.604  26.591  0.00  0.00    +0.002 A 
ATOM     29  C   UNL     1      -6.178   2.954  26.376  0.00  0.00    +0.024 A 
BRANCH  25  10
ATOM     10  N   UNL     1      -5.885   4.993  25.133  0.00  0.00    -0.336 N 
ATOM     35  C   UNL     1      -5.167   5.780  24.154  0.00  0.00    +0.129 C 
ATOM     36  C   UNL     1      -6.920   5.617  25.929  0.00  0.00    +0.129 C 
ENDBRANCH  25  10
ENDBRANCH   2  16
ENDBRANCH   7   2
BRANCH  11  17
ATOM      6  O   UNL     1       0.125  -2.845  26.099  0.00  0.00    -0.249 OA
ATOM     17  C   UNL     1      -0.537  -2.011  25.496  0.00  0.00    +0.326 C 
BRANCH  17   5
ATOM      5  O   UNL     1      -1.230  -0.974  26.049  0.00  0.00    -0.467 OA
ATOM     32  C   UNL     1      -0.914  -0.682  27.414  0.00  0.00    +0.280 C 
ENDBRANCH  17   5
ENDBRANCH  11  17
BRANCH   8  18
ATOM     18  C   UNL     1       1.254   2.878  23.463  0.00  0.00    +0.158 C 
BRANCH  18  23
ATOM      1 CL   UNL     1      -3.087   4.145  27.435  0.00  0.00    -0.084 Cl
ATOM     23  C   UNL     1       0.166   3.195  24.459  0.00  0.00    -0.028 A 
ATOM     30  C   UNL     1      -0.628   4.328  24.286  0.00  0.00    +0.007 A 
ATOM     31  C   UNL     1      -0.044   2.356  25.553  0.00  0.00    +0.007 A 
ATOM     33  C   UNL     1      -1.634   4.623  25.207  0.00  0.00    +0.020 A 
ATOM     34  C   UNL     1      -1.049   2.650  26.474  0.00  0.00    +0.020 A 
ATOM     37  C   UNL     1      -1.844   3.783  26.301  0.00  0.00    +0.041 A 
ENDBRANCH  18  23
ENDBRANCH   8  18
TORSDOF 7
ENDMDL
MODEL 7
REMARK VINA RESULT:      12.0      2.631      5.805
REMARK  Name = 45360615
REMARK  10 active torsions:
REMARK  status: ('A' for Active; 'I' for Inactive)
REMARK    1  A    between atoms: S_2  and  N_7
REMARK    2  A    between atoms: S_2  and  C_16
REMARK    3  A    between atoms: O_5  and  C_17
REMARK    4  A    between atoms: O_5  and  C_32
REMARK    5  A    between atoms: N_8  and  C_18
REMARK    6  A    between atoms: N_10  and  C_25
REMARK    7  A    between atoms: N_10  and  C_35
REMARK    8  A    between atoms: N_10  and  C_36
REMARK    9  A    between atoms: C_11  and  C_17
REMARK   10  A    between atoms: C_18  and  C_23
REMARK                            x       y       z     vdW  Elec       q    Type
REMARK                         _______ _______ _______ _____ _____    ______ ____
ROOT
ATOM      7  N   UNL     1      -2.239  -0.550  24.314  0.00  0.00    -0.157 NA
ATOM      8  N   UNL     1       0.528   1.941  24.685  0.00  0.00    -0.328 N 
ATOM      9  N   UNL     1       1.569   0.671  23.169  0.00  0.00    -0.240 NA
ATOM     11  C   UNL     1      -1.336  -1.672  23.869  0.00  0.00    +0.194 C 
ATOM     12  C   UNL     1      -1.583   0.569  25.087  0.00  0.00    +0.165 C 
ATOM     13  C   UNL     1      -0.171  -1.161  22.994  0.00  0.00    +0.089 C 
ATOM     14  C   UNL     1      -0.283   0.870  24.458  0.00  0.00    +0.057 A 
ATOM     15  C   UNL     1       0.379   0.104  23.530  0.00  0.00    +0.066 A 
ATOM     19  C   UNL     1       1.631   1.777  23.885  0.00  0.00    +0.200 A 
ENDROOT
BRANCH   7   2
ATOM      2  S   UNL     1      -3.804  -0.991  24.850  0.00  0.00    +0.062 S 
ATOM      3  O   UNL     1      -3.696  -1.632  26.143  0.00  0.00    -0.153 OA
ATOM      4  O   UNL     1      -4.512  -1.627  23.760  0.00  0.00    -0.153 OA
BRANCH   2  16
ATOM     16  C   UNL     1      -4.508   0.608  25.096  0.00  0.00    +0.113 A 
ATOM     20  C   UNL     1      -4.161   1.721  24.313  0.00  0.00    +0.010 A 
ATOM     21  C   UNL     1      -5.447   0.725  26.122  0.00  0.00    +0.029 A 
ATOM     22  C   UNL     1      -4.773   2.970  24.575  0.00  0.00    +0.005 A 
ATOM     24  C   UNL     1      -3.220   1.622  23.276  0.00  0.00    +0.010 A 
ATOM     25  C   UNL     1      -4.426   4.082  23.791  0.00  0.00    +0.037 A 
ATOM     26  C   UNL     1      -6.048   1.953  26.379  0.00  0.00    +0.003 A 
ATOM     27  C   UNL     1      -5.715   3.069  25.611  0.00  0.00    +0.010 A 
ATOM     28  C   UNL     1      -2.886   2.738  22.507  0.00  0.00    +0.002 A 
ATOM     29  C   UNL     1      -3.488   3.966  22.765  0.00  0.00    +0.024 A 
BRANCH  25  10
ATOM     10  N   UNL     1      -5.009   5.355  24.010  0.00  0.00    -0.336 N 
ATOM     35  C   UNL     1      -4.634   6.480  23.181  0.00  0.00    +0.129 C 
ATOM     36  C   UNL     1      -5.988   5.537  25.060  0.00  0.00    +0.129 C 
ENDBRANCH  25  10
ENDBRANCH   2  16
ENDBRANCH   7   2
BRANCH  11  17
ATOM      6  O   UNL     1       0.091  -2.047  25.768  0.00  0.00    -0.249 OA
ATOM     17  C   UNL     1      -0.851  -2.409  25.076  0.00  0.00    +0.326 C 
BRANCH  17   5
ATOM      5  O   UNL     1      -1.615  -3.522  25.269  0.00  0.00    -0.467 OA
ATOM     32  C   UNL     1      -2.391  -3.939  24.141  0.00  0.00    +0.280 C 
ENDBRANCH  17   5
ENDBRANCH  11  17
BRANCH   8  18
ATOM     18  C   UNL     1       0.292   3.038  25.592  0.00  0.00    +0.158 C 
BRANCH  18  23
ATOM      1 CL   UNL     1       2.145   1.924  31.209  0.00  0.00    -0.084 Cl
ATOM     23  C   UNL     1       0.757   2.760  27.000  0.00  0.00    -0.028 A 
ATOM     30  C   UNL     1      -0.113   2.170  27.916  0.00  0.00    +0.007 A 
ATOM     31  C   UNL     1       2.055   3.092  27.384  0.00  0.00    +0.007 A 
ATOM     33  C   UNL     1       0.315   1.912  29.219  0.00  0.00    +0.020 A 
ATOM     34  C   UNL     1       2.485   2.835  28.686  0.00  0.00    +0.020 A 
ATOM     37  C   UNL     1       1.615   2.245  29.603  0.00  0.00    +0.041 A 
ENDBRANCH  18  23
ENDBRANCH   8  18
TORSDOF 7
ENDMDL
MODEL 8
REMARK VINA RESULT:      12.4      0.822      2.088
REMARK  Name = 45360615
REMARK  10 active torsions:
REMARK  status: ('A' for Active; 'I' for Inactive)
REMARK    1  A    between atoms: S_2  and  N_7
REMARK    2  A    between atoms: S_2  and  C_16
REMARK    3  A    between atoms: O_5  and  C_17
REMARK    4  A    between atoms: O_5  and  C_32
REMARK    5  A    between atoms: N_8  and  C_18
REMARK    6  A    between atoms: N_10  and  C_25
REMARK    7  A    between atoms: N_10  and  C_35
REMARK    8  A    between atoms: N_10  and  C_36
REMARK    9  A    between atoms: C_11  and  C_17
REMARK   10  A    between atoms: C_18  and  C_23
REMARK                            x       y       z     vdW  Elec       q    Type
REMARK                         _______ _______ _______ _____ _____    ______ ____
ROOT
ATOM      7  N   UNL     1      -3.621  -0.061  25.753  0.00  0.00    -0.157 NA
ATOM      8  N   UNL     1      -4.850   3.472  25.720  0.00  0.00    -0.328 N 
ATOM      9  N   UNL     1      -6.755   2.563  24.987  0.00  0.00    -0.240 NA
ATOM     11  C   UNL     1      -4.581  -0.536  24.693  0.00  0.00    +0.194 C 
ATOM     12  C   UNL     1      -3.336   1.421  25.781  0.00  0.00    +0.165 C 
ATOM     13  C   UNL     1      -5.950   0.169  24.799  0.00  0.00    +0.089 C 
ATOM     14  C   UNL     1      -4.603   2.143  25.553  0.00  0.00    +0.057 A 
ATOM     15  C   UNL     1      -5.784   1.608  25.099  0.00  0.00    +0.066 A 
ATOM     19  C   UNL     1      -6.160   3.677  25.367  0.00  0.00    +0.200 A 
ENDROOT
BRANCH   7   2
ATOM      2  S   UNL     1      -2.276  -1.071  26.079  0.00  0.00    +0.062 S 
ATOM      3  O   UNL     1      -2.284  -2.180  25.148  0.00  0.00    -0.153 OA
ATOM      4  O   UNL     1      -2.192  -1.296  27.506  0.00  0.00    -0.153 OA
BRANCH   2  16
ATOM     16  C   UNL     1      -0.960   0.010  25.620  0.00  0.00    +0.113 A 
ATOM     20  C   UNL     1      -0.129  -0.229  24.513  0.00  0.00    +0.010 A 
ATOM     21  C   UNL     1      -0.774   1.139  26.419  0.00  0.00    +0.029 A 
ATOM     22  C   UNL     1       0.905   0.690  24.212  0.00  0.00    +0.005 A 
ATOM     24  C   UNL     1      -0.302  -1.359  23.698  0.00  0.00    +0.010 A 
ATOM     25  C   UNL     1       1.735   0.451  23.105  0.00  0.00    +0.037 A 
ATOM     26  C   UNL     1       0.243   2.042  26.123  0.00  0.00    +0.003 A 
ATOM     27  C   UNL     1       1.078   1.821  25.026  0.00  0.00    +0.010 A 
ATOM     28  C   UNL     1       0.533  -1.581  22.601  0.00  0.00    +0.002 A 
ATOM     29  C   UNL     1       1.550  -0.677  22.306  0.00  0.00    +0.024 A 
BRANCH  25  10
ATOM     10  N   UNL     1       2.784   1.338  22.759  0.00  0.00    -0.336 N 
ATOM     35  C   UNL     1       4.089   0.821  22.408  0.00  0.00    +0.129 C 
ATOM     36  C   UNL     1       2.556   2.767  22.746  0.00  0.00    +0.129 C 
ENDBRANCH  25  10
ENDBRANCH   2  16
ENDBRANCH   7   2
BRANCH  11  17
ATOM      6  O   UNL     1      -3.477   0.715  22.962  0.00  0.00    -0.249 OA
ATOM     17  C   UNL     1      -3.953  -0.343  23.350  0.00  0.00    +0.326 C 
BRANCH  17   5
ATOM      5  O   UNL     1      -3.999  -1.514  22.652  0.00  0.00    -0.467 OA
ATOM     32  C   UNL     1      -4.456  -2.652  23.389  0.00  0.00    +0.280 C 
ENDBRANCH  17   5
ENDBRANCH  11  17
BRANCH   8  18
ATOM     18  C   UNL     1      -3.924   4.482  26.171  0.00  0.00    +0.158 C 
BRANCH  18  23
ATOM      1 CL   UNL     1       0.889   5.069  22.604  0.00  0.00    -0.084 Cl
ATOM     23  C   UNL     1      -2.718   4.629  25.276  0.00  0.00    -0.028 A 
ATOM     30  C   UNL     1      -1.834   5.691  25.467  0.00  0.00    +0.007 A 
ATOM     31  C   UNL     1      -2.487   3.704  24.259  0.00  0.00    +0.007 A 
ATOM     33  C   UNL     1      -0.719   5.828  24.640  0.00  0.00    +0.020 A 
ATOM     34  C   UNL     1      -1.373   3.840  23.432  0.00  0.00    +0.020 A 
ATOM     37  C   UNL     1      -0.489   4.902  23.622  0.00  0.00    +0.041 A 
ENDBRANCH  18  23
ENDBRANCH   8  18
TORSDOF 7
ENDMDL
