MODEL 1
REMARK VINA RESULT:      -5.3      0.000      0.000
REMARK  Name = 75536526
REMARK  11 active torsions:
REMARK  status: ('A' for Active; 'I' for Inactive)
REMARK    1  A    between atoms: O_2  and  C_8
REMARK    2  A    between atoms: N_4  and  C_7
REMARK    3  A    between atoms: N_4  and  C_14
REMARK    4  A    between atoms: N_5  and  C_11
REMARK    5  A    between atoms: C_9  and  C_11
REMARK    6  A    between atoms: C_12  and  C_13
REMARK    7  A    between atoms: C_12  and  C_16
REMARK    8  A    between atoms: C_12  and  C_17
REMARK    9  A    between atoms: C_12  and  C_18
REMARK   10  A    between atoms: C_13  and  C_15
REMARK   11  A    between atoms: C_14  and  C_19
REMARK                            x       y       z     vdW  Elec       q    Type
REMARK                         _______ _______ _______ _____ _____    ______ ____
ROOT
ATOM      1  O   UNL     1      -3.094   4.357  23.733  0.00  0.00    -0.371 OA
ATOM      7  C   UNL     1      -4.552   3.210  25.216  0.00  0.00    +0.111 C 
ATOM      8  C   UNL     1      -3.278   3.572  25.957  0.00  0.00    +0.164 C 
ATOM      9  C   UNL     1      -2.741   4.699  25.084  0.00  0.00    +0.165 C 
ATOM     10  C   UNL     1      -4.105   3.334  23.768  0.00  0.00    +0.181 C 
ENDROOT
BRANCH   8   2
ATOM      2  O   UNL     1      -3.520   4.001  27.283  0.00  0.00    -0.388 OA
ATOM     26  H   UNL     1      -3.358   3.251  27.879  0.00  0.00    +0.210 HD
ENDBRANCH   8   2
BRANCH   7   4
ATOM      4  N   UNL     1      -5.060   1.886  25.540  0.00  0.00    -0.305 NA
ATOM     24  H   UNL     1      -6.025   1.970  25.861  0.00  0.00    +0.123 HD
BRANCH   4  14
ATOM     14  C   UNL     1      -5.026   1.011  24.374  0.00  0.00    +0.118 C 
BRANCH  14  19
ATOM      6  N   UNL     1      -3.267  -1.744  26.282  0.00  0.00    -0.263 NA
ATOM     19  C   UNL     1      -4.399  -0.320  24.690  0.00  0.00    -0.015 A 
ATOM     20  C   UNL     1      -4.356  -1.335  23.740  0.00  0.00    +0.008 A 
ATOM     21  C   UNL     1      -3.846  -0.574  25.935  0.00  0.00    +0.115 A 
ATOM     22  C   UNL     1      -3.770  -2.554  24.060  0.00  0.00    +0.020 A 
ATOM     23  C   UNL     1      -3.244  -2.707  25.334  0.00  0.00    +0.111 A 
ENDBRANCH  14  19
ENDBRANCH   4  14
ENDBRANCH   7   4
BRANCH   9  11
ATOM     11  C   UNL     1      -1.238   4.879  25.193  0.00  0.00    +0.138 C 
BRANCH  11   5
ATOM      3  O   UNL     1      -0.051   2.538  26.418  0.00  0.00    -0.276 OA
ATOM      5  N   UNL     1      -0.527   3.808  24.532  0.00  0.00    -0.313 N 
ATOM     15  C   UNL     1       0.008   2.723  25.205  0.00  0.00    +0.214 C 
ATOM     25  H   UNL     1      -0.432   3.863  23.523  0.00  0.00    +0.149 HD
BRANCH  15  13
ATOM     13  C   UNL     1       0.713   1.741  24.284  0.00  0.00    +0.102 C 
BRANCH  13  12
ATOM     12  C   UNL     1      -0.161   0.553  23.815  0.00  0.00    -0.029 C 
ATOM     16  C   UNL     1      -1.480   1.046  23.198  0.00  0.00    +0.011 C 
ATOM     17  C   UNL     1       0.623  -0.218  22.735  0.00  0.00    +0.011 C 
ATOM     18  C   UNL     1      -0.471  -0.410  24.972  0.00  0.00    +0.011 C 
ENDBRANCH  13  12
ENDBRANCH  15  13
ENDBRANCH  11   5
ENDBRANCH   9  11
TORSDOF 8
ENDMDL
MODEL 2
REMARK VINA RESULT:      -4.5      3.087      6.458
REMARK  Name = 75536526
REMARK  11 active torsions:
REMARK  status: ('A' for Active; 'I' for Inactive)
REMARK    1  A    between atoms: O_2  and  C_8
REMARK    2  A    between atoms: N_4  and  C_7
REMARK    3  A    between atoms: N_4  and  C_14
REMARK    4  A    between atoms: N_5  and  C_11
REMARK    5  A    between atoms: C_9  and  C_11
REMARK    6  A    between atoms: C_12  and  C_13
REMARK    7  A    between atoms: C_12  and  C_16
REMARK    8  A    between atoms: C_12  and  C_17
REMARK    9  A    between atoms: C_12  and  C_18
REMARK   10  A    between atoms: C_13  and  C_15
REMARK   11  A    between atoms: C_14  and  C_19
REMARK                            x       y       z     vdW  Elec       q    Type
REMARK                         _______ _______ _______ _____ _____    ______ ____
ROOT
ATOM      1  O   UNL     1      -1.741  -2.442  24.354  0.00  0.00    -0.371 OA
ATOM      7  C   UNL     1      -0.043  -0.781  24.353  0.00  0.00    +0.111 C 
ATOM      8  C   UNL     1      -1.168  -0.338  25.269  0.00  0.00    +0.164 C 
ATOM      9  C   UNL     1      -1.851  -1.667  25.560  0.00  0.00    +0.165 C 
ATOM     10  C   UNL     1      -0.737  -1.843  23.515  0.00  0.00    +0.181 C 
ENDROOT
BRANCH   8   2
ATOM      2  O   UNL     1      -0.698   0.284  26.450  0.00  0.00    -0.388 OA
ATOM     26  H   UNL     1       0.261   0.413  26.365  0.00  0.00    +0.210 HD
ENDBRANCH   8   2
BRANCH   7   4
ATOM      4  N   UNL     1       0.516   0.296  23.550  0.00  0.00    -0.305 NA
ATOM     24  H   UNL     1       1.049   0.920  24.157  0.00  0.00    +0.123 HD
BRANCH   4  14
ATOM     14  C   UNL     1       1.400  -0.224  22.515  0.00  0.00    +0.118 C 
BRANCH  14  19
ATOM      6  N   UNL     1       4.714  -1.371  23.939  0.00  0.00    -0.263 NA
ATOM     19  C   UNL     1       2.841  -0.207  22.948  0.00  0.00    -0.015 A 
ATOM     20  C   UNL     1       3.627   0.928  22.780  0.00  0.00    +0.008 A 
ATOM     21  C   UNL     1       3.428  -1.321  23.527  0.00  0.00    +0.115 A 
ATOM     22  C   UNL     1       4.955   0.915  23.190  0.00  0.00    +0.020 A 
ATOM     23  C   UNL     1       5.446  -0.249  23.760  0.00  0.00    +0.111 A 
ENDBRANCH  14  19
ENDBRANCH   4  14
ENDBRANCH   7   4
BRANCH   9  11
ATOM     11  C   UNL     1      -3.312  -1.520  25.944  0.00  0.00    +0.138 C 
BRANCH  11   5
ATOM      3  O   UNL     1      -4.251  -0.369  23.458  0.00  0.00    -0.276 OA
ATOM      5  N   UNL     1      -3.784  -0.172  25.725  0.00  0.00    -0.313 N 
ATOM     15  C   UNL     1      -4.217   0.290  24.494  0.00  0.00    +0.214 C 
ATOM     25  H   UNL     1      -3.803   0.452  26.525  0.00  0.00    +0.149 HD
BRANCH  15  13
ATOM     13  C   UNL     1      -4.654   1.746  24.526  0.00  0.00    +0.102 C 
BRANCH  13  12
ATOM     12  C   UNL     1      -3.535   2.764  24.203  0.00  0.00    -0.029 C 
ATOM     16  C   UNL     1      -2.632   2.254  23.067  0.00  0.00    +0.011 C 
ATOM     17  C   UNL     1      -4.201   4.076  23.743  0.00  0.00    +0.011 C 
ATOM     18  C   UNL     1      -2.672   3.064  25.440  0.00  0.00    +0.011 C 
ENDBRANCH  13  12
ENDBRANCH  15  13
ENDBRANCH  11   5
ENDBRANCH   9  11
TORSDOF 8
ENDMDL
MODEL 3
REMARK VINA RESULT:      -4.4      1.634      4.473
REMARK  Name = 75536526
REMARK  11 active torsions:
REMARK  status: ('A' for Active; 'I' for Inactive)
REMARK    1  A    between atoms: O_2  and  C_8
REMARK    2  A    between atoms: N_4  and  C_7
REMARK    3  A    between atoms: N_4  and  C_14
REMARK    4  A    between atoms: N_5  and  C_11
REMARK    5  A    between atoms: C_9  and  C_11
REMARK    6  A    between atoms: C_12  and  C_13
REMARK    7  A    between atoms: C_12  and  C_16
REMARK    8  A    between atoms: C_12  and  C_17
REMARK    9  A    between atoms: C_12  and  C_18
REMARK   10  A    between atoms: C_13  and  C_15
REMARK   11  A    between atoms: C_14  and  C_19
REMARK                            x       y       z     vdW  Elec       q    Type
REMARK                         _______ _______ _______ _____ _____    ______ ____
ROOT
ATOM      1  O   UNL     1      -4.598   3.764  26.415  0.00  0.00    -0.371 OA
ATOM      7  C   UNL     1      -2.694   4.255  25.081  0.00  0.00    +0.111 C 
ATOM      8  C   UNL     1      -3.453   3.100  24.454  0.00  0.00    +0.164 C 
ATOM      9  C   UNL     1      -4.829   3.277  25.082  0.00  0.00    +0.165 C 
ATOM     10  C   UNL     1      -3.243   4.242  26.499  0.00  0.00    +0.181 C 
ENDROOT
BRANCH   8   2
ATOM      2  O   UNL     1      -3.503   3.180  23.043  0.00  0.00    -0.388 OA
ATOM     26  H   UNL     1      -3.144   4.042  22.774  0.00  0.00    +0.210 HD
ENDBRANCH   8   2
BRANCH   7   4
ATOM      4  N   UNL     1      -1.249   4.099  25.033  0.00  0.00    -0.305 NA
ATOM     24  H   UNL     1      -0.811   4.973  25.325  0.00  0.00    +0.123 HD
BRANCH   4  14
ATOM     14  C   UNL     1      -0.806   3.030  25.920  0.00  0.00    +0.118 C 
BRANCH  14  19
ATOM      6  N   UNL     1       0.889   0.864  23.320  0.00  0.00    -0.263 NA
ATOM     19  C   UNL     1      -0.369   1.810  25.154  0.00  0.00    -0.015 A 
ATOM     20  C   UNL     1      -0.789   0.539  25.532  0.00  0.00    +0.008 A 
ATOM     21  C   UNL     1       0.462   1.917  24.051  0.00  0.00    +0.115 A 
ATOM     22  C   UNL     1      -0.370  -0.569  24.805  0.00  0.00    +0.020 A 
ATOM     23  C   UNL     1       0.461  -0.355  23.716  0.00  0.00    +0.111 A 
ENDBRANCH  14  19
ENDBRANCH   4  14
ENDBRANCH   7   4
BRANCH   9  11
ATOM     11  C   UNL     1      -5.634   1.992  25.138  0.00  0.00    +0.138 C 
BRANCH  11   5
ATOM      3  O   UNL     1      -4.074  -0.273  26.047  0.00  0.00    -0.276 OA
ATOM      5  N   UNL     1      -5.036   0.957  24.326  0.00  0.00    -0.313 N 
ATOM     15  C   UNL     1      -4.303  -0.093  24.854  0.00  0.00    +0.214 C 
ATOM     25  H   UNL     1      -5.176   1.010  23.322  0.00  0.00    +0.149 HD
BRANCH  15  13
ATOM     13  C   UNL     1      -3.774  -1.042  23.791  0.00  0.00    +0.102 C 
BRANCH  13  12
ATOM     12  C   UNL     1      -3.398  -2.450  24.311  0.00  0.00    -0.029 C 
ATOM     16  C   UNL     1      -3.344  -2.477  25.848  0.00  0.00    +0.011 C 
ATOM     17  C   UNL     1      -4.487  -3.437  23.845  0.00  0.00    +0.011 C 
ATOM     18  C   UNL     1      -2.046  -2.917  23.748  0.00  0.00    +0.011 C 
ENDBRANCH  13  12
ENDBRANCH  15  13
ENDBRANCH  11   5
ENDBRANCH   9  11
TORSDOF 8
ENDMDL
MODEL 4
REMARK VINA RESULT:      -3.9      2.803      6.056
REMARK  Name = 75536526
REMARK  11 active torsions:
REMARK  status: ('A' for Active; 'I' for Inactive)
REMARK    1  A    between atoms: O_2  and  C_8
REMARK    2  A    between atoms: N_4  and  C_7
REMARK    3  A    between atoms: N_4  and  C_14
REMARK    4  A    between atoms: N_5  and  C_11
REMARK    5  A    between atoms: C_9  and  C_11
REMARK    6  A    between atoms: C_12  and  C_13
REMARK    7  A    between atoms: C_12  and  C_16
REMARK    8  A    between atoms: C_12  and  C_17
REMARK    9  A    between atoms: C_12  and  C_18
REMARK   10  A    between atoms: C_13  and  C_15
REMARK   11  A    between atoms: C_14  and  C_19
REMARK                            x       y       z     vdW  Elec       q    Type
REMARK                         _______ _______ _______ _____ _____    ______ ____
ROOT
ATOM      1  O   UNL     1      -3.000  -2.066  24.294  0.00  0.00    -0.371 OA
ATOM      7  C   UNL     1      -0.835  -1.550  25.125  0.00  0.00    +0.111 C 
ATOM      8  C   UNL     1      -1.591  -0.258  24.876  0.00  0.00    +0.164 C 
ATOM      9  C   UNL     1      -3.030  -0.754  24.879  0.00  0.00    +0.165 C 
ATOM     10  C   UNL     1      -1.640  -2.535  24.291  0.00  0.00    +0.181 C 
ENDROOT
BRANCH   8   2
ATOM      2  O   UNL     1      -1.364   0.711  25.881  0.00  0.00    -0.388 OA
ATOM     26  H   UNL     1      -1.611   0.324  26.738  0.00  0.00    +0.210 HD
ENDBRANCH   8   2
BRANCH   7   4
ATOM      4  N   UNL     1       0.565  -1.492  24.736  0.00  0.00    -0.305 NA
ATOM     24  H   UNL     1       0.879  -2.430  24.484  0.00  0.00    +0.123 HD
BRANCH   4  14
ATOM     14  C   UNL     1       0.757  -0.608  23.594  0.00  0.00    +0.118 C 
BRANCH  14  19
ATOM      6  N   UNL     1       4.524  -0.972  23.504  0.00  0.00    -0.263 NA
ATOM     19  C   UNL     1       2.210  -0.283  23.373  0.00  0.00    -0.015 A 
ATOM     20  C   UNL     1       2.599   0.950  22.859  0.00  0.00    +0.008 A 
ATOM     21  C   UNL     1       3.203  -1.200  23.676  0.00  0.00    +0.115 A 
ATOM     22  C   UNL     1       3.948   1.222  22.667  0.00  0.00    +0.020 A 
ATOM     23  C   UNL     1       4.863   0.237  23.003  0.00  0.00    +0.111 A 
ENDBRANCH  14  19
ENDBRANCH   4  14
ENDBRANCH   7   4
BRANCH   9  11
ATOM     11  C   UNL     1      -3.975   0.137  24.094  0.00  0.00    +0.138 C 
BRANCH  11   5
ATOM      3  O   UNL     1      -2.903   2.277  22.462  0.00  0.00    -0.276 OA
ATOM      5  N   UNL     1      -3.820   1.526  24.461  0.00  0.00    -0.313 N 
ATOM     15  C   UNL     1      -3.295   2.483  23.608  0.00  0.00    +0.214 C 
ATOM     25  H   UNL     1      -4.124   1.802  25.389  0.00  0.00    +0.149 HD
BRANCH  15  13
ATOM     13  C   UNL     1      -3.229   3.866  24.234  0.00  0.00    +0.102 C 
BRANCH  13  12
ATOM     12  C   UNL     1      -1.929   4.159  25.019  0.00  0.00    -0.029 C 
ATOM     16  C   UNL     1      -1.593   5.660  24.993  0.00  0.00    +0.011 C 
ATOM     17  C   UNL     1      -2.150   3.736  26.484  0.00  0.00    +0.011 C 
ATOM     18  C   UNL     1      -0.740   3.364  24.457  0.00  0.00    +0.011 C 
ENDBRANCH  13  12
ENDBRANCH  15  13
ENDBRANCH  11   5
ENDBRANCH   9  11
TORSDOF 8
ENDMDL
MODEL 5
REMARK VINA RESULT:      -3.7      1.762      4.497
REMARK  Name = 75536526
REMARK  11 active torsions:
REMARK  status: ('A' for Active; 'I' for Inactive)
REMARK    1  A    between atoms: O_2  and  C_8
REMARK    2  A    between atoms: N_4  and  C_7
REMARK    3  A    between atoms: N_4  and  C_14
REMARK    4  A    between atoms: N_5  and  C_11
REMARK    5  A    between atoms: C_9  and  C_11
REMARK    6  A    between atoms: C_12  and  C_13
REMARK    7  A    between atoms: C_12  and  C_16
REMARK    8  A    between atoms: C_12  and  C_17
REMARK    9  A    between atoms: C_12  and  C_18
REMARK   10  A    between atoms: C_13  and  C_15
REMARK   11  A    between atoms: C_14  and  C_19
REMARK                            x       y       z     vdW  Elec       q    Type
REMARK                         _______ _______ _______ _____ _____    ______ ____
ROOT
ATOM      1  O   UNL     1       0.784   2.839  24.466  0.00  0.00    -0.371 OA
ATOM      7  C   UNL     1       0.197   0.967  23.126  0.00  0.00    +0.111 C 
ATOM      8  C   UNL     1      -1.069   1.608  23.662  0.00  0.00    +0.164 C 
ATOM      9  C   UNL     1      -0.569   3.004  24.008  0.00  0.00    +0.165 C 
ATOM     10  C   UNL     1       1.245   1.535  24.070  0.00  0.00    +0.181 C 
ENDROOT
BRANCH   8   2
ATOM      2  O   UNL     1      -2.111   1.643  22.706  0.00  0.00    -0.388 OA
ATOM     26  H   UNL     1      -2.564   0.784  22.718  0.00  0.00    +0.210 HD
ENDBRANCH   8   2
BRANCH   7   4
ATOM      4  N   UNL     1       0.162  -0.487  23.128  0.00  0.00    -0.305 NA
ATOM     24  H   UNL     1       1.004  -0.840  22.672  0.00  0.00    +0.123 HD
BRANCH   4  14
ATOM     14  C   UNL     1       0.108  -1.009  24.488  0.00  0.00    +0.118 C 
BRANCH  14  19
ATOM      6  N   UNL     1      -3.153  -1.377  26.374  0.00  0.00    -0.263 NA
ATOM     19  C   UNL     1      -1.275  -1.476  24.855  0.00  0.00    -0.015 A 
ATOM     20  C   UNL     1      -1.951  -2.403  24.068  0.00  0.00    +0.008 A 
ATOM     21  C   UNL     1      -1.915  -0.998  25.987  0.00  0.00    +0.115 A 
ATOM     22  C   UNL     1      -3.226  -2.816  24.433  0.00  0.00    +0.020 A 
ATOM     23  C   UNL     1      -3.779  -2.279  25.585  0.00  0.00    +0.111 A 
ENDBRANCH  14  19
ENDBRANCH   4  14
ENDBRANCH   7   4
BRANCH   9  11
ATOM     11  C   UNL     1      -1.394   3.690  25.080  0.00  0.00    +0.138 C 
BRANCH  11   5
ATOM      3  O   UNL     1      -3.570   4.126  26.942  0.00  0.00    -0.276 OA
ATOM      5  N   UNL     1      -2.810   3.566  24.819  0.00  0.00    -0.313 N 
ATOM     15  C   UNL     1      -3.782   3.796  25.778  0.00  0.00    +0.214 C 
ATOM     25  H   UNL     1      -3.091   3.305  23.879  0.00  0.00    +0.149 HD
BRANCH  15  13
ATOM     13  C   UNL     1      -5.195   3.590  25.254  0.00  0.00    +0.102 C 
BRANCH  13  12
ATOM     12  C   UNL     1      -5.710   2.134  25.341  0.00  0.00    -0.029 C 
ATOM     16  C   UNL     1      -4.593   1.131  25.008  0.00  0.00    +0.011 C 
ATOM     17  C   UNL     1      -6.177   1.879  26.787  0.00  0.00    +0.011 C 
ATOM     18  C   UNL     1      -6.899   1.899  24.396  0.00  0.00    +0.011 C 
ENDBRANCH  13  12
ENDBRANCH  15  13
ENDBRANCH  11   5
ENDBRANCH   9  11
TORSDOF 8
ENDMDL
MODEL 6
REMARK VINA RESULT:      -3.7      1.608      2.201
REMARK  Name = 75536526
REMARK  11 active torsions:
REMARK  status: ('A' for Active; 'I' for Inactive)
REMARK    1  A    between atoms: O_2  and  C_8
REMARK    2  A    between atoms: N_4  and  C_7
REMARK    3  A    between atoms: N_4  and  C_14
REMARK    4  A    between atoms: N_5  and  C_11
REMARK    5  A    between atoms: C_9  and  C_11
REMARK    6  A    between atoms: C_12  and  C_13
REMARK    7  A    between atoms: C_12  and  C_16
REMARK    8  A    between atoms: C_12  and  C_17
REMARK    9  A    between atoms: C_12  and  C_18
REMARK   10  A    between atoms: C_13  and  C_15
REMARK   11  A    between atoms: C_14  and  C_19
REMARK                            x       y       z     vdW  Elec       q    Type
REMARK                         _______ _______ _______ _____ _____    ______ ____
ROOT
ATOM      1  O   UNL     1      -3.943   3.880  23.945  0.00  0.00    -0.371 OA
ATOM      7  C   UNL     1      -5.444   2.136  24.536  0.00  0.00    +0.111 C 
ATOM      8  C   UNL     1      -4.890   2.763  25.802  0.00  0.00    +0.164 C 
ATOM      9  C   UNL     1      -4.420   4.114  25.281  0.00  0.00    +0.165 C 
ATOM     10  C   UNL     1      -4.430   2.601  23.502  0.00  0.00    +0.181 C 
ENDROOT
BRANCH   8   2
ATOM      2  O   UNL     1      -5.866   2.899  26.817  0.00  0.00    -0.388 OA
ATOM     26  H   UNL     1      -6.057   2.016  27.176  0.00  0.00    +0.210 HD
ENDBRANCH   8   2
BRANCH   7   4
ATOM      4  N   UNL     1      -5.560   0.688  24.603  0.00  0.00    -0.305 NA
ATOM     24  H   UNL     1      -5.361   0.296  23.681  0.00  0.00    +0.123 HD
BRANCH   4  14
ATOM     14  C   UNL     1      -4.618   0.130  25.565  0.00  0.00    +0.118 C 
BRANCH  14  19
ATOM      6  N   UNL     1      -3.783  -2.922  23.488  0.00  0.00    -0.263 NA
ATOM     19  C   UNL     1      -3.849  -1.030  24.991  0.00  0.00    -0.015 A 
ATOM     20  C   UNL     1      -2.546  -1.298  25.398  0.00  0.00    +0.008 A 
ATOM     21  C   UNL     1      -4.416  -1.864  24.042  0.00  0.00    +0.115 A 
ATOM     22  C   UNL     1      -1.862  -2.377  24.851  0.00  0.00    +0.020 A 
ATOM     23  C   UNL     1      -2.519  -3.152  23.908  0.00  0.00    +0.111 A 
ENDBRANCH  14  19
ENDBRANCH   4  14
ENDBRANCH   7   4
BRANCH   9  11
ATOM     11  C   UNL     1      -3.317   4.732  26.120  0.00  0.00    +0.138 C 
BRANCH  11   5
ATOM      3  O   UNL     1      -0.924   5.269  24.580  0.00  0.00    -0.276 OA
ATOM      5  N   UNL     1      -2.109   3.940  26.072  0.00  0.00    -0.313 N 
ATOM     15  C   UNL     1      -1.009   4.279  25.302  0.00  0.00    +0.214 C 
ATOM     25  H   UNL     1      -2.077   3.102  26.644  0.00  0.00    +0.149 HD
BRANCH  15  13
ATOM     13  C   UNL     1       0.129   3.279  25.419  0.00  0.00    +0.102 C 
BRANCH  13  12
ATOM     12  C   UNL     1      -0.130   1.920  24.726  0.00  0.00    -0.029 C 
ATOM     16  C   UNL     1       1.147   1.387  24.056  0.00  0.00    +0.011 C 
ATOM     17  C   UNL     1      -0.571   0.911  25.804  0.00  0.00    +0.011 C 
ATOM     18  C   UNL     1      -1.246   2.028  23.675  0.00  0.00    +0.011 C 
ENDBRANCH  13  12
ENDBRANCH  15  13
ENDBRANCH  11   5
ENDBRANCH   9  11
TORSDOF 8
ENDMDL
MODEL 7
REMARK VINA RESULT:      -3.7      2.021      4.518
REMARK  Name = 75536526
REMARK  11 active torsions:
REMARK  status: ('A' for Active; 'I' for Inactive)
REMARK    1  A    between atoms: O_2  and  C_8
REMARK    2  A    between atoms: N_4  and  C_7
REMARK    3  A    between atoms: N_4  and  C_14
REMARK    4  A    between atoms: N_5  and  C_11
REMARK    5  A    between atoms: C_9  and  C_11
REMARK    6  A    between atoms: C_12  and  C_13
REMARK    7  A    between atoms: C_12  and  C_16
REMARK    8  A    between atoms: C_12  and  C_17
REMARK    9  A    between atoms: C_12  and  C_18
REMARK   10  A    between atoms: C_13  and  C_15
REMARK   11  A    between atoms: C_14  and  C_19
REMARK                            x       y       z     vdW  Elec       q    Type
REMARK                         _______ _______ _______ _____ _____    ______ ____
ROOT
ATOM      1  O   UNL     1      -6.024   1.644  25.788  0.00  0.00    -0.371 OA
ATOM      7  C   UNL     1      -4.892   3.646  25.193  0.00  0.00    +0.111 C 
ATOM      8  C   UNL     1      -4.258   2.481  24.455  0.00  0.00    +0.164 C 
ATOM      9  C   UNL     1      -5.376   1.449  24.519  0.00  0.00    +0.165 C 
ATOM     10  C   UNL     1      -5.635   2.928  26.308  0.00  0.00    +0.181 C 
ENDROOT
BRANCH   8   2
ATOM      2  O   UNL     1      -3.912   2.802  23.122  0.00  0.00    -0.388 OA
ATOM     26  H   UNL     1      -4.452   2.255  22.527  0.00  0.00    +0.210 HD
ENDBRANCH   8   2
BRANCH   7   4
ATOM      4  N   UNL     1      -3.928   4.616  25.689  0.00  0.00    -0.305 NA
ATOM     24  H   UNL     1      -4.423   5.330  26.227  0.00  0.00    +0.123 HD
BRANCH   4  14
ATOM     14  C   UNL     1      -2.937   3.981  26.548  0.00  0.00    +0.118 C 
BRANCH  14  19
ATOM      6  N   UNL     1       0.250   2.190  25.566  0.00  0.00    -0.263 NA
ATOM     19  C   UNL     1      -1.689   3.617  25.790  0.00  0.00    -0.015 A 
ATOM     20  C   UNL     1      -1.306   4.327  24.656  0.00  0.00    +0.008 A 
ATOM     21  C   UNL     1      -0.883   2.567  26.199  0.00  0.00    +0.115 A 
ATOM     22  C   UNL     1      -0.148   3.969  23.977  0.00  0.00    +0.020 A 
ATOM     23  C   UNL     1       0.589   2.903  24.468  0.00  0.00    +0.111 A 
ENDBRANCH  14  19
ENDBRANCH   4  14
ENDBRANCH   7   4
BRANCH   9  11
ATOM     11  C   UNL     1      -4.882   0.019  24.410  0.00  0.00    +0.138 C 
BRANCH  11   5
ATOM      3  O   UNL     1      -3.618  -1.486  26.538  0.00  0.00    -0.276 OA
ATOM      5  N   UNL     1      -3.469  -0.076  24.697  0.00  0.00    -0.313 N 
ATOM     15  C   UNL     1      -2.955  -0.825  25.742  0.00  0.00    +0.214 C 
ATOM     25  H   UNL     1      -2.833   0.429  24.088  0.00  0.00    +0.149 HD
BRANCH  15  13
ATOM     13  C   UNL     1      -1.439  -0.753  25.836  0.00  0.00    +0.102 C 
BRANCH  13  12
ATOM     12  C   UNL     1      -0.686  -1.608  24.790  0.00  0.00    -0.029 C 
ATOM     16  C   UNL     1       0.013  -0.719  23.748  0.00  0.00    +0.011 C 
ATOM     17  C   UNL     1       0.390  -2.428  25.529  0.00  0.00    +0.011 C 
ATOM     18  C   UNL     1      -1.632  -2.583  24.071  0.00  0.00    +0.011 C 
ENDBRANCH  13  12
ENDBRANCH  15  13
ENDBRANCH  11   5
ENDBRANCH   9  11
TORSDOF 8
ENDMDL
MODEL 8
REMARK VINA RESULT:      -3.5      2.137      6.123
REMARK  Name = 75536526
REMARK  11 active torsions:
REMARK  status: ('A' for Active; 'I' for Inactive)
REMARK    1  A    between atoms: O_2  and  C_8
REMARK    2  A    between atoms: N_4  and  C_7
REMARK    3  A    between atoms: N_4  and  C_14
REMARK    4  A    between atoms: N_5  and  C_11
REMARK    5  A    between atoms: C_9  and  C_11
REMARK    6  A    between atoms: C_12  and  C_13
REMARK    7  A    between atoms: C_12  and  C_16
REMARK    8  A    between atoms: C_12  and  C_17
REMARK    9  A    between atoms: C_12  and  C_18
REMARK   10  A    between atoms: C_13  and  C_15
REMARK   11  A    between atoms: C_14  and  C_19
REMARK                            x       y       z     vdW  Elec       q    Type
REMARK                         _______ _______ _______ _____ _____    ______ ____
ROOT
ATOM      1  O   UNL     1      -1.204  -2.290  23.660  0.00  0.00    -0.371 OA
ATOM      7  C   UNL     1      -0.039  -0.334  24.340  0.00  0.00    +0.111 C 
ATOM      8  C   UNL     1      -1.226  -0.548  25.261  0.00  0.00    +0.164 C 
ATOM      9  C   UNL     1      -1.504  -2.029  25.042  0.00  0.00    +0.165 C 
ATOM     10  C   UNL     1      -0.425  -1.195  23.147  0.00  0.00    +0.181 C 
ENDROOT
BRANCH   8   2
ATOM      2  O   UNL     1      -0.926  -0.262  26.613  0.00  0.00    -0.388 OA
ATOM     26  H   UNL     1      -1.380  -0.916  27.171  0.00  0.00    +0.210 HD
ENDBRANCH   8   2
BRANCH   7   4
ATOM      4  N   UNL     1       0.180   1.060  23.984  0.00  0.00    -0.305 NA
ATOM     24  H   UNL     1      -0.659   1.422  23.529  0.00  0.00    +0.123 HD
BRANCH   4  14
ATOM     14  C   UNL     1       0.460   1.865  25.166  0.00  0.00    +0.118 C 
BRANCH  14  19
ATOM      6  N   UNL     1      -2.527   3.939  26.219  0.00  0.00    -0.263 NA
ATOM     19  C   UNL     1      -0.490   3.027  25.291  0.00  0.00    -0.015 A 
ATOM     20  C   UNL     1      -0.245   4.226  24.629  0.00  0.00    +0.008 A 
ATOM     21  C   UNL     1      -1.634   2.936  26.066  0.00  0.00    +0.115 A 
ATOM     22  C   UNL     1      -1.140   5.281  24.763  0.00  0.00    +0.020 A 
ATOM     23  C   UNL     1      -2.256   5.089  25.561  0.00  0.00    +0.111 A 
ENDBRANCH  14  19
ENDBRANCH   4  14
ENDBRANCH   7   4
BRANCH   9  11
ATOM     11  C   UNL     1      -2.940  -2.421  25.338  0.00  0.00    +0.138 C 
BRANCH  11   5
ATOM      3  O   UNL     1      -4.338  -0.408  23.795  0.00  0.00    -0.276 OA
ATOM      5  N   UNL     1      -3.701  -1.301  25.843  0.00  0.00    -0.313 N 
ATOM     15  C   UNL     1      -4.339  -0.385  25.024  0.00  0.00    +0.214 C 
ATOM     25  H   UNL     1      -3.770  -1.199  26.851  0.00  0.00    +0.149 HD
BRANCH  15  13
ATOM     13  C   UNL     1      -5.064   0.703  25.799  0.00  0.00    +0.102 C 
BRANCH  13  12
ATOM     12  C   UNL     1      -5.401   1.968  24.975  0.00  0.00    -0.029 C 
ATOM     16  C   UNL     1      -4.348   2.213  23.881  0.00  0.00    +0.011 C 
ATOM     17  C   UNL     1      -6.766   1.744  24.294  0.00  0.00    +0.011 C 
ATOM     18  C   UNL     1      -5.502   3.214  25.870  0.00  0.00    +0.011 C 
ENDBRANCH  13  12
ENDBRANCH  15  13
ENDBRANCH  11   5
ENDBRANCH   9  11
TORSDOF 8
ENDMDL
MODEL 9
REMARK VINA RESULT:      -3.3      1.427      4.369
REMARK  Name = 75536526
REMARK  11 active torsions:
REMARK  status: ('A' for Active; 'I' for Inactive)
REMARK    1  A    between atoms: O_2  and  C_8
REMARK    2  A    between atoms: N_4  and  C_7
REMARK    3  A    between atoms: N_4  and  C_14
REMARK    4  A    between atoms: N_5  and  C_11
REMARK    5  A    between atoms: C_9  and  C_11
REMARK    6  A    between atoms: C_12  and  C_13
REMARK    7  A    between atoms: C_12  and  C_16
REMARK    8  A    between atoms: C_12  and  C_17
REMARK    9  A    between atoms: C_12  and  C_18
REMARK   10  A    between atoms: C_13  and  C_15
REMARK   11  A    between atoms: C_14  and  C_19
REMARK                            x       y       z     vdW  Elec       q    Type
REMARK                         _______ _______ _______ _____ _____    ______ ____
ROOT
ATOM      1  O   UNL     1      -3.369   4.649  26.407  0.00  0.00    -0.371 OA
ATOM      7  C   UNL     1      -1.852   4.324  24.608  0.00  0.00    +0.111 C 
ATOM      8  C   UNL     1      -3.173   3.659  24.268  0.00  0.00    +0.164 C 
ATOM      9  C   UNL     1      -4.121   4.389  25.209  0.00  0.00    +0.165 C 
ATOM     10  C   UNL     1      -1.971   4.476  26.116  0.00  0.00    +0.181 C 
ENDROOT
BRANCH   8   2
ATOM      2  O   UNL     1      -3.539   3.831  22.913  0.00  0.00    -0.388 OA
ATOM     26  H   UNL     1      -4.211   4.531  22.865  0.00  0.00    +0.210 HD
ENDBRANCH   8   2
BRANCH   7   4
ATOM      4  N   UNL     1      -0.688   3.549  24.207  0.00  0.00    -0.305 NA
ATOM     24  H   UNL     1       0.051   4.189  23.913  0.00  0.00    +0.123 HD
BRANCH   4  14
ATOM     14  C   UNL     1      -0.195   2.734  25.310  0.00  0.00    +0.118 C 
BRANCH  14  19
ATOM      6  N   UNL     1      -0.741  -0.997  25.636  0.00  0.00    -0.263 NA
ATOM     19  C   UNL     1      -0.211   1.267  24.975  0.00  0.00    -0.015 A 
ATOM     20  C   UNL     1       0.266   0.806  23.752  0.00  0.00    +0.008 A 
ATOM     21  C   UNL     1      -0.700   0.333  25.873  0.00  0.00    +0.115 A 
ATOM     22  C   UNL     1       0.239  -0.554  23.471  0.00  0.00    +0.020 A 
ATOM     23  C   UNL     1      -0.270  -1.408  24.437  0.00  0.00    +0.111 A 
ENDBRANCH  14  19
ENDBRANCH   4  14
ENDBRANCH   7   4
BRANCH   9  11
ATOM     11  C   UNL     1      -5.366   3.590  25.548  0.00  0.00    +0.138 C 
BRANCH  11   5
ATOM      3  O   UNL     1      -6.347   1.064  26.572  0.00  0.00    -0.276 OA
ATOM      5  N   UNL     1      -5.377   2.314  24.870  0.00  0.00    -0.313 N 
ATOM     15  C   UNL     1      -5.869   1.154  25.443  0.00  0.00    +0.214 C 
ATOM     25  H   UNL     1      -5.010   2.284  23.924  0.00  0.00    +0.149 HD
BRANCH  15  13
ATOM     13  C   UNL     1      -5.759  -0.055  24.528  0.00  0.00    +0.102 C 
BRANCH  13  12
ATOM     12  C   UNL     1      -4.334  -0.646  24.407  0.00  0.00    -0.029 C 
ATOM     16  C   UNL     1      -3.419   0.277  23.584  0.00  0.00    +0.011 C 
ATOM     17  C   UNL     1      -3.748  -0.770  25.827  0.00  0.00    +0.011 C 
ATOM     18  C   UNL     1      -4.355  -2.042  23.765  0.00  0.00    +0.011 C 
ENDBRANCH  13  12
ENDBRANCH  15  13
ENDBRANCH  11   5
ENDBRANCH   9  11
TORSDOF 8
ENDMDL
MODEL 10
REMARK VINA RESULT:      -3.2      2.000      5.051
REMARK  Name = 75536526
REMARK  11 active torsions:
REMARK  status: ('A' for Active; 'I' for Inactive)
REMARK    1  A    between atoms: O_2  and  C_8
REMARK    2  A    between atoms: N_4  and  C_7
REMARK    3  A    between atoms: N_4  and  C_14
REMARK    4  A    between atoms: N_5  and  C_11
REMARK    5  A    between atoms: C_9  and  C_11
REMARK    6  A    between atoms: C_12  and  C_13
REMARK    7  A    between atoms: C_12  and  C_16
REMARK    8  A    between atoms: C_12  and  C_17
REMARK    9  A    between atoms: C_12  and  C_18
REMARK   10  A    between atoms: C_13  and  C_15
REMARK   11  A    between atoms: C_14  and  C_19
REMARK                            x       y       z     vdW  Elec       q    Type
REMARK                         _______ _______ _______ _____ _____    ______ ____
ROOT
ATOM      1  O   UNL     1      -2.526   3.755  26.421  0.00  0.00    -0.371 OA
ATOM      7  C   UNL     1      -0.361   3.109  25.688  0.00  0.00    +0.111 C 
ATOM      8  C   UNL     1      -1.258   3.294  24.478  0.00  0.00    +0.164 C 
ATOM      9  C   UNL     1      -2.354   4.178  25.058  0.00  0.00    +0.165 C 
ATOM     10  C   UNL     1      -1.384   2.968  26.803  0.00  0.00    +0.181 C 
ENDROOT
BRANCH   8   2
ATOM      2  O   UNL     1      -0.595   3.917  23.396  0.00  0.00    -0.388 OA
ATOM     26  H   UNL     1       0.037   4.561  23.756  0.00  0.00    +0.210 HD
ENDBRANCH   8   2
BRANCH   7   4
ATOM      4  N   UNL     1       0.527   1.962  25.586  0.00  0.00    -0.305 NA
ATOM     24  H   UNL     1       0.607   1.521  26.504  0.00  0.00    +0.123 HD
BRANCH   4  14
ATOM     14  C   UNL     1       0.013   0.982  24.637  0.00  0.00    +0.118 C 
BRANCH  14  19
ATOM      6  N   UNL     1       1.576  -0.563  21.555  0.00  0.00    -0.263 NA
ATOM     19  C   UNL     1       1.028   0.638  23.580  0.00  0.00    -0.015 A 
ATOM     20  C   UNL     1       2.316   1.164  23.625  0.00  0.00    +0.008 A 
ATOM     21  C   UNL     1       0.712  -0.212  22.533  0.00  0.00    +0.115 A 
ATOM     22  C   UNL     1       3.232   0.828  22.636  0.00  0.00    +0.020 A 
ATOM     23  C   UNL     1       2.817  -0.032  21.631  0.00  0.00    +0.111 A 
ENDBRANCH  14  19
ENDBRANCH   4  14
ENDBRANCH   7   4
BRANCH   9  11
ATOM     11  C   UNL     1      -3.673   4.065  24.315  0.00  0.00    +0.138 C 
BRANCH  11   5
ATOM      3  O   UNL     1      -5.437   2.521  26.016  0.00  0.00    -0.276 OA
ATOM      5  N   UNL     1      -4.069   2.685  24.146  0.00  0.00    -0.313 N 
ATOM     15  C   UNL     1      -4.922   2.028  25.015  0.00  0.00    +0.214 C 
ATOM     25  H   UNL     1      -3.702   2.190  23.339  0.00  0.00    +0.149 HD
BRANCH  15  13
ATOM     13  C   UNL     1      -5.174   0.582  24.621  0.00  0.00    +0.102 C 
BRANCH  13  12
ATOM     12  C   UNL     1      -3.895  -0.258  24.394  0.00  0.00    -0.029 C 
ATOM     16  C   UNL     1      -3.058  -0.351  25.681  0.00  0.00    +0.011 C 
ATOM     17  C   UNL     1      -4.325  -1.682  23.990  0.00  0.00    +0.011 C 
ATOM     18  C   UNL     1      -3.029   0.327  23.267  0.00  0.00    +0.011 C 
ENDBRANCH  13  12
ENDBRANCH  15  13
ENDBRANCH  11   5
ENDBRANCH   9  11
TORSDOF 8
ENDMDL
