MODEL 1
REMARK VINA RESULT:      -3.2      0.000      0.000
REMARK  Name = 75367644
REMARK  6 active torsions:
REMARK  status: ('A' for Active; 'I' for Inactive)
REMARK    1  A    between atoms: O_5  and  C_10
REMARK    2  A    between atoms: O_5  and  C_17
REMARK    3  A    between atoms: N_8  and  C_16
REMARK    4  A    between atoms: C_16  and  C_18
REMARK    5  A    between atoms: C_18  and  C_20
REMARK    6  A    between atoms: C_22  and  C_24
REMARK                            x       y       z     vdW  Elec       q    Type
REMARK                         _______ _______ _______ _____ _____    ______ ____
ROOT
ATOM      4  O   UNL     1      -1.666   5.173  24.341  0.00  0.00    -0.375 OA
ATOM      6  O   UNL     1       0.053   0.255  24.054  0.00  0.00    -0.253 OA
ATOM      7  N   UNL     1      -0.187   2.501  24.635  0.00  0.00    -0.280 N 
ATOM      8  N   UNL     1       1.739   1.720  23.500  0.00  0.00    -0.299 N 
ATOM     10  C   UNL     1      -2.630   2.906  24.402  0.00  0.00    +0.218 C 
ATOM     11  C   UNL     1      -1.510   2.263  25.219  0.00  0.00    +0.156 C 
ATOM     12  C   UNL     1       0.356   3.868  24.639  0.00  0.00    +0.137 C 
ATOM     13  C   UNL     1      -2.803   4.395  24.691  0.00  0.00    +0.206 C 
ATOM     14  C   UNL     1      -0.546   4.963  25.194  0.00  0.00    +0.179 C 
ATOM     15  C   UNL     1       0.503   1.404  24.061  0.00  0.00    +0.302 C 
ATOM     25  H   UNL     1       2.090   2.669  23.534  0.00  0.00    +0.150 HD
ENDROOT
BRANCH  10   5
ATOM      5  O   UNL     1      -3.847   2.238  24.727  0.00  0.00    -0.469 OA
BRANCH   5  17
ATOM      9  N   UNL     1      -3.727   0.338  23.403  0.00  0.00    -0.221 NA
ATOM     17  C   UNL     1      -3.839   0.873  24.640  0.00  0.00    +0.215 A 
ATOM     19  C   UNL     1      -3.941   0.124  25.802  0.00  0.00    +0.068 A 
ATOM     21  C   UNL     1      -3.929  -1.261  25.687  0.00  0.00    +0.019 A 
ATOM     22  C   UNL     1      -3.818  -1.849  24.431  0.00  0.00    +0.073 A 
ATOM     23  C   UNL     1      -3.720  -1.012  23.331  0.00  0.00    +0.127 A 
BRANCH  22  24
ATOM      1  F   UNL     1      -2.708  -3.801  23.606  0.00  0.00    -0.166 F 
ATOM      2  F   UNL     1      -3.808  -4.006  25.464  0.00  0.00    -0.166 F 
ATOM      3  F   UNL     1      -4.882  -3.799  23.584  0.00  0.00    -0.166 F 
ATOM     24  C   UNL     1      -3.802  -3.328  24.276  0.00  0.00    +0.419 C 
ENDBRANCH  22  24
ENDBRANCH   5  17
ENDBRANCH  10   5
BRANCH   8  16
ATOM     16  C   UNL     1       2.596   0.741  22.867  0.00  0.00    +0.105 C 
BRANCH  16  18
ATOM     18  C   UNL     1       4.037   1.222  22.747  0.00  0.00    +0.015 C 
ATOM     20  C   UNL     1       5.025   0.297  23.445  0.00  0.00    +0.005 C 
ENDBRANCH  16  18
ENDBRANCH   8  16
TORSDOF 5
ENDMDL
MODEL 2
REMARK VINA RESULT:      -2.1      3.336      4.735
REMARK  Name = 75367644
REMARK  6 active torsions:
REMARK  status: ('A' for Active; 'I' for Inactive)
REMARK    1  A    between atoms: O_5  and  C_10
REMARK    2  A    between atoms: O_5  and  C_17
REMARK    3  A    between atoms: N_8  and  C_16
REMARK    4  A    between atoms: C_16  and  C_18
REMARK    5  A    between atoms: C_18  and  C_20
REMARK    6  A    between atoms: C_22  and  C_24
REMARK                            x       y       z     vdW  Elec       q    Type
REMARK                         _______ _______ _______ _____ _____    ______ ____
ROOT
ATOM      4  O   UNL     1      -0.535  -0.715  25.396  0.00  0.00    -0.375 OA
ATOM      6  O   UNL     1       3.047   2.059  22.809  0.00  0.00    -0.253 OA
ATOM      7  N   UNL     1       1.409   0.490  23.352  0.00  0.00    -0.280 N 
ATOM      8  N   UNL     1       3.617  -0.172  22.811  0.00  0.00    -0.299 N 
ATOM     10  C   UNL     1       0.021   1.660  25.053  0.00  0.00    +0.218 C 
ATOM     11  C   UNL     1       0.408   1.536  23.579  0.00  0.00    +0.156 C 
ATOM     12  C   UNL     1       1.025  -0.916  23.551  0.00  0.00    +0.137 C 
ATOM     13  C   UNL     1      -1.008   0.622  25.491  0.00  0.00    +0.206 C 
ATOM     14  C   UNL     1      -0.388  -1.176  24.058  0.00  0.00    +0.179 C 
ATOM     15  C   UNL     1       2.719   0.880  22.978  0.00  0.00    +0.302 C 
ATOM     25  H   UNL     1       3.316  -1.129  22.941  0.00  0.00    +0.150 HD
ENDROOT
BRANCH  10   5
ATOM      5  O   UNL     1      -0.533   2.959  25.251  0.00  0.00    -0.469 OA
BRANCH   5  17
ATOM      9  N   UNL     1      -2.627   2.238  24.563  0.00  0.00    -0.221 NA
ATOM     17  C   UNL     1      -1.893   3.032  25.376  0.00  0.00    +0.215 A 
ATOM     19  C   UNL     1      -2.437   3.898  26.311  0.00  0.00    +0.068 A 
ATOM     21  C   UNL     1      -3.823   3.953  26.419  0.00  0.00    +0.019 A 
ATOM     22  C   UNL     1      -4.611   3.153  25.599  0.00  0.00    +0.073 A 
ATOM     23  C   UNL     1      -3.970   2.320  24.695  0.00  0.00    +0.127 A 
BRANCH  22  24
ATOM      1  F   UNL     1      -6.589   2.674  26.856  0.00  0.00    -0.166 F 
ATOM      2  F   UNL     1      -6.620   4.451  25.614  0.00  0.00    -0.166 F 
ATOM      3  F   UNL     1      -6.705   2.483  24.693  0.00  0.00    -0.166 F 
ATOM     24  C   UNL     1      -6.095   3.190  25.690  0.00  0.00    +0.419 C 
ENDBRANCH  22  24
ENDBRANCH   5  17
ENDBRANCH  10   5
BRANCH   8  16
ATOM     16  C   UNL     1       5.000   0.020  22.430  0.00  0.00    +0.105 C 
BRANCH  16  18
ATOM     18  C   UNL     1       5.918   0.182  23.636  0.00  0.00    +0.015 C 
ATOM     20  C   UNL     1       5.712  -0.906  24.681  0.00  0.00    +0.005 C 
ENDBRANCH  16  18
ENDBRANCH   8  16
TORSDOF 5
ENDMDL
MODEL 3
REMARK VINA RESULT:      -1.9      3.469      5.864
REMARK  Name = 75367644
REMARK  6 active torsions:
REMARK  status: ('A' for Active; 'I' for Inactive)
REMARK    1  A    between atoms: O_5  and  C_10
REMARK    2  A    between atoms: O_5  and  C_17
REMARK    3  A    between atoms: N_8  and  C_16
REMARK    4  A    between atoms: C_16  and  C_18
REMARK    5  A    between atoms: C_18  and  C_20
REMARK    6  A    between atoms: C_22  and  C_24
REMARK                            x       y       z     vdW  Elec       q    Type
REMARK                         _______ _______ _______ _____ _____    ______ ____
ROOT
ATOM      4  O   UNL     1       1.755   0.461  22.742  0.00  0.00    -0.375 OA
ATOM      6  O   UNL     1      -2.569  -0.702  25.420  0.00  0.00    -0.253 OA
ATOM      7  N   UNL     1      -0.361  -0.637  24.674  0.00  0.00    -0.280 N 
ATOM      8  N   UNL     1      -1.658  -2.611  24.512  0.00  0.00    -0.299 N 
ATOM     10  C   UNL     1      -0.107   1.678  23.801  0.00  0.00    +0.218 C 
ATOM     11  C   UNL     1      -0.226   0.778  25.031  0.00  0.00    +0.156 C 
ATOM     12  C   UNL     1       0.785  -1.327  24.062  0.00  0.00    +0.137 C 
ATOM     13  C   UNL     1       1.305   1.720  23.224  0.00  0.00    +0.206 C 
ATOM     14  C   UNL     1       2.020  -0.484  23.774  0.00  0.00    +0.179 C 
ATOM     15  C   UNL     1      -1.604  -1.276  24.907  0.00  0.00    +0.302 C 
ATOM     25  H   UNL     1      -0.846  -3.060  24.108  0.00  0.00    +0.150 HD
ENDROOT
BRANCH  10   5
ATOM      5  O   UNL     1      -0.477   3.000  24.189  0.00  0.00    -0.469 OA
BRANCH   5  17
ATOM      9  N   UNL     1      -2.730   2.587  23.825  0.00  0.00    -0.221 NA
ATOM     17  C   UNL     1      -1.777   3.184  24.576  0.00  0.00    +0.215 A 
ATOM     19  C   UNL     1      -2.042   3.955  25.696  0.00  0.00    +0.068 A 
ATOM     21  C   UNL     1      -3.370   4.126  26.069  0.00  0.00    +0.019 A 
ATOM     22  C   UNL     1      -4.380   3.530  25.321  0.00  0.00    +0.073 A 
ATOM     23  C   UNL     1      -4.010   2.777  24.218  0.00  0.00    +0.127 A 
BRANCH  22  24
ATOM      1  F   UNL     1      -6.239   4.993  25.671  0.00  0.00    -0.166 F 
ATOM      2  F   UNL     1      -6.674   3.023  24.874  0.00  0.00    -0.166 F 
ATOM      3  F   UNL     1      -6.083   3.245  26.955  0.00  0.00    -0.166 F 
ATOM     24  C   UNL     1      -5.810   3.695  25.694  0.00  0.00    +0.419 C 
ENDBRANCH  22  24
ENDBRANCH   5  17
ENDBRANCH  10   5
BRANCH   8  16
ATOM     16  C   UNL     1      -2.838  -3.436  24.667  0.00  0.00    +0.105 C 
BRANCH  16  18
ATOM     18  C   UNL     1      -3.879  -3.168  23.588  0.00  0.00    +0.015 C 
ATOM     20  C   UNL     1      -4.619  -1.854  23.800  0.00  0.00    +0.005 C 
ENDBRANCH  16  18
ENDBRANCH   8  16
TORSDOF 5
ENDMDL
MODEL 4
REMARK VINA RESULT:      -1.9      3.068      5.869
REMARK  Name = 75367644
REMARK  6 active torsions:
REMARK  status: ('A' for Active; 'I' for Inactive)
REMARK    1  A    between atoms: O_5  and  C_10
REMARK    2  A    between atoms: O_5  and  C_17
REMARK    3  A    between atoms: N_8  and  C_16
REMARK    4  A    between atoms: C_16  and  C_18
REMARK    5  A    between atoms: C_18  and  C_20
REMARK    6  A    between atoms: C_22  and  C_24
REMARK                            x       y       z     vdW  Elec       q    Type
REMARK                         _______ _______ _______ _____ _____    ______ ____
ROOT
ATOM      4  O   UNL     1      -4.638   3.447  26.517  0.00  0.00    -0.375 OA
ATOM      6  O   UNL     1      -2.678  -0.318  23.483  0.00  0.00    -0.253 OA
ATOM      7  N   UNL     1      -4.040   1.370  24.339  0.00  0.00    -0.280 N 
ATOM      8  N   UNL     1      -4.819  -0.856  24.136  0.00  0.00    -0.299 N 
ATOM     10  C   UNL     1      -2.449   2.839  25.563  0.00  0.00    +0.218 C 
ATOM     11  C   UNL     1      -2.975   2.369  24.207  0.00  0.00    +0.156 C 
ATOM     12  C   UNL     1      -5.337   1.785  24.897  0.00  0.00    +0.137 C 
ATOM     13  C   UNL     1      -3.329   3.906  26.209  0.00  0.00    +0.206 C 
ATOM     14  C   UNL     1      -5.451   3.228  25.370  0.00  0.00    +0.179 C 
ATOM     15  C   UNL     1      -3.765   0.036  23.951  0.00  0.00    +0.302 C 
ATOM     25  H   UNL     1      -5.704  -0.535  24.508  0.00  0.00    +0.150 HD
ENDROOT
BRANCH  10   5
ATOM      5  O   UNL     1      -1.148   3.387  25.361  0.00  0.00    -0.469 OA
BRANCH   5  17
ATOM      9  N   UNL     1       0.659   3.225  23.918  0.00  0.00    -0.221 NA
ATOM     17  C   UNL     1      -0.247   2.597  24.702  0.00  0.00    +0.215 A 
ATOM     19  C   UNL     1      -0.307   1.223  24.869  0.00  0.00    +0.068 A 
ATOM     21  C   UNL     1       0.621   0.443  24.189  0.00  0.00    +0.019 A 
ATOM     22  C   UNL     1       1.567   1.051  23.371  0.00  0.00    +0.073 A 
ATOM     23  C   UNL     1       1.544   2.433  23.271  0.00  0.00    +0.127 A 
BRANCH  22  24
ATOM      1  F   UNL     1       3.746   0.905  22.394  0.00  0.00    -0.166 F 
ATOM      2  F   UNL     1       2.939  -0.905  23.275  0.00  0.00    -0.166 F 
ATOM      3  F   UNL     1       2.128  -0.156  21.402  0.00  0.00    -0.166 F 
ATOM     24  C   UNL     1       2.572   0.244  22.630  0.00  0.00    +0.419 C 
ENDBRANCH  22  24
ENDBRANCH   5  17
ENDBRANCH  10   5
BRANCH   8  16
ATOM     16  C   UNL     1      -4.736  -2.262  23.801  0.00  0.00    +0.105 C 
BRANCH  16  18
ATOM     18  C   UNL     1      -3.548  -2.948  24.463  0.00  0.00    +0.015 C 
ATOM     20  C   UNL     1      -3.286  -2.438  25.873  0.00  0.00    +0.005 C 
ENDBRANCH  16  18
ENDBRANCH   8  16
TORSDOF 5
ENDMDL
MODEL 5
REMARK VINA RESULT:      -1.6      4.112      5.881
REMARK  Name = 75367644
REMARK  6 active torsions:
REMARK  status: ('A' for Active; 'I' for Inactive)
REMARK    1  A    between atoms: O_5  and  C_10
REMARK    2  A    between atoms: O_5  and  C_17
REMARK    3  A    between atoms: N_8  and  C_16
REMARK    4  A    between atoms: C_16  and  C_18
REMARK    5  A    between atoms: C_18  and  C_20
REMARK    6  A    between atoms: C_22  and  C_24
REMARK                            x       y       z     vdW  Elec       q    Type
REMARK                         _______ _______ _______ _____ _____    ______ ____
ROOT
ATOM      4  O   UNL     1      -2.605  -2.699  25.577  0.00  0.00    -0.375 OA
ATOM      6  O   UNL     1       0.197   1.153  23.447  0.00  0.00    -0.253 OA
ATOM      7  N   UNL     1      -0.934  -0.860  23.778  0.00  0.00    -0.280 N 
ATOM      8  N   UNL     1       1.411  -0.803  23.457  0.00  0.00    -0.299 N 
ATOM     10  C   UNL     1      -2.762  -0.251  25.350  0.00  0.00    +0.218 C 
ATOM     11  C   UNL     1      -2.221  -0.174  23.923  0.00  0.00    +0.156 C 
ATOM     12  C   UNL     1      -0.892  -2.325  23.902  0.00  0.00    +0.137 C 
ATOM     13  C   UNL     1      -3.466  -1.571  25.653  0.00  0.00    +0.206 C 
ATOM     14  C   UNL     1      -2.201  -3.022  24.251  0.00  0.00    +0.179 C 
ATOM     15  C   UNL     1       0.226  -0.077  23.553  0.00  0.00    +0.302 C 
ATOM     25  H   UNL     1       1.402  -1.812  23.531  0.00  0.00    +0.150 HD
ENDROOT
BRANCH  10   5
ATOM      5  O   UNL     1      -3.699   0.811  25.520  0.00  0.00    -0.469 OA
BRANCH   5  17
ATOM      9  N   UNL     1      -1.955   2.327  25.706  0.00  0.00    -0.221 NA
ATOM     17  C   UNL     1      -3.229   2.080  25.324  0.00  0.00    +0.215 A 
ATOM     19  C   UNL     1      -4.065   3.027  24.755  0.00  0.00    +0.068 A 
ATOM     21  C   UNL     1      -3.563   4.309  24.565  0.00  0.00    +0.019 A 
ATOM     22  C   UNL     1      -2.258   4.603  24.947  0.00  0.00    +0.073 A 
ATOM     23  C   UNL     1      -1.502   3.586  25.507  0.00  0.00    +0.127 A 
BRANCH  22  24
ATOM      1  F   UNL     1      -2.014   6.840  25.759  0.00  0.00    -0.166 F 
ATOM      2  F   UNL     1      -0.327   5.991  24.693  0.00  0.00    -0.166 F 
ATOM      3  F   UNL     1      -2.122   6.561  23.605  0.00  0.00    -0.166 F 
ATOM     24  C   UNL     1      -1.693   5.966  24.757  0.00  0.00    +0.419 C 
ENDBRANCH  22  24
ENDBRANCH   5  17
ENDBRANCH  10   5
BRANCH   8  16
ATOM     16  C   UNL     1       2.701  -0.188  23.227  0.00  0.00    +0.105 C 
BRANCH  16  18
ATOM     18  C   UNL     1       3.857  -1.095  23.631  0.00  0.00    +0.015 C 
ATOM     20  C   UNL     1       5.175  -0.344  23.761  0.00  0.00    +0.005 C 
ENDBRANCH  16  18
ENDBRANCH   8  16
TORSDOF 5
ENDMDL
MODEL 6
REMARK VINA RESULT:      -1.4      4.291      7.516
REMARK  Name = 75367644
REMARK  6 active torsions:
REMARK  status: ('A' for Active; 'I' for Inactive)
REMARK    1  A    between atoms: O_5  and  C_10
REMARK    2  A    between atoms: O_5  and  C_17
REMARK    3  A    between atoms: N_8  and  C_16
REMARK    4  A    between atoms: C_16  and  C_18
REMARK    5  A    between atoms: C_18  and  C_20
REMARK    6  A    between atoms: C_22  and  C_24
REMARK                            x       y       z     vdW  Elec       q    Type
REMARK                         _______ _______ _______ _____ _____    ______ ____
ROOT
ATOM      4  O   UNL     1      -1.233  -1.811  24.907  0.00  0.00    -0.375 OA
ATOM      6  O   UNL     1      -1.644   3.308  23.986  0.00  0.00    -0.253 OA
ATOM      7  N   UNL     1      -1.346   1.252  25.045  0.00  0.00    -0.280 N 
ATOM      8  N   UNL     1      -3.170   2.662  25.583  0.00  0.00    -0.299 N 
ATOM     10  C   UNL     1      -0.376  -0.188  23.263  0.00  0.00    +0.218 C 
ATOM     11  C   UNL     1      -0.150   0.956  24.252  0.00  0.00    +0.156 C 
ATOM     12  C   UNL     1      -1.809   0.260  26.028  0.00  0.00    +0.137 C 
ATOM     13  C   UNL     1      -0.253  -1.566  23.906  0.00  0.00    +0.206 C 
ATOM     14  C   UNL     1      -1.038  -1.052  26.095  0.00  0.00    +0.179 C 
ATOM     15  C   UNL     1      -2.027   2.472  24.810  0.00  0.00    +0.302 C 
ATOM     25  H   UNL     1      -3.452   1.966  26.262  0.00  0.00    +0.150 HD
ENDROOT
BRANCH  10   5
ATOM      5  O   UNL     1       0.607  -0.078  22.236  0.00  0.00    -0.469 OA
BRANCH   5  17
ATOM      9  N   UNL     1       2.413  -1.189  23.174  0.00  0.00    -0.221 NA
ATOM     17  C   UNL     1       1.914  -0.052  22.638  0.00  0.00    +0.215 A 
ATOM     19  C   UNL     1       2.643   1.115  22.477  0.00  0.00    +0.068 A 
ATOM     21  C   UNL     1       3.970   1.116  22.893  0.00  0.00    +0.019 A 
ATOM     22  C   UNL     1       4.519  -0.034  23.451  0.00  0.00    +0.073 A 
ATOM     23  C   UNL     1       3.706  -1.150  23.568  0.00  0.00    +0.127 A 
BRANCH  22  24
ATOM      1  F   UNL     1       6.178  -0.979  24.892  0.00  0.00    -0.166 F 
ATOM      2  F   UNL     1       6.825  -0.370  22.914  0.00  0.00    -0.166 F 
ATOM      3  F   UNL     1       6.354   1.134  24.412  0.00  0.00    -0.166 F 
ATOM     24  C   UNL     1       5.935  -0.063  23.906  0.00  0.00    +0.419 C 
ENDBRANCH  22  24
ENDBRANCH   5  17
ENDBRANCH  10   5
BRANCH   8  16
ATOM     16  C   UNL     1      -4.002   3.843  25.492  0.00  0.00    +0.105 C 
BRANCH  16  18
ATOM     18  C   UNL     1      -5.486   3.505  25.425  0.00  0.00    +0.015 C 
ATOM     20  C   UNL     1      -5.747   2.004  25.428  0.00  0.00    +0.005 C 
ENDBRANCH  16  18
ENDBRANCH   8  16
TORSDOF 5
ENDMDL
MODEL 7
REMARK VINA RESULT:      -0.9      2.369      4.942
REMARK  Name = 75367644
REMARK  6 active torsions:
REMARK  status: ('A' for Active; 'I' for Inactive)
REMARK    1  A    between atoms: O_5  and  C_10
REMARK    2  A    between atoms: O_5  and  C_17
REMARK    3  A    between atoms: N_8  and  C_16
REMARK    4  A    between atoms: C_16  and  C_18
REMARK    5  A    between atoms: C_18  and  C_20
REMARK    6  A    between atoms: C_22  and  C_24
REMARK                            x       y       z     vdW  Elec       q    Type
REMARK                         _______ _______ _______ _____ _____    ______ ____
ROOT
ATOM      4  O   UNL     1      -0.024   4.670  25.692  0.00  0.00    -0.375 OA
ATOM      6  O   UNL     1      -4.308   1.863  24.696  0.00  0.00    -0.253 OA
ATOM      7  N   UNL     1      -2.666   3.519  24.640  0.00  0.00    -0.280 N 
ATOM      8  N   UNL     1      -4.885   4.007  25.306  0.00  0.00    -0.299 N 
ATOM     10  C   UNL     1      -0.593   2.307  25.290  0.00  0.00    +0.218 C 
ATOM     11  C   UNL     1      -1.642   2.563  24.208  0.00  0.00    +0.156 C 
ATOM     12  C   UNL     1      -2.283   4.924  24.848  0.00  0.00    +0.137 C 
ATOM     13  C   UNL     1       0.483   3.388  25.347  0.00  0.00    +0.206 C 
ATOM     14  C   UNL     1      -0.811   5.268  24.666  0.00  0.00    +0.179 C 
ATOM     15  C   UNL     1      -3.981   3.041  24.869  0.00  0.00    +0.302 C 
ATOM     25  H   UNL     1      -4.592   4.968  25.424  0.00  0.00    +0.150 HD
ENDROOT
BRANCH  10   5
ATOM      5  O   UNL     1       0.034   1.059  25.004  0.00  0.00    -0.469 OA
BRANCH   5  17
ATOM      9  N   UNL     1      -1.986   0.017  25.467  0.00  0.00    -0.221 NA
ATOM     17  C   UNL     1      -0.793  -0.017  24.829  0.00  0.00    +0.215 A 
ATOM     19  C   UNL     1      -0.375  -1.063  24.023  0.00  0.00    +0.068 A 
ATOM     21  C   UNL     1      -1.235  -2.144  23.861  0.00  0.00    +0.019 A 
ATOM     22  C   UNL     1      -2.469  -2.146  24.502  0.00  0.00    +0.073 A 
ATOM     23  C   UNL     1      -2.794  -1.051  25.287  0.00  0.00    +0.127 A 
BRANCH  22  24
ATOM      1  F   UNL     1      -3.718  -3.910  25.526  0.00  0.00    -0.166 F 
ATOM      2  F   UNL     1      -4.616  -2.938  23.808  0.00  0.00    -0.166 F 
ATOM      3  F   UNL     1      -2.920  -4.272  23.536  0.00  0.00    -0.166 F 
ATOM     24  C   UNL     1      -3.409  -3.288  24.348  0.00  0.00    +0.419 C 
ENDBRANCH  22  24
ENDBRANCH   5  17
ENDBRANCH  10   5
BRANCH   8  16
ATOM     16  C   UNL     1      -6.274   3.719  25.594  0.00  0.00    +0.105 C 
BRANCH  16  18
ATOM     18  C   UNL     1      -6.578   2.227  25.555  0.00  0.00    +0.015 C 
ATOM     20  C   UNL     1      -6.627   1.601  26.942  0.00  0.00    +0.005 C 
ENDBRANCH  16  18
ENDBRANCH   8  16
TORSDOF 5
ENDMDL
MODEL 8
REMARK VINA RESULT:      -0.8      3.417      4.770
REMARK  Name = 75367644
REMARK  6 active torsions:
REMARK  status: ('A' for Active; 'I' for Inactive)
REMARK    1  A    between atoms: O_5  and  C_10
REMARK    2  A    between atoms: O_5  and  C_17
REMARK    3  A    between atoms: N_8  and  C_16
REMARK    4  A    between atoms: C_16  and  C_18
REMARK    5  A    between atoms: C_18  and  C_20
REMARK    6  A    between atoms: C_22  and  C_24
REMARK                            x       y       z     vdW  Elec       q    Type
REMARK                         _______ _______ _______ _____ _____    ______ ____
ROOT
ATOM      4  O   UNL     1       1.771  -0.391  22.935  0.00  0.00    -0.375 OA
ATOM      6  O   UNL     1      -0.998   2.266  26.470  0.00  0.00    -0.253 OA
ATOM      7  N   UNL     1       0.485   1.717  24.756  0.00  0.00    -0.280 N 
ATOM      8  N   UNL     1       1.255   2.586  26.819  0.00  0.00    -0.299 N 
ATOM     10  C   UNL     1      -0.574  -0.258  23.677  0.00  0.00    +0.218 C 
ATOM     11  C   UNL     1      -0.604   1.255  23.890  0.00  0.00    +0.156 C 
ATOM     12  C   UNL     1       1.869   1.636  24.262  0.00  0.00    +0.137 C 
ATOM     13  C   UNL     1       0.422  -0.693  22.606  0.00  0.00    +0.206 C 
ATOM     14  C   UNL     1       2.072   1.000  22.893  0.00  0.00    +0.179 C 
ATOM     15  C   UNL     1       0.161   2.196  26.049  0.00  0.00    +0.302 C 
ATOM     25  H   UNL     1       2.193   2.532  26.443  0.00  0.00    +0.150 HD
ENDROOT
BRANCH  10   5
ATOM      5  O   UNL     1      -1.880  -0.668  23.275  0.00  0.00    -0.469 OA
BRANCH   5  17
ATOM      9  N   UNL     1      -3.179   1.250  23.366  0.00  0.00    -0.221 NA
ATOM     17  C   UNL     1      -2.932   0.005  23.832  0.00  0.00    +0.215 A 
ATOM     19  C   UNL     1      -3.676  -0.613  24.824  0.00  0.00    +0.068 A 
ATOM     21  C   UNL     1      -4.741   0.091  25.374  0.00  0.00    +0.019 A 
ATOM     22  C   UNL     1      -5.026   1.375  24.922  0.00  0.00    +0.073 A 
ATOM     23  C   UNL     1      -4.222   1.905  23.925  0.00  0.00    +0.127 A 
BRANCH  22  24
ATOM      1  F   UNL     1      -6.458   1.827  26.784  0.00  0.00    -0.166 F 
ATOM      2  F   UNL     1      -5.943   3.504  25.510  0.00  0.00    -0.166 F 
ATOM      3  F   UNL     1      -7.321   1.982  24.795  0.00  0.00    -0.166 F 
ATOM     24  C   UNL     1      -6.158   2.154  25.491  0.00  0.00    +0.419 C 
ENDBRANCH  22  24
ENDBRANCH   5  17
ENDBRANCH  10   5
BRANCH   8  16
ATOM     16  C   UNL     1       1.132   3.103  28.166  0.00  0.00    +0.105 C 
BRANCH  16  18
ATOM     18  C   UNL     1       2.310   2.710  29.048  0.00  0.00    +0.015 C 
ATOM     20  C   UNL     1       1.879   1.975  30.310  0.00  0.00    +0.005 C 
ENDBRANCH  16  18
ENDBRANCH   8  16
TORSDOF 5
ENDMDL
MODEL 9
REMARK VINA RESULT:       0.1      4.342      7.267
REMARK  Name = 75367644
REMARK  6 active torsions:
REMARK  status: ('A' for Active; 'I' for Inactive)
REMARK    1  A    between atoms: O_5  and  C_10
REMARK    2  A    between atoms: O_5  and  C_17
REMARK    3  A    between atoms: N_8  and  C_16
REMARK    4  A    between atoms: C_16  and  C_18
REMARK    5  A    between atoms: C_18  and  C_20
REMARK    6  A    between atoms: C_22  and  C_24
REMARK                            x       y       z     vdW  Elec       q    Type
REMARK                         _______ _______ _______ _____ _____    ______ ____
ROOT
ATOM      4  O   UNL     1       0.197   2.482  26.105  0.00  0.00    -0.375 OA
ATOM      6  O   UNL     1      -3.954   1.876  23.003  0.00  0.00    -0.253 OA
ATOM      7  N   UNL     1      -2.266   2.818  24.306  0.00  0.00    -0.280 N 
ATOM      8  N   UNL     1      -4.546   3.024  24.908  0.00  0.00    -0.299 N 
ATOM     10  C   UNL     1      -0.384   1.207  24.078  0.00  0.00    +0.218 C 
ATOM     11  C   UNL     1      -1.220   2.303  23.417  0.00  0.00    +0.156 C 
ATOM     12  C   UNL     1      -1.871   3.591  25.494  0.00  0.00    +0.137 C 
ATOM     13  C   UNL     1       0.706   1.756  24.994  0.00  0.00    +0.206 C 
ATOM     14  C   UNL     1      -0.377   3.736  25.753  0.00  0.00    +0.179 C 
ATOM     15  C   UNL     1      -3.617   2.524  23.998  0.00  0.00    +0.302 C 
ATOM     25  H   UNL     1      -4.242   3.566  25.707  0.00  0.00    +0.150 HD
ENDROOT
BRANCH  10   5
ATOM      5  O   UNL     1       0.234   0.445  23.044  0.00  0.00    -0.469 OA
BRANCH   5  17
ATOM      9  N   UNL     1       2.039  -0.939  23.499  0.00  0.00    -0.221 NA
ATOM     17  C   UNL     1       1.590   0.283  23.129  0.00  0.00    +0.215 A 
ATOM     19  C   UNL     1       2.416   1.357  22.838  0.00  0.00    +0.068 A 
ATOM     21  C   UNL     1       3.790   1.165  22.931  0.00  0.00    +0.019 A 
ATOM     22  C   UNL     1       4.290  -0.076  23.309  0.00  0.00    +0.073 A 
ATOM     23  C   UNL     1       3.380  -1.086  23.580  0.00  0.00    +0.127 A 
BRANCH  22  24
ATOM      1  F   UNL     1       6.382  -0.448  22.212  0.00  0.00    -0.166 F 
ATOM      2  F   UNL     1       6.427   0.697  24.054  0.00  0.00    -0.166 F 
ATOM      3  F   UNL     1       6.058  -1.445  24.116  0.00  0.00    -0.166 F 
ATOM     24  C   UNL     1       5.754  -0.311  23.419  0.00  0.00    +0.419 C 
ENDBRANCH  22  24
ENDBRANCH   5  17
ENDBRANCH  10   5
BRANCH   8  16
ATOM     16  C   UNL     1      -5.974   2.832  24.770  0.00  0.00    +0.105 C 
BRANCH  16  18
ATOM     18  C   UNL     1      -6.438   1.499  25.344  0.00  0.00    +0.015 C 
ATOM     20  C   UNL     1      -6.498   1.503  26.866  0.00  0.00    +0.005 C 
ENDBRANCH  16  18
ENDBRANCH   8  16
TORSDOF 5
ENDMDL
MODEL 10
REMARK VINA RESULT:       0.2      4.029      5.188
REMARK  Name = 75367644
REMARK  6 active torsions:
REMARK  status: ('A' for Active; 'I' for Inactive)
REMARK    1  A    between atoms: O_5  and  C_10
REMARK    2  A    between atoms: O_5  and  C_17
REMARK    3  A    between atoms: N_8  and  C_16
REMARK    4  A    between atoms: C_16  and  C_18
REMARK    5  A    between atoms: C_18  and  C_20
REMARK    6  A    between atoms: C_22  and  C_24
REMARK                            x       y       z     vdW  Elec       q    Type
REMARK                         _______ _______ _______ _____ _____    ______ ____
ROOT
ATOM      4  O   UNL     1      -0.952  -1.432  26.413  0.00  0.00    -0.375 OA
ATOM      6  O   UNL     1       0.855   0.316  21.841  0.00  0.00    -0.253 OA
ATOM      7  N   UNL     1       0.423  -1.023  23.701  0.00  0.00    -0.280 N 
ATOM      8  N   UNL     1       2.606  -0.236  23.231  0.00  0.00    -0.299 N 
ATOM     10  C   UNL     1      -1.857  -0.324  24.407  0.00  0.00    +0.218 C 
ATOM     11  C   UNL     1      -1.008  -1.086  23.390  0.00  0.00    +0.156 C 
ATOM     12  C   UNL     1       0.920  -1.717  24.899  0.00  0.00    +0.137 C 
ATOM     13  C   UNL     1      -2.129  -1.124  25.678  0.00  0.00    +0.206 C 
ATOM     14  C   UNL     1      -0.120  -2.398  25.779  0.00  0.00    +0.179 C 
ATOM     15  C   UNL     1       1.266  -0.269  22.848  0.00  0.00    +0.302 C 
ATOM     25  H   UNL     1       2.917  -0.737  24.052  0.00  0.00    +0.150 HD
ENDROOT
BRANCH  10   5
ATOM      5  O   UNL     1      -3.105  -0.015  23.791  0.00  0.00    -0.469 OA
BRANCH   5  17
ATOM      9  N   UNL     1      -3.203   2.302  23.770  0.00  0.00    -0.221 NA
ATOM     17  C   UNL     1      -3.726   1.132  24.204  0.00  0.00    +0.215 A 
ATOM     19  C   UNL     1      -4.836   1.037  25.027  0.00  0.00    +0.068 A 
ATOM     21  C   UNL     1      -5.449   2.217  25.432  0.00  0.00    +0.019 A 
ATOM     22  C   UNL     1      -4.940   3.440  25.009  0.00  0.00    +0.073 A 
ATOM     23  C   UNL     1      -3.825   3.428  24.186  0.00  0.00    +0.127 A 
BRANCH  22  24
ATOM      1  F   UNL     1      -4.915   5.355  26.441  0.00  0.00    -0.166 F 
ATOM      2  F   UNL     1      -5.654   5.646  24.423  0.00  0.00    -0.166 F 
ATOM      3  F   UNL     1      -6.854   4.555  25.871  0.00  0.00    -0.166 F 
ATOM     24  C   UNL     1      -5.574   4.719  25.426  0.00  0.00    +0.419 C 
ENDBRANCH  22  24
ENDBRANCH   5  17
ENDBRANCH  10   5
BRANCH   8  16
ATOM     16  C   UNL     1       3.624   0.479  22.491  0.00  0.00    +0.105 C 
BRANCH  16  18
ATOM     18  C   UNL     1       4.978   0.447  23.187  0.00  0.00    +0.015 C 
ATOM     20  C   UNL     1       5.137  -0.756  24.107  0.00  0.00    +0.005 C 
ENDBRANCH  16  18
ENDBRANCH   8  16
TORSDOF 5
ENDMDL
