MODEL 1
REMARK VINA RESULT:      10.0      0.000      0.000
REMARK  Name = 26762194
REMARK  8 active torsions:
REMARK  status: ('A' for Active; 'I' for Inactive)
REMARK    1  A    between atoms: N_6  and  C_11
REMARK    2  A    between atoms: N_8  and  C_33
REMARK    3  A    between atoms: N_8  and  C_34
REMARK    4  A    between atoms: N_8  and  C_35
REMARK    5  A    between atoms: C_10  and  C_15
REMARK    6  A    between atoms: C_15  and  C_17
REMARK    7  A    between atoms: C_17  and  C_18
REMARK    8  A    between atoms: C_19  and  C_23
REMARK                            x       y       z     vdW  Elec       q    Type
REMARK                         _______ _______ _______ _____ _____    ______ ____
ROOT
ATOM      1  O   UNL     1      -2.259  -3.587  26.170  0.00  0.00    -0.274 OA
ATOM      4  N   UNL     1      -3.576  -1.007  23.975  0.00  0.00    -0.285 NA
ATOM      5  N   UNL     1      -3.570  -1.795  26.666  0.00  0.00    -0.313 N 
ATOM      9  C   UNL     1      -3.136  -2.369  24.288  0.00  0.00    +0.145 C 
ATOM     10  C   UNL     1      -4.646  -0.530  24.845  0.00  0.00    +0.075 C 
ATOM     11  C   UNL     1      -1.444  -1.099  23.080  0.00  0.00    +0.089 C 
ATOM     12  C   UNL     1      -1.832  -2.521  23.495  0.00  0.00    +0.052 C 
ATOM     13  C   UNL     1      -2.369  -0.192  23.881  0.00  0.00    +0.107 C 
ATOM     14  C   UNL     1      -4.223  -0.555  26.308  0.00  0.00    +0.123 C 
ATOM     16  C   UNL     1      -2.921  -2.622  25.778  0.00  0.00    +0.230 C 
ATOM     36  H   UNL     1      -3.458  -1.993  27.655  0.00  0.00    +0.149 HD
ENDROOT
BRANCH  11   6
ATOM      3  O   UNL     1       0.551  -0.610  21.079  0.00  0.00    -0.270 OA
ATOM      6  N   UNL     1      -0.056  -0.806  23.309  0.00  0.00    -0.307 N 
ATOM     19  C   UNL     1       0.840  -0.584  22.272  0.00  0.00    +0.244 C 
ATOM     37  H   UNL     1       0.279  -0.879  24.264  0.00  0.00    +0.149 HD
BRANCH  19  23
ATOM     23  C   UNL     1       2.246  -0.320  22.673  0.00  0.00    +0.037 A 
ATOM     27  C   UNL     1       2.841   0.903  22.363  0.00  0.00    +0.015 A 
ATOM     28  C   UNL     1       2.971  -1.296  23.356  0.00  0.00    +0.015 A 
ATOM     31  C   UNL     1       4.162   1.151  22.737  0.00  0.00    +0.024 A 
ATOM     32  C   UNL     1       4.293  -1.048  23.730  0.00  0.00    +0.024 A 
ATOM     33  C   UNL     1       4.887   0.174  23.421  0.00  0.00    +0.029 A 
BRANCH  33   8
ATOM      8  N   UNL     1       6.223   0.423  23.800  0.00  0.00    -0.336 N 
ATOM     34  C   UNL     1       7.287  -0.459  23.361  0.00  0.00    +0.129 C 
ATOM     35  C   UNL     1       6.550   1.569  24.626  0.00  0.00    +0.129 C 
ENDBRANCH  33   8
ENDBRANCH  19  23
ENDBRANCH  11   6
BRANCH  10  15
ATOM     15  C   UNL     1      -5.153   0.856  24.444  0.00  0.00    +0.029 C 
BRANCH  15  17
ATOM     17  C   UNL     1      -5.295   1.789  25.637  0.00  0.00    +0.098 C 
BRANCH  17  18
ATOM      2  O   UNL     1      -5.282   4.121  25.213  0.00  0.00    -0.275 OA
ATOM      7  N   UNL     1      -3.217   3.043  25.356  0.00  0.00    -0.271 N 
ATOM     18  C   UNL     1      -4.604   3.108  25.379  0.00  0.00    +0.220 C 
ATOM     20  C   UNL     1      -2.405   1.824  25.558  0.00  0.00    +0.118 C 
ATOM     21  C   UNL     1      -2.342   4.127  25.137  0.00  0.00    +0.039 A 
ATOM     22  C   UNL     1      -0.929   2.224  25.455  0.00  0.00    +0.056 C 
ATOM     24  C   UNL     1      -1.017   3.690  25.186  0.00  0.00    -0.024 A 
ATOM     25  C   UNL     1      -2.637   5.462  24.898  0.00  0.00    +0.024 A 
ATOM     26  C   UNL     1       0.040   4.569  25.000  0.00  0.00    +0.005 A 
ATOM     29  C   UNL     1      -1.578   6.355  24.709  0.00  0.00    +0.002 A 
ATOM     30  C   UNL     1      -0.248   5.912  24.759  0.00  0.00    +0.000 A 
ENDBRANCH  17  18
ENDBRANCH  15  17
ENDBRANCH  10  15
TORSDOF 6
ENDMDL
MODEL 2
REMARK VINA RESULT:      11.1      1.926      4.598
REMARK  Name = 26762194
REMARK  8 active torsions:
REMARK  status: ('A' for Active; 'I' for Inactive)
REMARK    1  A    between atoms: N_6  and  C_11
REMARK    2  A    between atoms: N_8  and  C_33
REMARK    3  A    between atoms: N_8  and  C_34
REMARK    4  A    between atoms: N_8  and  C_35
REMARK    5  A    between atoms: C_10  and  C_15
REMARK    6  A    between atoms: C_15  and  C_17
REMARK    7  A    between atoms: C_17  and  C_18
REMARK    8  A    between atoms: C_19  and  C_23
REMARK                            x       y       z     vdW  Elec       q    Type
REMARK                         _______ _______ _______ _____ _____    ______ ____
ROOT
ATOM      1  O   UNL     1      -0.418   3.103  27.823  0.00  0.00    -0.274 OA
ATOM      4  N   UNL     1      -2.009   2.618  24.592  0.00  0.00    -0.285 NA
ATOM      5  N   UNL     1      -1.230   4.647  26.363  0.00  0.00    -0.313 N 
ATOM      9  C   UNL     1      -1.685   2.237  25.970  0.00  0.00    +0.145 C 
ATOM     10  C   UNL     1      -2.657   3.922  24.490  0.00  0.00    +0.075 C 
ATOM     11  C   UNL     1      -0.324   1.054  24.332  0.00  0.00    +0.089 C 
ATOM     12  C   UNL     1      -0.749   1.034  25.803  0.00  0.00    +0.052 C 
ATOM     13  C   UNL     1      -0.799   2.402  23.805  0.00  0.00    +0.107 C 
ATOM     14  C   UNL     1      -1.785   5.021  25.080  0.00  0.00    +0.123 C 
ATOM     16  C   UNL     1      -1.030   3.352  26.781  0.00  0.00    +0.230 C 
ATOM     36  H   UNL     1      -0.828   5.388  26.930  0.00  0.00    +0.149 HD
ENDROOT
BRANCH  11   6
ATOM      3  O   UNL     1       0.937  -0.614  22.369  0.00  0.00    -0.270 OA
ATOM      6  N   UNL     1       1.088   0.861  24.152  0.00  0.00    -0.307 N 
ATOM     19  C   UNL     1       1.609   0.029  23.171  0.00  0.00    +0.244 C 
ATOM     37  H   UNL     1       1.701   1.273  24.848  0.00  0.00    +0.149 HD
BRANCH  19  23
ATOM     23  C   UNL     1       3.090  -0.084  23.131  0.00  0.00    +0.037 A 
ATOM     27  C   UNL     1       3.718  -1.207  23.668  0.00  0.00    +0.015 A 
ATOM     28  C   UNL     1       3.851   0.936  22.560  0.00  0.00    +0.015 A 
ATOM     31  C   UNL     1       5.108  -1.313  23.633  0.00  0.00    +0.024 A 
ATOM     32  C   UNL     1       5.242   0.831  22.525  0.00  0.00    +0.024 A 
ATOM     33  C   UNL     1       5.870  -0.293  23.061  0.00  0.00    +0.029 A 
BRANCH  33   8
ATOM      8  N   UNL     1       7.276  -0.398  23.025  0.00  0.00    -0.336 N 
ATOM     34  C   UNL     1       7.913  -1.470  22.285  0.00  0.00    +0.129 C 
ATOM     35  C   UNL     1       8.103   0.568  23.720  0.00  0.00    +0.129 C 
ENDBRANCH  33   8
ENDBRANCH  19  23
ENDBRANCH  11   6
BRANCH  10  15
ATOM     15  C   UNL     1      -3.069   4.260  23.056  0.00  0.00    +0.029 C 
BRANCH  15  17
ATOM     17  C   UNL     1      -4.025   3.231  22.470  0.00  0.00    +0.098 C 
BRANCH  17  18
ATOM      2  O   UNL     1      -2.672   1.418  21.762  0.00  0.00    -0.275 OA
ATOM      7  N   UNL     1      -3.925   1.128  23.709  0.00  0.00    -0.271 N 
ATOM     18  C   UNL     1      -3.467   1.833  22.605  0.00  0.00    +0.220 C 
ATOM     20  C   UNL     1      -4.880   1.630  24.721  0.00  0.00    +0.118 C 
ATOM     21  C   UNL     1      -3.560  -0.189  24.060  0.00  0.00    +0.039 A 
ATOM     22  C   UNL     1      -5.090   0.520  25.756  0.00  0.00    +0.056 C 
ATOM     24  C   UNL     1      -4.214  -0.571  25.233  0.00  0.00    -0.024 A 
ATOM     25  C   UNL     1      -2.696  -1.063  23.416  0.00  0.00    +0.024 A 
ATOM     26  C   UNL     1      -4.022  -1.826  25.789  0.00  0.00    +0.005 A 
ATOM     29  C   UNL     1      -2.497  -2.332  23.970  0.00  0.00    +0.002 A 
ATOM     30  C   UNL     1      -3.155  -2.711  25.148  0.00  0.00    +0.000 A 
ENDBRANCH  17  18
ENDBRANCH  15  17
ENDBRANCH  10  15
TORSDOF 6
ENDMDL
MODEL 3
REMARK VINA RESULT:      11.6      2.136      5.276
REMARK  Name = 26762194
REMARK  8 active torsions:
REMARK  status: ('A' for Active; 'I' for Inactive)
REMARK    1  A    between atoms: N_6  and  C_11
REMARK    2  A    between atoms: N_8  and  C_33
REMARK    3  A    between atoms: N_8  and  C_34
REMARK    4  A    between atoms: N_8  and  C_35
REMARK    5  A    between atoms: C_10  and  C_15
REMARK    6  A    between atoms: C_15  and  C_17
REMARK    7  A    between atoms: C_17  and  C_18
REMARK    8  A    between atoms: C_19  and  C_23
REMARK                            x       y       z     vdW  Elec       q    Type
REMARK                         _______ _______ _______ _____ _____    ______ ____
ROOT
ATOM      1  O   UNL     1      -1.917   6.224  23.419  0.00  0.00    -0.274 OA
ATOM      4  N   UNL     1      -3.590   4.195  25.927  0.00  0.00    -0.285 NA
ATOM      5  N   UNL     1      -3.880   5.082  23.283  0.00  0.00    -0.313 N 
ATOM      9  C   UNL     1      -2.751   5.311  25.484  0.00  0.00    +0.145 C 
ATOM     10  C   UNL     1      -4.924   4.203  25.335  0.00  0.00    +0.075 C 
ATOM     11  C   UNL     1      -1.440   3.433  26.315  0.00  0.00    +0.089 C 
ATOM     12  C   UNL     1      -1.346   4.919  25.958  0.00  0.00    +0.052 C 
ATOM     13  C   UNL     1      -2.789   2.985  25.769  0.00  0.00    +0.107 C 
ATOM     14  C   UNL     1      -4.855   4.155  23.815  0.00  0.00    +0.123 C 
ATOM     16  C   UNL     1      -2.789   5.554  23.977  0.00  0.00    +0.230 C 
ATOM     36  H   UNL     1      -3.921   5.282  22.288  0.00  0.00    +0.149 HD
ENDROOT
BRANCH  11   6
ATOM      3  O   UNL     1      -0.923   2.873  23.550  0.00  0.00    -0.270 OA
ATOM      6  N   UNL     1      -0.350   2.659  25.787  0.00  0.00    -0.307 N 
ATOM     19  C   UNL     1      -0.181   2.439  24.427  0.00  0.00    +0.244 C 
ATOM     37  H   UNL     1       0.239   2.177  26.458  0.00  0.00    +0.149 HD
BRANCH  19  23
ATOM     23  C   UNL     1       0.980   1.596  24.044  0.00  0.00    +0.037 A 
ATOM     27  C   UNL     1       2.145   2.191  23.560  0.00  0.00    +0.015 A 
ATOM     28  C   UNL     1       0.904   0.208  24.166  0.00  0.00    +0.015 A 
ATOM     31  C   UNL     1       3.235   1.399  23.199  0.00  0.00    +0.024 A 
ATOM     32  C   UNL     1       1.994  -0.584  23.803  0.00  0.00    +0.024 A 
ATOM     33  C   UNL     1       3.159   0.011  23.321  0.00  0.00    +0.029 A 
BRANCH  33   8
ATOM      8  N   UNL     1       4.260  -0.791  22.955  0.00  0.00    -0.336 N 
ATOM     34  C   UNL     1       5.271  -0.280  22.050  0.00  0.00    +0.129 C 
ATOM     35  C   UNL     1       4.399  -2.133  23.486  0.00  0.00    +0.129 C 
ENDBRANCH  33   8
ENDBRANCH  19  23
ENDBRANCH  11   6
BRANCH  10  15
ATOM     15  C   UNL     1      -5.813   3.084  25.880  0.00  0.00    +0.029 C 
BRANCH  15  17
ATOM     17  C   UNL     1      -6.007   1.957  24.877  0.00  0.00    +0.098 C 
BRANCH  17  18
ATOM      2  O   UNL     1      -5.719   0.113  26.337  0.00  0.00    -0.275 OA
ATOM      7  N   UNL     1      -4.235   0.309  24.547  0.00  0.00    -0.271 N 
ATOM     18  C   UNL     1      -5.310   0.697  25.335  0.00  0.00    +0.220 C 
ATOM     20  C   UNL     1      -3.745   1.013  23.343  0.00  0.00    +0.118 C 
ATOM     21  C   UNL     1      -3.421  -0.824  24.759  0.00  0.00    +0.039 A 
ATOM     22  C   UNL     1      -2.550   0.226  22.795  0.00  0.00    +0.056 C 
ATOM     24  C   UNL     1      -2.440  -0.901  23.769  0.00  0.00    -0.024 A 
ATOM     25  C   UNL     1      -3.491  -1.783  25.760  0.00  0.00    +0.024 A 
ATOM     26  C   UNL     1      -1.510  -1.930  23.753  0.00  0.00    +0.005 A 
ATOM     29  C   UNL     1      -2.557  -2.823  25.752  0.00  0.00    +0.002 A 
ATOM     30  C   UNL     1      -1.573  -2.897  24.756  0.00  0.00    +0.000 A 
ENDBRANCH  17  18
ENDBRANCH  15  17
ENDBRANCH  10  15
TORSDOF 6
ENDMDL
MODEL 4
REMARK VINA RESULT:      12.4      2.132      2.904
REMARK  Name = 26762194
REMARK  8 active torsions:
REMARK  status: ('A' for Active; 'I' for Inactive)
REMARK    1  A    between atoms: N_6  and  C_11
REMARK    2  A    between atoms: N_8  and  C_33
REMARK    3  A    between atoms: N_8  and  C_34
REMARK    4  A    between atoms: N_8  and  C_35
REMARK    5  A    between atoms: C_10  and  C_15
REMARK    6  A    between atoms: C_15  and  C_17
REMARK    7  A    between atoms: C_17  and  C_18
REMARK    8  A    between atoms: C_19  and  C_23
REMARK                            x       y       z     vdW  Elec       q    Type
REMARK                         _______ _______ _______ _____ _____    ______ ____
ROOT
ATOM      1  O   UNL     1      -3.377  -2.035  24.256  0.00  0.00    -0.274 OA
ATOM      4  N   UNL     1      -3.985   1.518  23.789  0.00  0.00    -0.285 NA
ATOM      5  N   UNL     1      -4.053  -0.471  25.764  0.00  0.00    -0.313 N 
ATOM      9  C   UNL     1      -3.959   0.119  23.353  0.00  0.00    +0.145 C 
ATOM     10  C   UNL     1      -4.806   1.739  24.976  0.00  0.00    +0.075 C 
ATOM     11  C   UNL     1      -2.040   1.383  22.544  0.00  0.00    +0.089 C 
ATOM     12  C   UNL     1      -2.813   0.078  22.335  0.00  0.00    +0.052 C 
ATOM     13  C   UNL     1      -2.596   1.965  23.837  0.00  0.00    +0.107 C 
ATOM     14  C   UNL     1      -4.322   0.898  26.149  0.00  0.00    +0.123 C 
ATOM     16  C   UNL     1      -3.740  -0.878  24.488  0.00  0.00    +0.230 C 
ATOM     36  H   UNL     1      -3.945  -1.151  26.510  0.00  0.00    +0.149 HD
ENDROOT
BRANCH  11   6
ATOM      3  O   UNL     1      -0.647  -0.683  23.964  0.00  0.00    -0.270 OA
ATOM      6  N   UNL     1      -0.617   1.190  22.597  0.00  0.00    -0.307 N 
ATOM     19  C   UNL     1      -0.030   0.157  23.315  0.00  0.00    +0.244 C 
ATOM     37  H   UNL     1      -0.039   1.911  22.177  0.00  0.00    +0.149 HD
BRANCH  19  23
ATOM     23  C   UNL     1       1.454   0.110  23.291  0.00  0.00    +0.037 A 
ATOM     27  C   UNL     1       2.118  -1.083  23.577  0.00  0.00    +0.015 A 
ATOM     28  C   UNL     1       2.184   1.259  22.987  0.00  0.00    +0.015 A 
ATOM     31  C   UNL     1       3.512  -1.128  23.557  0.00  0.00    +0.024 A 
ATOM     32  C   UNL     1       3.578   1.214  22.967  0.00  0.00    +0.024 A 
ATOM     33  C   UNL     1       4.242   0.022  23.251  0.00  0.00    +0.029 A 
BRANCH  33   8
ATOM      8  N   UNL     1       5.651  -0.022  23.231  0.00  0.00    -0.336 N 
ATOM     34  C   UNL     1       6.425   0.856  24.087  0.00  0.00    +0.129 C 
ATOM     35  C   UNL     1       6.344  -0.951  22.359  0.00  0.00    +0.129 C 
ENDBRANCH  33   8
ENDBRANCH  19  23
ENDBRANCH  11   6
BRANCH  10  15
ATOM     15  C   UNL     1      -4.894   3.217  25.360  0.00  0.00    +0.029 C 
BRANCH  15  17
ATOM     17  C   UNL     1      -3.536   3.901  25.347  0.00  0.00    +0.098 C 
BRANCH  17  18
ATOM      2  O   UNL     1      -3.430   3.886  27.715  0.00  0.00    -0.275 OA
ATOM      7  N   UNL     1      -1.487   3.330  26.548  0.00  0.00    -0.271 N 
ATOM     18  C   UNL     1      -2.818   3.707  26.662  0.00  0.00    +0.220 C 
ATOM     20  C   UNL     1      -0.754   3.115  25.282  0.00  0.00    +0.118 C 
ATOM     21  C   UNL     1      -0.601   3.088  27.619  0.00  0.00    +0.039 A 
ATOM     22  C   UNL     1       0.680   2.705  25.635  0.00  0.00    +0.056 C 
ATOM     24  C   UNL     1       0.656   2.727  27.129  0.00  0.00    -0.024 A 
ATOM     25  C   UNL     1      -0.830   3.165  28.985  0.00  0.00    +0.024 A 
ATOM     26  C   UNL     1       1.707   2.434  27.984  0.00  0.00    +0.005 A 
ATOM     29  C   UNL     1       0.224   2.872  29.856  0.00  0.00    +0.002 A 
ATOM     30  C   UNL     1       1.484   2.510  29.359  0.00  0.00    +0.000 A 
ENDBRANCH  17  18
ENDBRANCH  15  17
ENDBRANCH  10  15
TORSDOF 6
ENDMDL
