MODEL 1
REMARK VINA RESULT:      -1.8      0.000      0.000
REMARK  Name = 45783438
REMARK  10 active torsions:
REMARK  status: ('A' for Active; 'I' for Inactive)
REMARK    1  A    between atoms: O_2  and  C_24
REMARK    2  A    between atoms: O_2  and  C_28
REMARK    3  A    between atoms: O_3  and  C_29
REMARK    4  A    between atoms: O_3  and  C_30
REMARK    5  A    between atoms: N_4  and  C_13
REMARK    6  A    between atoms: C_9  and  C_14
REMARK    7  A    between atoms: C_13  and  C_15
REMARK    8  A    between atoms: C_18  and  C_21
REMARK    9  A    between atoms: C_22  and  C_25
REMARK   10  A    between atoms: C_28  and  C_29
REMARK                            x       y       z     vdW  Elec       q    Type
REMARK                         _______ _______ _______ _____ _____    ______ ____
ROOT
ATOM      1  O   UNL     1      -2.247   2.975  25.611  0.00  0.00    -0.336 OA
ATOM      5  N   UNL     1      -2.236   1.990  23.599  0.00  0.00    -0.189 NA
ATOM      6  N   UNL     1      -0.965   2.433  25.450  0.00  0.00    -0.054 NA
ATOM     14  C   UNL     1      -2.930   2.670  24.477  0.00  0.00    +0.245 A 
ATOM     18  C   UNL     1      -1.038   1.869  24.240  0.00  0.00    +0.221 A 
ENDROOT
BRANCH  18  21
ATOM      7  N   UNL     1      -0.231   0.004  23.041  0.00  0.00    -0.252 NA
ATOM     21  C   UNL     1       0.068   1.175  23.646  0.00  0.00    +0.115 A 
ATOM     23  C   UNL     1       1.345   1.710  23.713  0.00  0.00    +0.077 A 
ATOM     24  C   UNL     1       2.381   0.995  23.120  0.00  0.00    +0.124 A 
ATOM     26  C   UNL     1       0.801  -0.661  22.475  0.00  0.00    +0.115 A 
ATOM     27  C   UNL     1       2.111  -0.214  22.487  0.00  0.00    +0.065 A 
BRANCH  24   2
ATOM      2  O   UNL     1       3.652   1.478  23.158  0.00  0.00    -0.490 OA
BRANCH   2  28
ATOM     28  C   UNL     1       4.699   0.584  22.781  0.00  0.00    +0.257 C 
BRANCH  28  29
ATOM     29  C   UNL     1       5.698   0.486  23.918  0.00  0.00    +0.200 C 
BRANCH  29   3
ATOM      3  O   UNL     1       5.422  -0.683  24.679  0.00  0.00    -0.380 OA
ATOM     30  C   UNL     1       4.826  -1.696  23.880  0.00  0.00    +0.194 C 
ENDBRANCH  29   3
ENDBRANCH  28  29
ENDBRANCH   2  28
ENDBRANCH  24   2
ENDBRANCH  18  21
BRANCH  14   9
ATOM      4  N   UNL     1      -5.213   2.582  25.463  0.00  0.00    -0.287 NA
ATOM      9  C   UNL     1      -4.363   3.154  24.400  0.00  0.00    +0.146 C 
ATOM     10  C   UNL     1      -4.486   4.678  24.580  0.00  0.00    +0.030 C 
ATOM     11  C   UNL     1      -5.471   4.867  25.724  0.00  0.00    +0.017 C 
ATOM     12  C   UNL     1      -6.256   3.571  25.735  0.00  0.00    +0.085 C 
BRANCH   4  13
ATOM     13  C   UNL     1      -5.769   1.281  25.116  0.00  0.00    +0.120 C 
BRANCH  13  15
ATOM     15  C   UNL     1      -4.701   0.225  25.011  0.00  0.00    -0.033 A 
ATOM     16  C   UNL     1      -4.572  -0.523  23.840  0.00  0.00    +0.006 A 
ATOM     17  C   UNL     1      -3.839  -0.006  26.083  0.00  0.00    +0.006 A 
ATOM     19  C   UNL     1      -3.582  -1.501  23.742  0.00  0.00    +0.019 A 
ATOM     20  C   UNL     1      -2.849  -0.984  25.985  0.00  0.00    +0.019 A 
ATOM     22  C   UNL     1      -2.720  -1.732  24.815  0.00  0.00    +0.052 A 
BRANCH  22  25
ATOM      8  N   UNL     1      -0.883  -3.547  24.634  0.00  0.00    -0.191 NA
ATOM     25  C   UNL     1      -1.707  -2.733  24.714  0.00  0.00    +0.099 C 
ENDBRANCH  22  25
ENDBRANCH  13  15
ENDBRANCH   4  13
ENDBRANCH  14   9
TORSDOF 9
ENDMDL
MODEL 2
REMARK VINA RESULT:      -0.1      1.788      4.086
REMARK  Name = 45783438
REMARK  10 active torsions:
REMARK  status: ('A' for Active; 'I' for Inactive)
REMARK    1  A    between atoms: O_2  and  C_24
REMARK    2  A    between atoms: O_2  and  C_28
REMARK    3  A    between atoms: O_3  and  C_29
REMARK    4  A    between atoms: O_3  and  C_30
REMARK    5  A    between atoms: N_4  and  C_13
REMARK    6  A    between atoms: C_9  and  C_14
REMARK    7  A    between atoms: C_13  and  C_15
REMARK    8  A    between atoms: C_18  and  C_21
REMARK    9  A    between atoms: C_22  and  C_25
REMARK   10  A    between atoms: C_28  and  C_29
REMARK                            x       y       z     vdW  Elec       q    Type
REMARK                         _______ _______ _______ _____ _____    ______ ____
ROOT
ATOM      1  O   UNL     1      -1.460   0.215  25.711  0.00  0.00    -0.336 OA
ATOM      5  N   UNL     1      -1.100  -0.853  23.775  0.00  0.00    -0.189 NA
ATOM      6  N   UNL     1      -0.213   0.657  25.248  0.00  0.00    -0.054 NA
ATOM     14  C   UNL     1      -1.913  -0.671  24.786  0.00  0.00    +0.245 A 
ATOM     18  C   UNL     1      -0.072  -0.019  24.103  0.00  0.00    +0.221 A 
ENDROOT
BRANCH  18  21
ATOM      7  N   UNL     1       0.999  -0.466  22.049  0.00  0.00    -0.252 NA
ATOM     21  C   UNL     1       1.085   0.117  23.266  0.00  0.00    +0.115 A 
ATOM     23  C   UNL     1       2.197   0.810  23.717  0.00  0.00    +0.077 A 
ATOM     24  C   UNL     1       3.291   0.911  22.864  0.00  0.00    +0.124 A 
ATOM     26  C   UNL     1       2.081  -0.346  21.248  0.00  0.00    +0.115 A 
ATOM     27  C   UNL     1       3.239   0.324  21.604  0.00  0.00    +0.065 A 
BRANCH  24   2
ATOM      2  O   UNL     1       4.406   1.581  23.261  0.00  0.00    -0.490 OA
BRANCH   2  28
ATOM     28  C   UNL     1       5.604   0.820  23.411  0.00  0.00    +0.257 C 
BRANCH  28  29
ATOM     29  C   UNL     1       5.440  -0.135  24.578  0.00  0.00    +0.200 C 
BRANCH  29   3
ATOM      3  O   UNL     1       5.564  -1.471  24.106  0.00  0.00    -0.380 OA
ATOM     30  C   UNL     1       4.293  -2.087  23.947  0.00  0.00    +0.194 C 
ENDBRANCH  29   3
ENDBRANCH  28  29
ENDBRANCH   2  28
ENDBRANCH  24   2
ENDBRANCH  18  21
BRANCH  14   9
ATOM      4  N   UNL     1      -4.311  -0.814  24.137  0.00  0.00    -0.287 NA
ATOM      9  C   UNL     1      -3.263  -1.299  25.057  0.00  0.00    +0.146 C 
ATOM     10  C   UNL     1      -3.256  -2.828  24.870  0.00  0.00    +0.030 C 
ATOM     11  C   UNL     1      -4.371  -3.112  23.874  0.00  0.00    +0.017 C 
ATOM     12  C   UNL     1      -5.277  -1.904  23.999  0.00  0.00    +0.085 C 
BRANCH   4  13
ATOM     13  C   UNL     1      -4.939   0.422  24.583  0.00  0.00    +0.120 C 
BRANCH  13  15
ATOM     15  C   UNL     1      -3.967   1.571  24.602  0.00  0.00    -0.033 A 
ATOM     16  C   UNL     1      -3.846   2.365  25.742  0.00  0.00    +0.006 A 
ATOM     17  C   UNL     1      -3.184   1.842  23.479  0.00  0.00    +0.006 A 
ATOM     19  C   UNL     1      -2.944   3.429  25.760  0.00  0.00    +0.019 A 
ATOM     20  C   UNL     1      -2.283   2.906  23.496  0.00  0.00    +0.019 A 
ATOM     22  C   UNL     1      -2.162   3.700  24.637  0.00  0.00    +0.052 A 
BRANCH  22  25
ATOM      8  N   UNL     1      -0.489   5.675  24.668  0.00  0.00    -0.191 NA
ATOM     25  C   UNL     1      -1.239   4.789  24.655  0.00  0.00    +0.099 C 
ENDBRANCH  22  25
ENDBRANCH  13  15
ENDBRANCH   4  13
ENDBRANCH  14   9
TORSDOF 9
ENDMDL
MODEL 3
REMARK VINA RESULT:       0.6      1.376      1.762
REMARK  Name = 45783438
REMARK  10 active torsions:
REMARK  status: ('A' for Active; 'I' for Inactive)
REMARK    1  A    between atoms: O_2  and  C_24
REMARK    2  A    between atoms: O_2  and  C_28
REMARK    3  A    between atoms: O_3  and  C_29
REMARK    4  A    between atoms: O_3  and  C_30
REMARK    5  A    between atoms: N_4  and  C_13
REMARK    6  A    between atoms: C_9  and  C_14
REMARK    7  A    between atoms: C_13  and  C_15
REMARK    8  A    between atoms: C_18  and  C_21
REMARK    9  A    between atoms: C_22  and  C_25
REMARK   10  A    between atoms: C_28  and  C_29
REMARK                            x       y       z     vdW  Elec       q    Type
REMARK                         _______ _______ _______ _____ _____    ______ ____
ROOT
ATOM      1  O   UNL     1      -0.716   2.987  25.911  0.00  0.00    -0.336 OA
ATOM      5  N   UNL     1      -0.889   2.627  23.707  0.00  0.00    -0.189 NA
ATOM      6  N   UNL     1       0.337   2.126  25.574  0.00  0.00    -0.054 NA
ATOM     14  C   UNL     1      -1.388   3.232  24.756  0.00  0.00    +0.245 A 
ATOM     18  C   UNL     1       0.167   1.961  24.258  0.00  0.00    +0.221 A 
ENDROOT
BRANCH  18  21
ATOM      7  N   UNL     1       0.435   0.114  22.815  0.00  0.00    -0.252 NA
ATOM     21  C   UNL     1       1.034   1.136  23.467  0.00  0.00    +0.115 A 
ATOM     23  C   UNL     1       2.392   1.407  23.406  0.00  0.00    +0.077 A 
ATOM     24  C   UNL     1       3.186   0.574  22.624  0.00  0.00    +0.124 A 
ATOM     26  C   UNL     1       1.239  -0.672  22.064  0.00  0.00    +0.115 A 
ATOM     27  C   UNL     1       2.606  -0.487  21.938  0.00  0.00    +0.065 A 
BRANCH  24   2
ATOM      2  O   UNL     1       4.524   0.799  22.531  0.00  0.00    -0.490 OA
BRANCH   2  28
ATOM     28  C   UNL     1       5.257   0.876  23.753  0.00  0.00    +0.257 C 
BRANCH  28  29
ATOM     29  C   UNL     1       5.359  -0.512  24.357  0.00  0.00    +0.200 C 
BRANCH  29   3
ATOM      3  O   UNL     1       6.021  -1.371  23.437  0.00  0.00    -0.380 OA
ATOM     30  C   UNL     1       7.194  -0.764  22.910  0.00  0.00    +0.194 C 
ENDBRANCH  29   3
ENDBRANCH  28  29
ENDBRANCH   2  28
ENDBRANCH  24   2
ENDBRANCH  18  21
BRANCH  14   9
ATOM      4  N   UNL     1      -3.776   3.476  25.412  0.00  0.00    -0.287 NA
ATOM      9  C   UNL     1      -2.587   4.150  24.853  0.00  0.00    +0.146 C 
ATOM     10  C   UNL     1      -2.343   5.349  25.789  0.00  0.00    +0.030 C 
ATOM     11  C   UNL     1      -3.477   5.301  26.802  0.00  0.00    +0.017 C 
ATOM     12  C   UNL     1      -4.556   4.509  26.092  0.00  0.00    +0.085 C 
BRANCH   4  13
ATOM     13  C   UNL     1      -4.560   2.769  24.407  0.00  0.00    +0.120 C 
BRANCH  13  15
ATOM     15  C   UNL     1      -4.270   1.292  24.407  0.00  0.00    -0.033 A 
ATOM     16  C   UNL     1      -4.519   0.531  25.549  0.00  0.00    +0.006 A 
ATOM     17  C   UNL     1      -3.754   0.682  23.263  0.00  0.00    +0.006 A 
ATOM     19  C   UNL     1      -4.252  -0.838  25.548  0.00  0.00    +0.019 A 
ATOM     20  C   UNL     1      -3.487  -0.687  23.262  0.00  0.00    +0.019 A 
ATOM     22  C   UNL     1      -3.736  -1.447  24.405  0.00  0.00    +0.052 A 
BRANCH  22  25
ATOM      8  N   UNL     1      -3.240  -3.988  24.402  0.00  0.00    -0.191 NA
ATOM     25  C   UNL     1      -3.462  -2.849  24.404  0.00  0.00    +0.099 C 
ENDBRANCH  22  25
ENDBRANCH  13  15
ENDBRANCH   4  13
ENDBRANCH  14   9
TORSDOF 9
ENDMDL
MODEL 4
REMARK VINA RESULT:       1.9      1.040      1.469
REMARK  Name = 45783438
REMARK  10 active torsions:
REMARK  status: ('A' for Active; 'I' for Inactive)
REMARK    1  A    between atoms: O_2  and  C_24
REMARK    2  A    between atoms: O_2  and  C_28
REMARK    3  A    between atoms: O_3  and  C_29
REMARK    4  A    between atoms: O_3  and  C_30
REMARK    5  A    between atoms: N_4  and  C_13
REMARK    6  A    between atoms: C_9  and  C_14
REMARK    7  A    between atoms: C_13  and  C_15
REMARK    8  A    between atoms: C_18  and  C_21
REMARK    9  A    between atoms: C_22  and  C_25
REMARK   10  A    between atoms: C_28  and  C_29
REMARK                            x       y       z     vdW  Elec       q    Type
REMARK                         _______ _______ _______ _____ _____    ______ ____
ROOT
ATOM      1  O   UNL     1      -3.362   2.552  22.361  0.00  0.00    -0.336 OA
ATOM      5  N   UNL     1      -2.384   1.908  24.271  0.00  0.00    -0.189 NA
ATOM      6  N   UNL     1      -2.147   1.957  21.995  0.00  0.00    -0.054 NA
ATOM     14  C   UNL     1      -3.423   2.481  23.716  0.00  0.00    +0.245 A 
ATOM     18  C   UNL     1      -1.629   1.604  23.175  0.00  0.00    +0.221 A 
ENDROOT
BRANCH  18  21
ATOM      7  N   UNL     1      -0.406  -0.392  23.467  0.00  0.00    -0.252 NA
ATOM     21  C   UNL     1      -0.359   0.948  23.294  0.00  0.00    +0.115 A 
ATOM     23  C   UNL     1       0.815   1.682  23.231  0.00  0.00    +0.077 A 
ATOM     24  C   UNL     1       2.019   0.995  23.352  0.00  0.00    +0.124 A 
ATOM     26  C   UNL     1       0.784  -1.025  23.580  0.00  0.00    +0.115 A 
ATOM     27  C   UNL     1       2.010  -0.384  23.530  0.00  0.00    +0.065 A 
BRANCH  24   2
ATOM      2  O   UNL     1       3.198   1.670  23.296  0.00  0.00    -0.490 OA
BRANCH   2  28
ATOM     28  C   UNL     1       4.274   1.042  22.600  0.00  0.00    +0.257 C 
BRANCH  28  29
ATOM     29  C   UNL     1       5.345   0.646  23.598  0.00  0.00    +0.200 C 
BRANCH  29   3
ATOM      3  O   UNL     1       5.823  -0.654  23.274  0.00  0.00    -0.380 OA
ATOM     30  C   UNL     1       5.202  -1.651  24.074  0.00  0.00    +0.194 C 
ENDBRANCH  29   3
ENDBRANCH  28  29
ENDBRANCH   2  28
ENDBRANCH  24   2
ENDBRANCH  18  21
BRANCH  14   9
ATOM      4  N   UNL     1      -4.887   2.534  25.728  0.00  0.00    -0.287 NA
ATOM      9  C   UNL     1      -4.659   3.063  24.368  0.00  0.00    +0.146 C 
ATOM     10  C   UNL     1      -4.572   4.589  24.552  0.00  0.00    +0.030 C 
ATOM     11  C   UNL     1      -4.823   4.827  26.034  0.00  0.00    +0.017 C 
ATOM     12  C   UNL     1      -5.578   3.587  26.471  0.00  0.00    +0.085 C 
BRANCH   4  13
ATOM     13  C   UNL     1      -5.627   1.279  25.740  0.00  0.00    +0.120 C 
BRANCH  13  15
ATOM     15  C   UNL     1      -4.775   0.121  25.292  0.00  0.00    -0.033 A 
ATOM     16  C   UNL     1      -3.750  -0.350  26.112  0.00  0.00    +0.006 A 
ATOM     17  C   UNL     1      -5.012  -0.483  24.057  0.00  0.00    +0.006 A 
ATOM     19  C   UNL     1      -2.962  -1.423  25.697  0.00  0.00    +0.019 A 
ATOM     20  C   UNL     1      -4.225  -1.556  23.642  0.00  0.00    +0.019 A 
ATOM     22  C   UNL     1      -3.199  -2.027  24.462  0.00  0.00    +0.052 A 
BRANCH  22  25
ATOM      8  N   UNL     1      -1.737  -4.020  23.692  0.00  0.00    -0.191 NA
ATOM     25  C   UNL     1      -2.392  -3.126  24.037  0.00  0.00    +0.099 C 
ENDBRANCH  22  25
ENDBRANCH  13  15
ENDBRANCH   4  13
ENDBRANCH  14   9
TORSDOF 9
ENDMDL
