MODEL 1
REMARK VINA RESULT:      -8.4      0.000      0.000
REMARK  Name = 51137960
REMARK  8 active torsions:
REMARK  status: ('A' for Active; 'I' for Inactive)
REMARK    1  A    between atoms: N_4  and  C_21
REMARK    2  A    between atoms: C_5  and  C_7
REMARK    3  A    between atoms: C_6  and  C_16
REMARK    4  A    between atoms: C_7  and  C_12
REMARK    5  A    between atoms: C_12  and  C_17
REMARK    6  A    between atoms: C_12  and  C_18
REMARK    7  A    between atoms: C_21  and  C_22
REMARK    8  A    between atoms: C_21  and  C_23
REMARK                            x       y       z     vdW  Elec       q    Type
REMARK                         _______ _______ _______ _____ _____    ______ ____
ROOT
ATOM      2  N   UNL     1      -1.109   0.018  24.711  0.00  0.00    -0.299 NA
ATOM      3  N   UNL     1      -2.005   4.949  25.340  0.00  0.00    -0.360 N 
ATOM      5  C   UNL     1      -2.571   0.165  24.679  0.00  0.00    +0.085 C 
ATOM      6  C   UNL     1      -0.396   0.827  23.735  0.00  0.00    +0.145 C 
ATOM      8  C   UNL     1      -3.113   1.553  25.033  0.00  0.00    -0.021 A 
ATOM      9  C   UNL     1      -2.344   2.753  25.052  0.00  0.00    +0.008 A 
ATOM     10  C   UNL     1       0.115   2.129  24.350  0.00  0.00    +0.065 C 
ATOM     11  C   UNL     1      -0.968   3.064  24.772  0.00  0.00    -0.020 A 
ATOM     13  C   UNL     1      -2.965   3.965  25.380  0.00  0.00    +0.047 A 
ATOM     14  C   UNL     1      -4.500   1.696  25.291  0.00  0.00    +0.006 A 
ATOM     15  C   UNL     1      -0.804   4.421  24.969  0.00  0.00    +0.087 A 
ATOM     19  C   UNL     1      -4.324   4.076  25.676  0.00  0.00    +0.026 A 
ATOM     20  C   UNL     1      -5.087   2.917  25.613  0.00  0.00    +0.002 A 
ATOM     24  H   UNL     1      -0.749   0.173  25.653  0.00  0.00    +0.123 HD
ATOM     25  H   UNL     1      -2.172   5.925  25.539  0.00  0.00    +0.165 HD
ENDROOT
BRANCH   6  16
ATOM      1  O   UNL     1       0.699  -1.232  23.227  0.00  0.00    -0.274 OA
ATOM      4  N   UNL     1       1.902   0.755  23.065  0.00  0.00    -0.312 N 
ATOM     16  C   UNL     1       0.774  -0.008  23.312  0.00  0.00    +0.231 C 
ATOM     26  H   UNL     1       1.830   1.768  23.105  0.00  0.00    +0.149 HD
BRANCH   4  21
ATOM     21  C   UNL     1       3.169   0.188  22.666  0.00  0.00    +0.067 C 
ATOM     22  C   UNL     1       4.248   1.264  22.627  0.00  0.00    +0.027 C 
ATOM     23  C   UNL     1       3.558  -0.952  23.598  0.00  0.00    +0.027 C 
ENDBRANCH   4  21
ENDBRANCH   6  16
BRANCH   5   7
ATOM      7  C   UNL     1      -3.093  -0.931  25.626  0.00  0.00    +0.026 C 
BRANCH   7  12
ATOM     12  C   UNL     1      -3.458  -2.228  24.898  0.00  0.00    -0.015 C 
ATOM     17  C   UNL     1      -2.177  -2.918  24.423  0.00  0.00    +0.007 C 
ATOM     18  C   UNL     1      -4.390  -1.994  23.708  0.00  0.00    +0.007 C 
ENDBRANCH   7  12
ENDBRANCH   5   7
TORSDOF 4
ENDMDL
MODEL 2
REMARK VINA RESULT:      -6.4      1.288      1.682
REMARK  Name = 51137960
REMARK  8 active torsions:
REMARK  status: ('A' for Active; 'I' for Inactive)
REMARK    1  A    between atoms: N_4  and  C_21
REMARK    2  A    between atoms: C_5  and  C_7
REMARK    3  A    between atoms: C_6  and  C_16
REMARK    4  A    between atoms: C_7  and  C_12
REMARK    5  A    between atoms: C_12  and  C_17
REMARK    6  A    between atoms: C_12  and  C_18
REMARK    7  A    between atoms: C_21  and  C_22
REMARK    8  A    between atoms: C_21  and  C_23
REMARK                            x       y       z     vdW  Elec       q    Type
REMARK                         _______ _______ _______ _____ _____    ______ ____
ROOT
ATOM      2  N   UNL     1      -1.491   0.548  25.143  0.00  0.00    -0.299 NA
ATOM      3  N   UNL     1      -4.205   4.773  25.678  0.00  0.00    -0.360 N 
ATOM      5  C   UNL     1      -2.884   0.163  24.878  0.00  0.00    +0.085 C 
ATOM      6  C   UNL     1      -0.987   1.625  24.304  0.00  0.00    +0.145 C 
ATOM      8  C   UNL     1      -3.940   1.237  25.157  0.00  0.00    -0.021 A 
ATOM      9  C   UNL     1      -3.674   2.628  25.314  0.00  0.00    +0.008 A 
ATOM     10  C   UNL     1      -1.082   2.977  25.009  0.00  0.00    +0.065 C 
ATOM     11  C   UNL     1      -2.481   3.430  25.262  0.00  0.00    -0.020 A 
ATOM     13  C   UNL     1      -4.734   3.510  25.552  0.00  0.00    +0.047 A 
ATOM     14  C   UNL     1      -5.305   0.854  25.189  0.00  0.00    +0.006 A 
ATOM     15  C   UNL     1      -2.854   4.738  25.500  0.00  0.00    +0.087 A 
ATOM     19  C   UNL     1      -6.068   3.106  25.627  0.00  0.00    +0.026 A 
ATOM     20  C   UNL     1      -6.338   1.758  25.427  0.00  0.00    +0.002 A 
ATOM     24  H   UNL     1      -1.353   0.756  26.132  0.00  0.00    +0.123 HD
ATOM     25  H   UNL     1      -4.744   5.609  25.859  0.00  0.00    +0.165 HD
ENDROOT
BRANCH   6  16
ATOM      1  O   UNL     1       1.360   1.904  24.631  0.00  0.00    -0.274 OA
ATOM      4  N   UNL     1       0.614   0.274  23.145  0.00  0.00    -0.312 N 
ATOM     16  C   UNL     1       0.454   1.296  24.065  0.00  0.00    +0.231 C 
ATOM     26  H   UNL     1      -0.211  -0.202  22.789  0.00  0.00    +0.149 HD
BRANCH   4  21
ATOM     21  C   UNL     1       1.906  -0.217  22.723  0.00  0.00    +0.067 C 
ATOM     22  C   UNL     1       1.859  -0.662  21.266  0.00  0.00    +0.027 C 
ATOM     23  C   UNL     1       2.974   0.846  22.942  0.00  0.00    +0.027 C 
ENDBRANCH   4  21
ENDBRANCH   6  16
BRANCH   5   7
ATOM      7  C   UNL     1      -3.102  -1.110  25.715  0.00  0.00    +0.026 C 
BRANCH   7  12
ATOM     12  C   UNL     1      -3.231  -2.375  24.861  0.00  0.00    -0.015 C 
ATOM     17  C   UNL     1      -1.869  -2.714  24.251  0.00  0.00    +0.007 C 
ATOM     18  C   UNL     1      -4.273  -2.231  23.750  0.00  0.00    +0.007 C 
ENDBRANCH   7  12
ENDBRANCH   5   7
TORSDOF 4
ENDMDL
