MODEL 1
REMARK VINA RESULT:       6.0      0.000      0.000
REMARK  Name = 7135168
REMARK  15 active torsions:
REMARK  status: ('A' for Active; 'I' for Inactive)
REMARK    1  A    between atoms: O_2  and  C_16
REMARK    2  A    between atoms: O_3  and  C_21
REMARK    3  A    between atoms: O_5  and  C_29
REMARK    4  A    between atoms: N_9  and  CA_27
REMARK    5  A    between atoms: C_11  and  C_19
REMARK    6  A    between atoms: C_13  and  C_21
REMARK    7  A    between atoms: C_13  and  C_22
REMARK    8  A    between atoms: C_14  and  C_24
REMARK    9  A    between atoms: C_24  and  C_25
REMARK   10  A    between atoms: CA_27  and  CB_28
REMARK   11  A    between atoms: CA_27  and  C_29
REMARK   12  A    between atoms: CB_28  and  CG_31
REMARK   13  A    between atoms: C_30  and  C_32
REMARK   14  A    between atoms: CG_31  and  CD1_33
REMARK   15  A    between atoms: CG_31  and  CD2_34
REMARK                            x       y       z     vdW  Elec       q    Type
REMARK                         _______ _______ _______ _____ _____    ______ ____
ROOT
ATOM      1  S   UNL     1       0.750   2.319  25.902  0.00  0.00    -0.057 S 
ATOM      6  O   UNL     1       2.433   0.400  22.009  0.00  0.00    -0.266 OA
ATOM      8  N   UNL     1       0.154   1.547  23.505  0.00  0.00    -0.229 NA
ATOM     10  N   UNL     1       2.439   1.242  24.210  0.00  0.00    -0.258 N 
ATOM     11  C   UNL     1      -3.534   2.342  24.304  0.00  0.00    -0.019 C 
ATOM     12  C   UNL     1      -3.144   3.518  25.306  0.00  0.00    +0.011 C 
ATOM     13  C   UNL     1      -4.325   4.203  26.096  0.00  0.00    +0.021 C 
ATOM     14  C   UNL     1      -2.298   2.106  23.318  0.00  0.00    +0.054 C 
ATOM     15  C   UNL     1      -4.761   2.770  23.458  0.00  0.00    +0.010 C 
ATOM     16  C   UNL     1      -5.485   4.522  25.111  0.00  0.00    +0.123 C 
ATOM     17  C   UNL     1      -1.934   3.125  26.202  0.00  0.00    +0.049 C 
ATOM     18  C   UNL     1      -5.917   3.317  24.282  0.00  0.00    +0.032 C 
ATOM     19  C   UNL     1      -3.869   1.017  25.033  0.00  0.00    +0.012 C 
ATOM     20  C   UNL     1      -0.999   2.048  24.080  0.00  0.00    +0.058 A 
ATOM     22  C   UNL     1      -3.827   5.557  26.677  0.00  0.00    +0.016 C 
ATOM     23  C   UNL     1      -0.854   2.527  25.366  0.00  0.00    +0.015 A 
ATOM     26  C   UNL     1       1.137   1.634  24.375  0.00  0.00    +0.165 A 
ATOM     30  C   UNL     1       3.002   0.660  23.062  0.00  0.00    +0.285 C 
ATOM     41  H   UNL     1       3.043   1.402  25.012  0.00  0.00    +0.157 HD
ENDROOT
BRANCH  30  32
ATOM      7  O   UNL     1       5.049   0.728  24.283  0.00  0.00    -0.458 OA
ATOM     32  C   UNL     1       4.456   0.362  23.149  0.00  0.00    +0.189 A 
ATOM     35  C   UNL     1       5.258  -0.220  22.256  0.00  0.00    +0.054 A 
ATOM     36  C   UNL     1       6.524  -0.234  22.886  0.00  0.00    +0.042 A 
ATOM     37  C   UNL     1       6.345   0.353  24.117  0.00  0.00    +0.196 A 
ENDBRANCH  30  32
BRANCH  16   2
ATOM      2  O   UNL     1      -6.619   5.025  25.817  0.00  0.00    -0.391 OA
ATOM     38  H   UNL     1      -6.547   4.742  26.743  0.00  0.00    +0.210 HD
ENDBRANCH  16   2
BRANCH  13  21
ATOM     21  C   UNL     1      -4.839   3.395  27.309  0.00  0.00    +0.165 C 
BRANCH  21   3
ATOM      3  O   UNL     1      -5.969   2.663  26.892  0.00  0.00    -0.394 OA
ATOM     39  H   UNL     1      -5.894   2.509  25.936  0.00  0.00    +0.209 HD
ENDBRANCH  21   3
ENDBRANCH  13  21
BRANCH  14  24
ATOM     24  C   UNL     1      -2.453   0.903  22.378  0.00  0.00    +0.106 C 
BRANCH  24  25
ATOM      4  O   UNL     1      -0.430  -0.391  22.093  0.00  0.00    -0.276 OA
ATOM      9  N   UNL     1      -1.926  -0.960  23.778  0.00  0.00    -0.310 N 
ATOM     25  C   ACE A   0      -1.476  -0.202  22.707  0.00  0.00    +0.214 C 
ATOM     40  H   UNL     1      -2.805  -0.716  24.222  0.00  0.00    +0.149 HD
BRANCH   9  27
ATOM     27  CA  UNL     1      -1.194  -2.086  24.311  0.00  0.00    +0.098 C 
BRANCH  27  28
ATOM     28  CB  UNL     1      -2.155  -3.198  24.771  0.00  0.00    +0.027 C 
BRANCH  28  31
ATOM     31  CG  UNL     1      -3.605  -2.738  25.039  0.00  0.00    -0.015 C 
ATOM     33  CD1 UNL     1      -3.677  -1.571  26.024  0.00  0.00    +0.007 C 
ATOM     34  CD2 UNL     1      -4.272  -2.339  23.720  0.00  0.00    +0.007 C 
ENDBRANCH  28  31
ENDBRANCH  27  28
BRANCH  27  29
ATOM     29  C   UNL     1      -0.271  -1.625  25.443  0.00  0.00    +0.178 C 
BRANCH  29   5
ATOM      5  O   UNL     1      -0.923  -0.668  26.268  0.00  0.00    -0.393 OA
ATOM     42  H   UNL     1      -0.538  -0.728  27.158  0.00  0.00    +0.209 HD
ENDBRANCH  29   5
ENDBRANCH  27  29
ENDBRANCH   9  27
ENDBRANCH  24  25
ENDBRANCH  14  24
TORSDOF 11
ENDMDL
MODEL 2
REMARK VINA RESULT:       6.9      1.417      1.921
REMARK  Name = 7135168
REMARK  15 active torsions:
REMARK  status: ('A' for Active; 'I' for Inactive)
REMARK    1  A    between atoms: O_2  and  C_16
REMARK    2  A    between atoms: O_3  and  C_21
REMARK    3  A    between atoms: O_5  and  C_29
REMARK    4  A    between atoms: N_9  and  CA_27
REMARK    5  A    between atoms: C_11  and  C_19
REMARK    6  A    between atoms: C_13  and  C_21
REMARK    7  A    between atoms: C_13  and  C_22
REMARK    8  A    between atoms: C_14  and  C_24
REMARK    9  A    between atoms: C_24  and  C_25
REMARK   10  A    between atoms: CA_27  and  CB_28
REMARK   11  A    between atoms: CA_27  and  C_29
REMARK   12  A    between atoms: CB_28  and  CG_31
REMARK   13  A    between atoms: C_30  and  C_32
REMARK   14  A    between atoms: CG_31  and  CD1_33
REMARK   15  A    between atoms: CG_31  and  CD2_34
REMARK                            x       y       z     vdW  Elec       q    Type
REMARK                         _______ _______ _______ _____ _____    ______ ____
ROOT
ATOM      1  S   UNL     1       0.482   2.289  25.835  0.00  0.00    -0.057 S 
ATOM      6  O   UNL     1       1.980   0.004  22.065  0.00  0.00    -0.266 OA
ATOM      8  N   UNL     1      -0.223   1.310  23.546  0.00  0.00    -0.229 NA
ATOM     10  N   UNL     1       2.088   1.042  24.179  0.00  0.00    -0.258 N 
ATOM     11  C   UNL     1      -3.866   2.218  24.425  0.00  0.00    -0.019 C 
ATOM     12  C   UNL     1      -3.424   3.475  25.298  0.00  0.00    +0.011 C 
ATOM     13  C   UNL     1      -4.564   4.243  26.072  0.00  0.00    +0.021 C 
ATOM     14  C   UNL     1      -2.676   1.879  23.412  0.00  0.00    +0.054 C 
ATOM     15  C   UNL     1      -5.125   2.582  23.596  0.00  0.00    +0.010 C 
ATOM     16  C   UNL     1      -5.763   4.486  25.111  0.00  0.00    +0.123 C 
ATOM     17  C   UNL     1      -2.179   3.150  26.174  0.00  0.00    +0.049 C 
ATOM     18  C   UNL     1      -6.240   3.216  24.415  0.00  0.00    +0.032 C 
ATOM     19  C   UNL     1      -4.180   0.969  25.285  0.00  0.00    +0.012 C 
ATOM     20  C   UNL     1      -1.346   1.874  24.121  0.00  0.00    +0.058 A 
ATOM     22  C   UNL     1      -4.030   5.639  26.505  0.00  0.00    +0.016 C 
ATOM     23  C   UNL     1      -1.142   2.466  25.351  0.00  0.00    +0.015 A 
ATOM     26  C   UNL     1       0.798   1.463  24.362  0.00  0.00    +0.165 A 
ATOM     30  C   UNL     1       2.596   0.352  23.066  0.00  0.00    +0.285 C 
ATOM     41  H   UNL     1       2.728   1.267  24.937  0.00  0.00    +0.157 HD
ENDROOT
BRANCH  30  32
ATOM      7  O   UNL     1       4.368  -1.131  23.652  0.00  0.00    -0.458 OA
ATOM     32  C   UNL     1       4.050   0.046  23.118  0.00  0.00    +0.189 A 
ATOM     35  C   UNL     1       5.087   0.778  22.708  0.00  0.00    +0.054 A 
ATOM     36  C   UNL     1       6.215  -0.020  23.013  0.00  0.00    +0.042 A 
ATOM     37  C   UNL     1       5.725  -1.172  23.584  0.00  0.00    +0.196 A 
ENDBRANCH  30  32
BRANCH  16   2
ATOM      2  O   UNL     1      -6.861   5.064  25.815  0.00  0.00    -0.391 OA
ATOM     38  H   UNL     1      -6.718   4.922  26.765  0.00  0.00    +0.210 HD
ENDBRANCH  16   2
BRANCH  13  21
ATOM     21  C   UNL     1      -5.032   3.555  27.373  0.00  0.00    +0.165 C 
BRANCH  21   3
ATOM      3  O   UNL     1      -6.084   2.677  27.044  0.00  0.00    -0.394 OA
ATOM     39  H   UNL     1      -5.748   1.768  27.098  0.00  0.00    +0.209 HD
ENDBRANCH  21   3
ENDBRANCH  13  21
BRANCH  14  24
ATOM     24  C   UNL     1      -2.881   0.598  22.594  0.00  0.00    +0.106 C 
BRANCH  24  25
ATOM      4  O   UNL     1      -4.769  -0.542  23.590  0.00  0.00    -0.276 OA
ATOM      9  N   UNL     1      -2.627  -1.393  23.890  0.00  0.00    -0.310 N 
ATOM     25  C   ACE A   0      -3.556  -0.488  23.400  0.00  0.00    +0.214 C 
ATOM     40  H   UNL     1      -1.645  -1.261  23.671  0.00  0.00    +0.149 HD
BRANCH   9  27
ATOM     27  CA  UNL     1      -2.987  -2.535  24.698  0.00  0.00    +0.098 C 
BRANCH  27  28
ATOM     28  CB  UNL     1      -1.756  -3.102  25.428  0.00  0.00    +0.027 C 
BRANCH  28  31
ATOM     31  CG  UNL     1      -0.657  -2.068  25.756  0.00  0.00    -0.015 C 
ATOM     33  CD1 UNL     1       0.138  -1.646  24.520  0.00  0.00    +0.007 C 
ATOM     34  CD2 UNL     1      -1.288  -0.835  26.408  0.00  0.00    +0.007 C 
ENDBRANCH  28  31
ENDBRANCH  27  28
BRANCH  27  29
ATOM     29  C   UNL     1      -3.675  -3.595  23.833  0.00  0.00    +0.178 C 
BRANCH  29   5
ATOM      5  O   UNL     1      -5.015  -3.219  23.544  0.00  0.00    -0.393 OA
ATOM     42  H   UNL     1      -5.200  -2.388  24.012  0.00  0.00    +0.209 HD
ENDBRANCH  29   5
ENDBRANCH  27  29
ENDBRANCH   9  27
ENDBRANCH  24  25
ENDBRANCH  14  24
TORSDOF 11
ENDMDL
