MODEL 1
REMARK VINA RESULT:      -6.8      0.000      0.000
REMARK  Name = 38028873
REMARK  12 active torsions:
REMARK  status: ('A' for Active; 'I' for Inactive)
REMARK    1  A    between atoms: O_3  and  C_27
REMARK    2  A    between atoms: N_6  and  C_15
REMARK    3  A    between atoms: C_7  and  C_11
REMARK    4  A    between atoms: C_8  and  C_15
REMARK    5  A    between atoms: C_10  and  C_14
REMARK    6  A    between atoms: C_11  and  C_16
REMARK    7  A    between atoms: C_11  and  C_17
REMARK    8  A    between atoms: C_12  and  C_19
REMARK    9  A    between atoms: C_14  and  C_18
REMARK   10  A    between atoms: C_24  and  C_25
REMARK   11  A    between atoms: C_25  and  C_26
REMARK   12  A    between atoms: C_26  and  C_27
REMARK                            x       y       z     vdW  Elec       q    Type
REMARK                         _______ _______ _______ _____ _____    ______ ____
ROOT
ATOM      7  C   UNL     1      -1.160   0.622  24.834  0.00  0.00    +0.000 C 
ATOM      8  C   UNL     1      -0.409  -0.676  24.449  0.00  0.00    +0.032 C 
ATOM      9  C   UNL     1      -2.210   0.333  25.918  0.00  0.00    +0.012 C 
ATOM     10  C   UNL     1      -3.246  -0.713  25.462  0.00  0.00    +0.023 C 
ATOM     12  C   UNL     1      -2.585  -1.916  24.821  0.00  0.00    -0.073 C 
ATOM     13  C   UNL     1      -1.312  -1.886  24.387  0.00  0.00    -0.022 C 
ATOM     19  C   UNL     1      -3.407  -3.172  24.732  0.00  0.00    +0.039 C 
ENDROOT
BRANCH   7  11
ATOM     11  C   UNL     1      -0.200   1.712  25.321  0.00  0.00    -0.013 C 
ATOM     16  C   UNL     1      -0.172   2.876  24.335  0.00  0.00    +0.007 C 
ATOM     17  C   UNL     1      -0.599   2.191  26.712  0.00  0.00    +0.007 C 
ENDBRANCH   7  11
BRANCH  10  14
ATOM     14  C   UNL     1      -4.282  -0.089  24.520  0.00  0.00    +0.103 C 
BRANCH  14  18
ATOM      1  O   UNL     1      -5.761   0.921  26.091  0.00  0.00    -0.276 OA
ATOM      5  N   UNL     1      -4.555   2.334  24.718  0.00  0.00    -0.301 N 
ATOM     18  C   UNL     1      -4.938   1.091  25.190  0.00  0.00    +0.216 C 
ATOM     20  C   UNL     1      -5.101   3.571  25.255  0.00  0.00    +0.108 C 
ATOM     21  C   UNL     1      -3.585   2.603  23.660  0.00  0.00    +0.108 C 
ATOM     22  C   UNL     1      -4.192   4.659  24.703  0.00  0.00    +0.020 C 
ATOM     23  C   UNL     1      -3.756   4.087  23.361  0.00  0.00    +0.020 C 
ENDBRANCH  14  18
ENDBRANCH  10  14
BRANCH   8  15
ATOM     15  C   UNL     1       0.323  -0.517  23.111  0.00  0.00    +0.112 C 
BRANCH  15   6
ATOM      2  O   UNL     1       2.429  -0.178  21.155  0.00  0.00    -0.276 OA
ATOM      6  N   UNL     1       1.576   0.146  23.295  0.00  0.00    -0.315 N 
ATOM     24  C   UNL     1       2.542   0.266  22.295  0.00  0.00    +0.214 C 
ATOM     28  H   UNL     1       1.749   0.601  24.187  0.00  0.00    +0.149 HD
BRANCH  24  25
ATOM     25  C   UNL     1       3.771   1.017  22.775  0.00  0.00    +0.107 C 
BRANCH  25  26
ATOM     26  C   UNL     1       5.019   0.140  22.799  0.00  0.00    +0.129 C 
BRANCH  26  27
ATOM      4  O   UNL     1       5.842  -0.573  24.976  0.00  0.00    -0.251 OA
ATOM     27  C   UNL     1       5.075  -0.726  24.036  0.00  0.00    +0.305 C 
BRANCH  27   3
ATOM      3  O   UNL     1       4.150  -1.722  23.986  0.00  0.00    -0.481 OA
ATOM     29  H   UNL     1       3.598  -1.748  24.796  0.00  0.00    +0.295 HD
ENDBRANCH  27   3
ENDBRANCH  26  27
ENDBRANCH  25  26
ENDBRANCH  24  25
ENDBRANCH  15   6
ENDBRANCH   8  15
TORSDOF 9
ENDMDL
MODEL 2
REMARK VINA RESULT:      -4.7      3.258      5.343
REMARK  Name = 38028873
REMARK  12 active torsions:
REMARK  status: ('A' for Active; 'I' for Inactive)
REMARK    1  A    between atoms: O_3  and  C_27
REMARK    2  A    between atoms: N_6  and  C_15
REMARK    3  A    between atoms: C_7  and  C_11
REMARK    4  A    between atoms: C_8  and  C_15
REMARK    5  A    between atoms: C_10  and  C_14
REMARK    6  A    between atoms: C_11  and  C_16
REMARK    7  A    between atoms: C_11  and  C_17
REMARK    8  A    between atoms: C_12  and  C_19
REMARK    9  A    between atoms: C_14  and  C_18
REMARK   10  A    between atoms: C_24  and  C_25
REMARK   11  A    between atoms: C_25  and  C_26
REMARK   12  A    between atoms: C_26  and  C_27
REMARK                            x       y       z     vdW  Elec       q    Type
REMARK                         _______ _______ _______ _____ _____    ______ ____
ROOT
ATOM      7  C   UNL     1      -2.798   2.170  24.070  0.00  0.00    +0.000 C 
ATOM      8  C   UNL     1      -3.316   3.519  24.628  0.00  0.00    +0.032 C 
ATOM      9  C   UNL     1      -3.974   1.292  23.614  0.00  0.00    +0.012 C 
ATOM     10  C   UNL     1      -4.962   1.000  24.760  0.00  0.00    +0.023 C 
ATOM     12  C   UNL     1      -5.314   2.255  25.533  0.00  0.00    -0.073 C 
ATOM     13  C   UNL     1      -4.574   3.376  25.451  0.00  0.00    -0.022 C 
ATOM     19  C   UNL     1      -6.563   2.207  26.368  0.00  0.00    +0.039 C 
ENDROOT
BRANCH   7  11
ATOM     11  C   UNL     1      -1.821   2.372  22.908  0.00  0.00    -0.013 C 
ATOM     16  C   UNL     1      -0.681   1.362  22.990  0.00  0.00    +0.007 C 
ATOM     17  C   UNL     1      -2.551   2.257  21.573  0.00  0.00    +0.007 C 
ENDBRANCH   7  11
BRANCH  10  14
ATOM     14  C   UNL     1      -4.418  -0.086  25.695  0.00  0.00    +0.103 C 
BRANCH  14  18
ATOM      1  O   UNL     1      -4.628  -1.919  24.188  0.00  0.00    -0.276 OA
ATOM      5  N   UNL     1      -2.514  -1.451  24.993  0.00  0.00    -0.301 N 
ATOM     18  C   UNL     1      -3.876  -1.235  24.885  0.00  0.00    +0.216 C 
ATOM     20  C   UNL     1      -1.838  -2.524  24.279  0.00  0.00    +0.108 C 
ATOM     21  C   UNL     1      -1.570  -0.679  25.795  0.00  0.00    +0.108 C 
ATOM     22  C   UNL     1      -0.358  -2.200  24.418  0.00  0.00    +0.020 C 
ATOM     23  C   UNL     1      -0.289  -1.503  25.769  0.00  0.00    +0.020 C 
ENDBRANCH  14  18
ENDBRANCH  10  14
BRANCH   8  15
ATOM     15  C   UNL     1      -2.239   4.224  25.461  0.00  0.00    +0.112 C 
BRANCH  15   6
ATOM      2  O   UNL     1       0.536   3.407  25.379  0.00  0.00    -0.276 OA
ATOM      6  N   UNL     1      -1.584   3.297  26.330  0.00  0.00    -0.315 N 
ATOM     24  C   UNL     1      -0.235   2.956  26.222  0.00  0.00    +0.214 C 
ATOM     28  H   UNL     1      -2.117   2.907  27.102  0.00  0.00    +0.149 HD
BRANCH  24  25
ATOM     25  C   UNL     1       0.186   1.949  27.278  0.00  0.00    +0.107 C 
BRANCH  25  26
ATOM     26  C   UNL     1       0.469   2.603  28.627  0.00  0.00    +0.129 C 
BRANCH  26  27
ATOM      4  O   UNL     1       2.859   3.049  28.512  0.00  0.00    -0.251 OA
ATOM     27  C   UNL     1       1.918   2.463  29.029  0.00  0.00    +0.305 C 
BRANCH  27   3
ATOM      3  O   UNL     1       2.064   1.589  30.061  0.00  0.00    -0.481 OA
ATOM     29  H   UNL     1       2.433   0.731  29.762  0.00  0.00    +0.295 HD
ENDBRANCH  27   3
ENDBRANCH  26  27
ENDBRANCH  25  26
ENDBRANCH  24  25
ENDBRANCH  15   6
ENDBRANCH   8  15
TORSDOF 9
ENDMDL
MODEL 3
REMARK VINA RESULT:      -4.4      1.549      3.194
REMARK  Name = 38028873
REMARK  12 active torsions:
REMARK  status: ('A' for Active; 'I' for Inactive)
REMARK    1  A    between atoms: O_3  and  C_27
REMARK    2  A    between atoms: N_6  and  C_15
REMARK    3  A    between atoms: C_7  and  C_11
REMARK    4  A    between atoms: C_8  and  C_15
REMARK    5  A    between atoms: C_10  and  C_14
REMARK    6  A    between atoms: C_11  and  C_16
REMARK    7  A    between atoms: C_11  and  C_17
REMARK    8  A    between atoms: C_12  and  C_19
REMARK    9  A    between atoms: C_14  and  C_18
REMARK   10  A    between atoms: C_24  and  C_25
REMARK   11  A    between atoms: C_25  and  C_26
REMARK   12  A    between atoms: C_26  and  C_27
REMARK                            x       y       z     vdW  Elec       q    Type
REMARK                         _______ _______ _______ _____ _____    ______ ____
ROOT
ATOM      7  C   UNL     1      -2.901  -0.712  25.022  0.00  0.00    +0.000 C 
ATOM      8  C   UNL     1      -1.847  -0.328  23.955  0.00  0.00    +0.032 C 
ATOM      9  C   UNL     1      -4.316  -0.377  24.523  0.00  0.00    +0.012 C 
ATOM     10  C   UNL     1      -4.478   1.119  24.192  0.00  0.00    +0.023 C 
ATOM     12  C   UNL     1      -3.325   1.639  23.358  0.00  0.00    -0.073 C 
ATOM     13  C   UNL     1      -2.161   0.972  23.253  0.00  0.00    -0.022 C 
ATOM     19  C   UNL     1      -3.556   2.923  22.610  0.00  0.00    +0.039 C 
ENDROOT
BRANCH   7  11
ATOM     11  C   UNL     1      -2.821  -2.196  25.394  0.00  0.00    -0.013 C 
ATOM     16  C   UNL     1      -3.777  -3.013  24.531  0.00  0.00    +0.007 C 
ATOM     17  C   UNL     1      -1.391  -2.704  25.248  0.00  0.00    +0.007 C 
ENDBRANCH   7  11
BRANCH  10  14
ATOM     14  C   UNL     1      -4.652   1.951  25.468  0.00  0.00    +0.103 C 
BRANCH  14  18
ATOM      1  O   UNL     1      -5.344   4.154  24.880  0.00  0.00    -0.276 OA
ATOM      5  N   UNL     1      -3.086   3.815  25.235  0.00  0.00    -0.301 N 
ATOM     18  C   UNL     1      -4.406   3.407  25.168  0.00  0.00    +0.216 C 
ATOM     20  C   UNL     1      -2.682   5.187  24.966  0.00  0.00    +0.108 C 
ATOM     21  C   UNL     1      -1.933   2.986  25.573  0.00  0.00    +0.108 C 
ATOM     22  C   UNL     1      -1.246   5.265  25.462  0.00  0.00    +0.020 C 
ATOM     23  C   UNL     1      -0.730   3.852  25.227  0.00  0.00    +0.020 C 
ENDBRANCH  14  18
ENDBRANCH  10  14
BRANCH   8  15
ATOM     15  C   UNL     1      -0.443  -0.251  24.566  0.00  0.00    +0.112 C 
BRANCH  15   6
ATOM      2  O   UNL     1       1.613   1.626  23.776  0.00  0.00    -0.276 OA
ATOM      6  N   UNL     1       0.557  -0.436  23.563  0.00  0.00    -0.315 N 
ATOM     24  C   UNL     1       1.518   0.524  23.240  0.00  0.00    +0.214 C 
ATOM     28  H   UNL     1       0.605  -1.338  23.096  0.00  0.00    +0.149 HD
BRANCH  24  25
ATOM     25  C   UNL     1       2.449   0.054  22.138  0.00  0.00    +0.107 C 
BRANCH  25  26
ATOM     26  C   UNL     1       3.851   0.641  22.268  0.00  0.00    +0.129 C 
BRANCH  26  27
ATOM      4  O   UNL     1       5.400   0.689  24.145  0.00  0.00    -0.251 OA
ATOM     27  C   UNL     1       4.588   0.081  23.463  0.00  0.00    +0.305 C 
BRANCH  27   3
ATOM      3  O   UNL     1       4.235  -1.210  23.702  0.00  0.00    -0.481 OA
ATOM     29  H   UNL     1       3.478  -1.272  24.322  0.00  0.00    +0.295 HD
ENDBRANCH  27   3
ENDBRANCH  26  27
ENDBRANCH  25  26
ENDBRANCH  24  25
ENDBRANCH  15   6
ENDBRANCH   8  15
TORSDOF 9
ENDMDL
MODEL 4
REMARK VINA RESULT:      -3.9      2.686      5.331
REMARK  Name = 38028873
REMARK  12 active torsions:
REMARK  status: ('A' for Active; 'I' for Inactive)
REMARK    1  A    between atoms: O_3  and  C_27
REMARK    2  A    between atoms: N_6  and  C_15
REMARK    3  A    between atoms: C_7  and  C_11
REMARK    4  A    between atoms: C_8  and  C_15
REMARK    5  A    between atoms: C_10  and  C_14
REMARK    6  A    between atoms: C_11  and  C_16
REMARK    7  A    between atoms: C_11  and  C_17
REMARK    8  A    between atoms: C_12  and  C_19
REMARK    9  A    between atoms: C_14  and  C_18
REMARK   10  A    between atoms: C_24  and  C_25
REMARK   11  A    between atoms: C_25  and  C_26
REMARK   12  A    between atoms: C_26  and  C_27
REMARK                            x       y       z     vdW  Elec       q    Type
REMARK                         _______ _______ _______ _____ _____    ______ ____
ROOT
ATOM      7  C   UNL     1      -3.665   2.433  24.135  0.00  0.00    +0.000 C 
ATOM      8  C   UNL     1      -4.322   3.608  24.901  0.00  0.00    +0.032 C 
ATOM      9  C   UNL     1      -4.707   1.348  23.822  0.00  0.00    +0.012 C 
ATOM     10  C   UNL     1      -5.370   0.791  25.096  0.00  0.00    +0.023 C 
ATOM     12  C   UNL     1      -5.806   1.898  26.034  0.00  0.00    -0.073 C 
ATOM     13  C   UNL     1      -5.338   3.155  25.923  0.00  0.00    -0.022 C 
ATOM     19  C   UNL     1      -6.829   1.539  27.075  0.00  0.00    +0.039 C 
ENDROOT
BRANCH   7  11
ATOM     11  C   UNL     1      -2.999   2.901  22.837  0.00  0.00    -0.013 C 
ATOM     16  C   UNL     1      -2.511   1.704  22.028  0.00  0.00    +0.007 C 
ATOM     17  C   UNL     1      -3.966   3.751  22.019  0.00  0.00    +0.007 C 
ENDBRANCH   7  11
BRANCH  10  14
ATOM     14  C   UNL     1      -4.444  -0.201  25.811  0.00  0.00    +0.103 C 
BRANCH  14  18
ATOM      1  O   UNL     1      -4.691  -1.719  23.991  0.00  0.00    -0.276 OA
ATOM      5  N   UNL     1      -2.595  -1.550  24.949  0.00  0.00    -0.301 N 
ATOM     18  C   UNL     1      -3.934  -1.224  24.829  0.00  0.00    +0.216 C 
ATOM     20  C   UNL     1      -1.952  -2.525  24.082  0.00  0.00    +0.108 C 
ATOM     21  C   UNL     1      -1.647  -1.000  25.913  0.00  0.00    +0.108 C 
ATOM     22  C   UNL     1      -0.463  -2.335  24.334  0.00  0.00    +0.020 C 
ATOM     23  C   UNL     1      -0.420  -1.894  25.790  0.00  0.00    +0.020 C 
ENDBRANCH  14  18
ENDBRANCH  10  14
BRANCH   8  15
ATOM     15  C   UNL     1      -3.265   4.483  25.585  0.00  0.00    +0.112 C 
BRANCH  15   6
ATOM      2  O   UNL     1      -0.616   5.255  24.713  0.00  0.00    -0.276 OA
ATOM      6  N   UNL     1      -2.048   3.757  25.769  0.00  0.00    -0.315 N 
ATOM     24  C   UNL     1      -0.805   4.201  25.315  0.00  0.00    +0.214 C 
ATOM     28  H   UNL     1      -2.082   2.895  26.307  0.00  0.00    +0.149 HD
BRANCH  24  25
ATOM     25  C   UNL     1       0.308   3.225  25.651  0.00  0.00    +0.107 C 
BRANCH  25  26
ATOM     26  C   UNL     1      -0.076   1.778  25.356  0.00  0.00    +0.129 C 
BRANCH  26  27
ATOM      4  O   UNL     1      -0.056   0.563  23.247  0.00  0.00    -0.251 OA
ATOM     27  C   UNL     1       0.507   1.295  24.048  0.00  0.00    +0.305 C 
BRANCH  27   3
ATOM      3  O   UNL     1       1.762   1.781  23.855  0.00  0.00    -0.481 OA
ATOM     29  H   UNL     1       2.025   1.747  22.911  0.00  0.00    +0.295 HD
ENDBRANCH  27   3
ENDBRANCH  26  27
ENDBRANCH  25  26
ENDBRANCH  24  25
ENDBRANCH  15   6
ENDBRANCH   8  15
TORSDOF 9
ENDMDL
MODEL 5
REMARK VINA RESULT:      -2.9      2.689      6.808
REMARK  Name = 38028873
REMARK  12 active torsions:
REMARK  status: ('A' for Active; 'I' for Inactive)
REMARK    1  A    between atoms: O_3  and  C_27
REMARK    2  A    between atoms: N_6  and  C_15
REMARK    3  A    between atoms: C_7  and  C_11
REMARK    4  A    between atoms: C_8  and  C_15
REMARK    5  A    between atoms: C_10  and  C_14
REMARK    6  A    between atoms: C_11  and  C_16
REMARK    7  A    between atoms: C_11  and  C_17
REMARK    8  A    between atoms: C_12  and  C_19
REMARK    9  A    between atoms: C_14  and  C_18
REMARK   10  A    between atoms: C_24  and  C_25
REMARK   11  A    between atoms: C_25  and  C_26
REMARK   12  A    between atoms: C_26  and  C_27
REMARK                            x       y       z     vdW  Elec       q    Type
REMARK                         _______ _______ _______ _____ _____    ______ ____
ROOT
ATOM      7  C   UNL     1      -1.699   2.839  24.912  0.00  0.00    +0.000 C 
ATOM      8  C   UNL     1      -1.671   2.603  23.382  0.00  0.00    +0.032 C 
ATOM      9  C   UNL     1      -0.351   2.451  25.539  0.00  0.00    +0.012 C 
ATOM     10  C   UNL     1       0.010   0.976  25.279  0.00  0.00    +0.023 C 
ATOM     12  C   UNL     1      -0.197   0.594  23.827  0.00  0.00    -0.073 C 
ATOM     13  C   UNL     1      -0.940   1.341  22.991  0.00  0.00    -0.022 C 
ATOM     19  C   UNL     1       0.509  -0.644  23.347  0.00  0.00    +0.039 C 
ENDROOT
BRANCH   7  11
ATOM     11  C   UNL     1      -2.031   4.294  25.258  0.00  0.00    -0.013 C 
ATOM     16  C   UNL     1      -2.437   4.414  26.724  0.00  0.00    +0.007 C 
ATOM     17  C   UNL     1      -0.843   5.199  24.950  0.00  0.00    +0.007 C 
ENDBRANCH   7  11
BRANCH  10  14
ATOM     14  C   UNL     1      -0.775   0.044  26.209  0.00  0.00    +0.103 C 
BRANCH  14  18
ATOM      1  O   UNL     1      -0.067  -2.124  25.519  0.00  0.00    -0.276 OA
ATOM      5  N   UNL     1      -2.223  -1.495  24.978  0.00  0.00    -0.301 N 
ATOM     18  C   UNL     1      -0.977  -1.293  25.543  0.00  0.00    +0.216 C 
ATOM     20  C   UNL     1      -2.575  -2.729  24.292  0.00  0.00    +0.108 C 
ATOM     21  C   UNL     1      -3.342  -0.556  24.975  0.00  0.00    +0.108 C 
ATOM     22  C   UNL     1      -4.086  -2.656  24.128  0.00  0.00    +0.020 C 
ATOM     23  C   UNL     1      -4.340  -1.161  23.997  0.00  0.00    +0.020 C 
ENDBRANCH  14  18
ENDBRANCH  10  14
BRANCH   8  15
ATOM     15  C   UNL     1      -3.089   2.573  22.800  0.00  0.00    +0.112 C 
BRANCH  15   6
ATOM      2  O   UNL     1      -4.299   5.129  23.413  0.00  0.00    -0.276 OA
ATOM      6  N   UNL     1      -4.058   2.851  23.813  0.00  0.00    -0.315 N 
ATOM     24  C   UNL     1      -4.594   4.118  24.045  0.00  0.00    +0.214 C 
ATOM     28  H   UNL     1      -4.416   2.071  24.359  0.00  0.00    +0.149 HD
BRANCH  24  25
ATOM     25  C   UNL     1      -5.599   4.115  25.183  0.00  0.00    +0.107 C 
BRANCH  25  26
ATOM     26  C   UNL     1      -5.422   2.919  26.114  0.00  0.00    +0.129 C 
BRANCH  26  27
ATOM      4  O   UNL     1      -6.709   1.374  24.743  0.00  0.00    -0.251 OA
ATOM     27  C   UNL     1      -6.441   1.837  25.842  0.00  0.00    +0.305 C 
BRANCH  27   3
ATOM      3  O   UNL     1      -7.042   1.423  26.989  0.00  0.00    -0.481 OA
ATOM     29  H   UNL     1      -8.018   1.382  26.895  0.00  0.00    +0.295 HD
ENDBRANCH  27   3
ENDBRANCH  26  27
ENDBRANCH  25  26
ENDBRANCH  24  25
ENDBRANCH  15   6
ENDBRANCH   8  15
TORSDOF 9
ENDMDL
