MODEL 1
REMARK VINA RESULT:       2.9      0.000      0.000
REMARK  Name = 28960258
REMARK  10 active torsions:
REMARK  status: ('A' for Active; 'I' for Inactive)
REMARK    1  A    between atoms: O_3  and  C_11
REMARK    2  A    between atoms: O_4  and  C_27
REMARK    3  A    between atoms: O_4  and  C_32
REMARK    4  A    between atoms: N_5  and  C_8
REMARK    5  A    between atoms: N_5  and  C_14
REMARK    6  A    between atoms: N_5  and  C_15
REMARK    7  A    between atoms: N_6  and  C_13
REMARK    8  A    between atoms: N_7  and  C_26
REMARK    9  A    between atoms: C_9  and  C_14
REMARK   10  A    between atoms: C_10  and  C_15
REMARK                            x       y       z     vdW  Elec       q    Type
REMARK                         _______ _______ _______ _____ _____    ______ ____
ROOT
ATOM      1  O   UNL     1      -2.545   0.477  25.343  0.00  0.00    -0.343 OA
ATOM      2  O   UNL     1      -3.395  -1.220  23.996  0.00  0.00    -0.347 OA
ATOM      8  C   UNL     1      -3.899   1.750  23.784  0.00  0.00    +0.118 C 
ATOM     11  C   UNL     1      -2.527   1.770  23.074  0.00  0.00    +0.156 C 
ATOM     12  C   UNL     1      -3.901   0.815  25.017  0.00  0.00    +0.167 C 
ATOM     13  C   UNL     1      -1.890   0.365  23.014  0.00  0.00    +0.143 C 
ATOM     20  C   UNL     1      -2.221  -0.438  24.283  0.00  0.00    +0.270 C 
ATOM     21  C   UNL     1      -4.453  -0.563  24.699  0.00  0.00    +0.196 C 
ENDROOT
BRANCH  13   6
ATOM      6  N   UNL     1      -0.438   0.507  22.860  0.00  0.00    -0.290 NA
ATOM      7  N   UNL     1       2.307  -0.140  23.313  0.00  0.00    -0.325 N 
ATOM     22  C   UNL     1       0.142  -0.714  22.290  0.00  0.00    +0.104 C 
ATOM     23  C   UNL     1       0.190   0.801  24.155  0.00  0.00    +0.104 C 
ATOM     24  C   UNL     1       1.649  -0.559  22.073  0.00  0.00    +0.120 C 
ATOM     25  C   UNL     1       1.699   1.007  23.998  0.00  0.00    +0.120 C 
BRANCH   7  26
ATOM     26  C   UNL     1       3.681  -0.349  23.474  0.00  0.00    +0.072 A 
ATOM     27  C   UNL     1       4.582   0.707  23.340  0.00  0.00    +0.141 A 
ATOM     28  C   UNL     1       4.148  -1.630  23.774  0.00  0.00    +0.027 A 
ATOM     29  C   UNL     1       5.949   0.484  23.505  0.00  0.00    +0.047 A 
ATOM     30  C   UNL     1       5.515  -1.853  23.939  0.00  0.00    +0.002 A 
ATOM     31  C   UNL     1       6.415  -0.796  23.804  0.00  0.00    +0.004 A 
BRANCH  27   4
ATOM      4  O   UNL     1       4.146   1.965  23.048  0.00  0.00    -0.493 OA
ATOM     32  C   UNL     1       4.001   2.297  21.668  0.00  0.00    +0.277 C 
ENDBRANCH  27   4
ENDBRANCH   7  26
ENDBRANCH  13   6
BRANCH  11   3
ATOM      3  O   UNL     1      -2.676   2.257  21.740  0.00  0.00    -0.388 OA
ATOM     33  H   UNL     1      -3.555   2.665  21.665  0.00  0.00    +0.210 HD
ENDBRANCH  11   3
BRANCH   8   5
ATOM      5  N   UNL     1      -4.212   3.118  24.223  0.00  0.00    -0.294 NA
BRANCH   5  14
ATOM     14  C   UNL     1      -3.086   4.007  23.947  0.00  0.00    +0.088 C 
BRANCH  14   9
ATOM      9  C   UNL     1      -2.363   4.374  25.202  0.00  0.00    +0.003 C 
ATOM     16  C   UNL     1      -0.976   3.849  25.430  0.00  0.00    +0.005 C 
ATOM     17  C   UNL     1      -1.187   5.303  25.124  0.00  0.00    +0.005 C 
ENDBRANCH  14   9
ENDBRANCH   5  14
BRANCH   5  15
ATOM     15  C   UNL     1      -4.543   3.131  25.644  0.00  0.00    +0.088 C 
BRANCH  15  10
ATOM     10  C   UNL     1      -6.020   3.063  25.859  0.00  0.00    +0.003 C 
ATOM     18  C   UNL     1      -6.603   1.878  26.572  0.00  0.00    +0.005 C 
ATOM     19  C   UNL     1      -6.825   2.051  25.098  0.00  0.00    +0.005 C 
ENDBRANCH  15  10
ENDBRANCH   5  15
ENDBRANCH   8   5
TORSDOF 9
ENDMDL
MODEL 2
REMARK VINA RESULT:       3.3      1.067      2.754
REMARK  Name = 28960258
REMARK  10 active torsions:
REMARK  status: ('A' for Active; 'I' for Inactive)
REMARK    1  A    between atoms: O_3  and  C_11
REMARK    2  A    between atoms: O_4  and  C_27
REMARK    3  A    between atoms: O_4  and  C_32
REMARK    4  A    between atoms: N_5  and  C_8
REMARK    5  A    between atoms: N_5  and  C_14
REMARK    6  A    between atoms: N_5  and  C_15
REMARK    7  A    between atoms: N_6  and  C_13
REMARK    8  A    between atoms: N_7  and  C_26
REMARK    9  A    between atoms: C_9  and  C_14
REMARK   10  A    between atoms: C_10  and  C_15
REMARK                            x       y       z     vdW  Elec       q    Type
REMARK                         _______ _______ _______ _____ _____    ______ ____
ROOT
ATOM      1  O   UNL     1      -3.023  -1.037  25.540  0.00  0.00    -0.343 OA
ATOM      2  O   UNL     1      -4.224  -1.851  23.720  0.00  0.00    -0.347 OA
ATOM      8  C   UNL     1      -3.652   1.027  24.432  0.00  0.00    +0.118 C 
ATOM     11  C   UNL     1      -2.277   0.746  23.784  0.00  0.00    +0.156 C 
ATOM     12  C   UNL     1      -4.129  -0.151  25.313  0.00  0.00    +0.167 C 
ATOM     13  C   UNL     1      -2.156  -0.715  23.302  0.00  0.00    +0.143 C 
ATOM     20  C   UNL     1      -2.900  -1.666  24.254  0.00  0.00    +0.270 C 
ATOM     21  C   UNL     1      -5.073  -1.082  24.575  0.00  0.00    +0.196 C 
ENDROOT
BRANCH  13   6
ATOM      6  N   UNL     1      -0.735  -1.074  23.223  0.00  0.00    -0.290 NA
ATOM      7  N   UNL     1       2.079  -0.639  23.440  0.00  0.00    -0.325 N 
ATOM     22  C   UNL     1      -0.100  -0.957  24.541  0.00  0.00    +0.104 C 
ATOM     23  C   UNL     1      -0.041  -0.214  22.256  0.00  0.00    +0.104 C 
ATOM     24  C   UNL     1       1.369  -1.382  24.484  0.00  0.00    +0.120 C 
ATOM     25  C   UNL     1       1.430  -0.616  22.123  0.00  0.00    +0.120 C 
BRANCH   7  26
ATOM     26  C   UNL     1       3.474  -0.537  23.487  0.00  0.00    +0.072 A 
ATOM     27  C   UNL     1       4.110   0.662  23.166  0.00  0.00    +0.141 A 
ATOM     28  C   UNL     1       4.230  -1.649  23.860  0.00  0.00    +0.027 A 
ATOM     29  C   UNL     1       5.502   0.750  23.219  0.00  0.00    +0.047 A 
ATOM     30  C   UNL     1       5.620  -1.562  23.912  0.00  0.00    +0.002 A 
ATOM     31  C   UNL     1       6.257  -0.363  23.591  0.00  0.00    +0.004 A 
BRANCH  27   4
ATOM      4  O   UNL     1       3.391   1.760  22.800  0.00  0.00    -0.493 OA
ATOM     32  C   UNL     1       2.202   2.032  23.539  0.00  0.00    +0.277 C 
ENDBRANCH  27   4
ENDBRANCH   7  26
ENDBRANCH  13   6
BRANCH  11   3
ATOM      3  O   UNL     1      -2.079   1.611  22.665  0.00  0.00    -0.388 OA
ATOM     33  H   UNL     1      -1.128   1.630  22.464  0.00  0.00    +0.210 HD
ENDBRANCH  11   3
BRANCH   8   5
ATOM      5  N   UNL     1      -3.531   2.230  25.268  0.00  0.00    -0.294 NA
BRANCH   5  14
ATOM     14  C   UNL     1      -4.353   3.309  24.723  0.00  0.00    +0.088 C 
BRANCH  14   9
ATOM      9  C   UNL     1      -5.708   3.331  25.354  0.00  0.00    +0.003 C 
ATOM     16  C   UNL     1      -6.646   2.184  25.116  0.00  0.00    +0.005 C 
ATOM     17  C   UNL     1      -6.014   2.370  26.464  0.00  0.00    +0.005 C 
ENDBRANCH  14   9
ENDBRANCH   5  14
BRANCH   5  15
ATOM     15  C   UNL     1      -2.135   2.644  25.361  0.00  0.00    +0.088 C 
BRANCH  15  10
ATOM     10  C   UNL     1      -1.896   3.926  24.631  0.00  0.00    +0.003 C 
ATOM     18  C   UNL     1      -0.533   4.550  24.672  0.00  0.00    +0.005 C 
ATOM     19  C   UNL     1      -1.671   5.185  25.417  0.00  0.00    +0.005 C 
ENDBRANCH  15  10
ENDBRANCH   5  15
ENDBRANCH   8   5
TORSDOF 9
ENDMDL
MODEL 3
REMARK VINA RESULT:       6.4      1.205      2.782
REMARK  Name = 28960258
REMARK  10 active torsions:
REMARK  status: ('A' for Active; 'I' for Inactive)
REMARK    1  A    between atoms: O_3  and  C_11
REMARK    2  A    between atoms: O_4  and  C_27
REMARK    3  A    between atoms: O_4  and  C_32
REMARK    4  A    between atoms: N_5  and  C_8
REMARK    5  A    between atoms: N_5  and  C_14
REMARK    6  A    between atoms: N_5  and  C_15
REMARK    7  A    between atoms: N_6  and  C_13
REMARK    8  A    between atoms: N_7  and  C_26
REMARK    9  A    between atoms: C_9  and  C_14
REMARK   10  A    between atoms: C_10  and  C_15
REMARK                            x       y       z     vdW  Elec       q    Type
REMARK                         _______ _______ _______ _____ _____    ______ ____
ROOT
ATOM      1  O   UNL     1      -2.290  -0.413  25.470  0.00  0.00    -0.343 OA
ATOM      2  O   UNL     1      -3.255  -1.739  23.819  0.00  0.00    -0.347 OA
ATOM      8  C   UNL     1      -3.847   1.151  24.463  0.00  0.00    +0.118 C 
ATOM     11  C   UNL     1      -2.569   1.430  23.641  0.00  0.00    +0.156 C 
ATOM     12  C   UNL     1      -3.682  -0.073  25.394  0.00  0.00    +0.167 C 
ATOM     13  C   UNL     1      -1.912   0.126  23.140  0.00  0.00    +0.143 C 
ATOM     20  C   UNL     1      -2.073  -0.999  24.176  0.00  0.00    +0.270 C 
ATOM     21  C   UNL     1      -4.237  -1.346  24.782  0.00  0.00    +0.196 C 
ENDROOT
BRANCH  13   6
ATOM      6  N   UNL     1      -0.492   0.380  22.874  0.00  0.00    -0.290 NA
ATOM      7  N   UNL     1       2.324   0.056  23.225  0.00  0.00    -0.325 N 
ATOM     22  C   UNL     1       0.177  -0.848  22.428  0.00  0.00    +0.104 C 
ATOM     23  C   UNL     1       0.172   0.901  24.077  0.00  0.00    +0.104 C 
ATOM     24  C   UNL     1       1.647  -0.585  22.094  0.00  0.00    +0.120 C 
ATOM     25  C   UNL     1       1.641   1.223  23.796  0.00  0.00    +0.120 C 
BRANCH   7  26
ATOM     26  C   UNL     1       3.719  -0.002  23.321  0.00  0.00    +0.072 A 
ATOM     27  C   UNL     1       4.359  -1.191  23.671  0.00  0.00    +0.141 A 
ATOM     28  C   UNL     1       4.472   1.145  23.064  0.00  0.00    +0.027 A 
ATOM     29  C   UNL     1       5.751  -1.235  23.762  0.00  0.00    +0.047 A 
ATOM     30  C   UNL     1       5.862   1.102  23.155  0.00  0.00    +0.002 A 
ATOM     31  C   UNL     1       6.502  -0.088  23.505  0.00  0.00    +0.004 A 
BRANCH  27   4
ATOM      4  O   UNL     1       3.643  -2.322  23.926  0.00  0.00    -0.493 OA
ATOM     32  C   UNL     1       2.504  -2.191  24.775  0.00  0.00    +0.277 C 
ENDBRANCH  27   4
ENDBRANCH   7  26
ENDBRANCH  13   6
BRANCH  11   3
ATOM      3  O   UNL     1      -2.884   2.242  22.509  0.00  0.00    -0.388 OA
ATOM     33  H   UNL     1      -2.085   2.739  22.264  0.00  0.00    +0.210 HD
ENDBRANCH  11   3
BRANCH   8   5
ATOM      5  N   UNL     1      -4.136   2.338  25.282  0.00  0.00    -0.294 NA
BRANCH   5  14
ATOM     14  C   UNL     1      -5.560   2.660  25.221  0.00  0.00    +0.088 C 
BRANCH  14   9
ATOM      9  C   UNL     1      -5.866   3.913  25.975  0.00  0.00    +0.003 C 
ATOM     16  C   UNL     1      -5.272   5.211  25.513  0.00  0.00    +0.005 C 
ATOM     17  C   UNL     1      -6.740   4.954  25.341  0.00  0.00    +0.005 C 
ENDBRANCH  14   9
ENDBRANCH   5  14
BRANCH   5  15
ATOM     15  C   UNL     1      -3.331   3.470  24.834  0.00  0.00    +0.088 C 
BRANCH  15  10
ATOM     10  C   UNL     1      -2.332   3.872  25.870  0.00  0.00    +0.003 C 
ATOM     18  C   UNL     1      -0.969   4.326  25.438  0.00  0.00    +0.005 C 
ATOM     19  C   UNL     1      -1.138   2.996  26.114  0.00  0.00    +0.005 C 
ENDBRANCH  15  10
ENDBRANCH   5  15
ENDBRANCH   8   5
TORSDOF 9
ENDMDL
