MODEL 1
REMARK VINA RESULT:       9.8      0.000      0.000
REMARK  Name = 11882078
REMARK  14 active torsions:
REMARK  status: ('A' for Active; 'I' for Inactive)
REMARK    1  A    between atoms: S_1  and  C_35
REMARK    2  A    between atoms: S_1  and  C_38
REMARK    3  A    between atoms: N_7  and  C_12
REMARK    4  A    between atoms: N_8  and  C_22
REMARK    5  A    between atoms: N_9  and  C_27
REMARK    6  A    between atoms: C_11  and  C_16
REMARK    7  A    between atoms: C_15  and  C_17
REMARK    8  A    between atoms: C_17  and  C_18
REMARK    9  A    between atoms: C_18  and  C_19
REMARK   10  A    between atoms: C_18  and  C_20
REMARK   11  A    between atoms: C_18  and  C_21
REMARK   12  A    between atoms: C_22  and  C_24
REMARK   13  A    between atoms: C_22  and  C_25
REMARK   14  A    between atoms: C_24  and  C_26
REMARK                            x       y       z     vdW  Elec       q    Type
REMARK                         _______ _______ _______ _____ _____    ______ ____
ROOT
ATOM      2  O   UNL     1      -2.376  -0.280  26.530  0.00  0.00    -0.276 OA
ATOM      6  N   UNL     1      -2.271   0.657  24.416  0.00  0.00    -0.288 N 
ATOM     11  C   UNL     1      -1.163   1.566  24.693  0.00  0.00    +0.182 C 
ATOM     12  C   UNL     1      -0.685   2.038  23.319  0.00  0.00    +0.105 C 
ATOM     13  C   UNL     1      -1.942   1.934  22.449  0.00  0.00    +0.043 C 
ATOM     14  C   UNL     1      -2.676   0.725  23.015  0.00  0.00    +0.110 C 
ATOM     15  C   UNL     1      -2.740  -0.251  25.353  0.00  0.00    +0.217 C 
ENDROOT
BRANCH  12   7
ATOM      4  O   UNL     1       1.757   1.377  24.660  0.00  0.00    -0.252 OA
ATOM      7  N   UNL     1       0.370   1.189  22.819  0.00  0.00    -0.294 N 
ATOM      9  N   UNL     1       2.374   0.069  22.811  0.00  0.00    -0.269 N 
ATOM     23  C   UNL     1       1.537   0.917  23.542  0.00  0.00    +0.304 C 
ATOM     39  H   UNL     1       0.234   0.718  21.931  0.00  0.00    +0.151 HD
ATOM     41  H   UNL     1       2.042  -0.221  21.895  0.00  0.00    +0.156 HD
BRANCH   9  27
ATOM     27  C   UNL     1       3.639  -0.439  23.188  0.00  0.00    +0.036 A 
ATOM     30  C   UNL     1       4.759   0.392  23.172  0.00  0.00    +0.038 A 
ATOM     31  C   UNL     1       3.766  -1.774  23.575  0.00  0.00    +0.023 A 
ATOM     35  C   UNL     1       6.006  -0.110  23.543  0.00  0.00    +0.009 A 
ATOM     36  C   UNL     1       5.013  -2.276  23.946  0.00  0.00    +0.003 A 
ATOM     37  C   UNL     1       6.133  -1.444  23.931  0.00  0.00    +0.015 A 
BRANCH  35   1
ATOM      1  S   UNL     1       7.438   0.951  23.525  0.00  0.00    -0.129 S 
ATOM     38  C   UNL     1       8.760  -0.222  23.109  0.00  0.00    +0.090 C 
ENDBRANCH  35   1
ENDBRANCH   9  27
ENDBRANCH  12   7
BRANCH  11  16
ATOM      3  O   UNL     1      -1.764   2.670  26.723  0.00  0.00    -0.274 OA
ATOM      8  N   UNL     1      -2.209   3.722  24.695  0.00  0.00    -0.302 N 
ATOM     16  C   UNL     1      -1.730   2.699  25.496  0.00  0.00    +0.236 C 
ATOM     40  H   UNL     1      -2.081   3.660  23.689  0.00  0.00    +0.150 HD
BRANCH   8  22
ATOM     22  C   UNL     1      -2.826   4.917  25.223  0.00  0.00    +0.163 C 
BRANCH  22  25
ATOM      5  O   UNL     1      -2.682   7.026  24.023  0.00  0.00    -0.274 OA
ATOM     10  N   UNL     1      -0.742   6.063  24.790  0.00  0.00    -0.328 N 
ATOM     25  C   UNL     1      -2.107   6.105  24.597  0.00  0.00    +0.231 C 
ATOM     42  H   UNL     1      -0.144   6.803  24.436  0.00  0.00    +0.145 HD
ATOM     43  H   UNL     1      -0.284   5.308  25.289  0.00  0.00    +0.145 HD
ENDBRANCH  22  25
BRANCH  22  24
ATOM     24  C   UNL     1      -4.326   4.979  24.917  0.00  0.00    +0.067 C 
BRANCH  24  26
ATOM     26  C   UNL     1      -5.031   3.672  25.185  0.00  0.00    -0.045 A 
ATOM     28  C   UNL     1      -5.220   2.757  24.149  0.00  0.00    +0.004 A 
ATOM     29  C   UNL     1      -5.494   3.379  26.467  0.00  0.00    +0.004 A 
ATOM     32  C   UNL     1      -5.871   1.548  24.396  0.00  0.00    +0.000 A 
ATOM     33  C   UNL     1      -6.145   2.171  26.715  0.00  0.00    +0.000 A 
ATOM     34  C   UNL     1      -6.334   1.255  25.679  0.00  0.00    +0.000 A 
ENDBRANCH  24  26
ENDBRANCH  22  24
ENDBRANCH   8  22
ENDBRANCH  11  16
BRANCH  15  17
ATOM     17  C   UNL     1      -3.765  -1.236  24.849  0.00  0.00    +0.102 C 
BRANCH  17  18
ATOM     18  C   UNL     1      -3.174  -2.632  24.587  0.00  0.00    -0.029 C 
ATOM     19  C   UNL     1      -3.226  -3.424  25.908  0.00  0.00    +0.011 C 
ATOM     20  C   UNL     1      -1.707  -2.538  24.131  0.00  0.00    +0.011 C 
ATOM     21  C   UNL     1      -3.990  -3.392  23.528  0.00  0.00    +0.011 C 
ENDBRANCH  17  18
ENDBRANCH  15  17
TORSDOF 10
ENDMDL
MODEL 2
REMARK VINA RESULT:      10.2      1.722      2.468
REMARK  Name = 11882078
REMARK  14 active torsions:
REMARK  status: ('A' for Active; 'I' for Inactive)
REMARK    1  A    between atoms: S_1  and  C_35
REMARK    2  A    between atoms: S_1  and  C_38
REMARK    3  A    between atoms: N_7  and  C_12
REMARK    4  A    between atoms: N_8  and  C_22
REMARK    5  A    between atoms: N_9  and  C_27
REMARK    6  A    between atoms: C_11  and  C_16
REMARK    7  A    between atoms: C_15  and  C_17
REMARK    8  A    between atoms: C_17  and  C_18
REMARK    9  A    between atoms: C_18  and  C_19
REMARK   10  A    between atoms: C_18  and  C_20
REMARK   11  A    between atoms: C_18  and  C_21
REMARK   12  A    between atoms: C_22  and  C_24
REMARK   13  A    between atoms: C_22  and  C_25
REMARK   14  A    between atoms: C_24  and  C_26
REMARK                            x       y       z     vdW  Elec       q    Type
REMARK                         _______ _______ _______ _____ _____    ______ ____
ROOT
ATOM      2  O   UNL     1      -1.347  -0.015  26.317  0.00  0.00    -0.276 OA
ATOM      6  N   UNL     1      -0.233  -0.123  24.291  0.00  0.00    -0.288 N 
ATOM     11  C   UNL     1       0.434   1.170  24.400  0.00  0.00    +0.182 C 
ATOM     12  C   UNL     1       1.516   1.151  23.320  0.00  0.00    +0.105 C 
ATOM     13  C   UNL     1       0.949   0.197  22.265  0.00  0.00    +0.043 C 
ATOM     14  C   UNL     1       0.176  -0.831  23.081  0.00  0.00    +0.110 C 
ATOM     15  C   UNL     1      -1.021  -0.641  25.308  0.00  0.00    +0.217 C 
ENDROOT
BRANCH  12   7
ATOM      4  O   UNL     1       4.051   1.136  21.987  0.00  0.00    -0.252 OA
ATOM      7  N   UNL     1       2.767   0.662  23.851  0.00  0.00    -0.294 N 
ATOM      9  N   UNL     1       5.005   0.153  23.894  0.00  0.00    -0.269 N 
ATOM     23  C   UNL     1       3.966   0.691  23.130  0.00  0.00    +0.304 C 
ATOM     39  H   UNL     1       2.792   0.340  24.813  0.00  0.00    +0.151 HD
ATOM     41  H   UNL     1       4.763  -0.173  24.826  0.00  0.00    +0.156 HD
BRANCH   9  27
ATOM     27  C   UNL     1       6.363   0.004  23.530  0.00  0.00    +0.036 A 
ATOM     30  C   UNL     1       7.312   0.924  23.978  0.00  0.00    +0.038 A 
ATOM     31  C   UNL     1       6.754  -1.063  22.719  0.00  0.00    +0.023 A 
ATOM     35  C   UNL     1       8.651   0.776  23.617  0.00  0.00    +0.009 A 
ATOM     36  C   UNL     1       8.092  -1.211  22.359  0.00  0.00    +0.003 A 
ATOM     37  C   UNL     1       9.042  -0.291  22.808  0.00  0.00    +0.015 A 
BRANCH  35   1
ATOM      1  S   UNL     1       9.864   1.949  24.189  0.00  0.00    -0.129 S 
ATOM     38  C   UNL     1      10.198   2.901  22.679  0.00  0.00    +0.090 C 
ENDBRANCH  35   1
ENDBRANCH   9  27
ENDBRANCH  12   7
BRANCH  11  16
ATOM      3  O   UNL     1      -1.038   2.404  22.981  0.00  0.00    -0.274 OA
ATOM      8  N   UNL     1      -0.976   2.910  25.252  0.00  0.00    -0.302 N 
ATOM     16  C   UNL     1      -0.607   2.212  24.115  0.00  0.00    +0.236 C 
ATOM     40  H   UNL     1      -0.589   2.629  26.149  0.00  0.00    +0.150 HD
BRANCH   8  22
ATOM     22  C   UNL     1      -1.944   3.982  25.243  0.00  0.00    +0.163 C 
BRANCH  22  25
ATOM      5  O   UNL     1      -0.003   5.302  24.613  0.00  0.00    -0.274 OA
ATOM     10  N   UNL     1      -1.984   6.390  25.024  0.00  0.00    -0.328 N 
ATOM     25  C   UNL     1      -1.186   5.268  24.941  0.00  0.00    +0.231 C 
ATOM     42  H   UNL     1      -1.606   7.312  24.833  0.00  0.00    +0.145 HD
ATOM     43  H   UNL     1      -2.967   6.343  25.272  0.00  0.00    +0.145 HD
ENDBRANCH  22  25
BRANCH  22  24
ATOM     24  C   UNL     1      -3.049   3.757  24.204  0.00  0.00    +0.067 C 
BRANCH  24  26
ATOM     26  C   UNL     1      -4.228   2.998  24.762  0.00  0.00    -0.045 A 
ATOM     28  C   UNL     1      -5.092   3.617  25.665  0.00  0.00    +0.004 A 
ATOM     29  C   UNL     1      -4.454   1.678  24.373  0.00  0.00    +0.004 A 
ATOM     32  C   UNL     1      -6.182   2.915  26.180  0.00  0.00    +0.000 A 
ATOM     33  C   UNL     1      -5.544   0.976  24.888  0.00  0.00    +0.000 A 
ATOM     34  C   UNL     1      -6.408   1.595  25.792  0.00  0.00    +0.000 A 
ENDBRANCH  24  26
ENDBRANCH  22  24
ENDBRANCH   8  22
ENDBRANCH  11  16
BRANCH  15  17
ATOM     17  C   UNL     1      -1.487  -2.063  25.110  0.00  0.00    +0.102 C 
BRANCH  17  18
ATOM     18  C   UNL     1      -3.003  -2.167  24.872  0.00  0.00    -0.029 C 
ATOM     19  C   UNL     1      -3.717  -1.630  26.127  0.00  0.00    +0.011 C 
ATOM     20  C   UNL     1      -3.431  -3.629  24.653  0.00  0.00    +0.011 C 
ATOM     21  C   UNL     1      -3.435  -1.321  23.662  0.00  0.00    +0.011 C 
ENDBRANCH  17  18
ENDBRANCH  15  17
TORSDOF 10
ENDMDL
