MODEL 1
REMARK VINA RESULT:      12.5      0.000      0.000
REMARK  Name = 51136901
REMARK  7 active torsions:
REMARK  status: ('A' for Active; 'I' for Inactive)
REMARK    1  A    between atoms: O_3  and  C_30
REMARK    2  A    between atoms: O_3  and  C_31
REMARK    3  A    between atoms: N_4  and  C_9
REMARK    4  A    between atoms: N_8  and  C_23
REMARK    5  A    between atoms: C_13  and  C_17
REMARK    6  A    between atoms: C_18  and  C_19
REMARK    7  A    between atoms: C_24  and  C_25
REMARK                            x       y       z     vdW  Elec       q    Type
REMARK                         _______ _______ _______ _____ _____    ______ ____
ROOT
ATOM      7  N   UNL     1       2.073   1.952  23.837  0.00  0.00    -0.239 NA
ATOM     19  C   UNL     1      -0.128   1.251  23.126  0.00  0.00    +0.041 A 
ATOM     20  C   UNL     1       0.431   0.200  22.406  0.00  0.00    +0.016 A 
ATOM     21  C   UNL     1       0.729   2.091  23.818  0.00  0.00    +0.124 A 
ATOM     22  C   UNL     1       1.811   0.025  22.401  0.00  0.00    +0.044 A 
ATOM     23  C   UNL     1       2.581   0.920  23.125  0.00  0.00    +0.125 A 
ENDROOT
BRANCH  19  18
ATOM      1  O   UNL     1      -3.519   2.103  22.643  0.00  0.00    -0.336 OA
ATOM      5  N   UNL     1      -2.332   0.925  24.133  0.00  0.00    -0.190 NA
ATOM      6  N   UNL     1      -2.186   2.174  22.221  0.00  0.00    -0.056 NA
ATOM     17  C   UNL     1      -3.516   1.350  23.774  0.00  0.00    +0.245 A 
ATOM     18  C   UNL     1      -1.547   1.457  23.149  0.00  0.00    +0.204 A 
BRANCH  17  13
ATOM      4  N   UNL     1      -4.726   0.537  25.786  0.00  0.00    -0.288 NA
ATOM     13  C   UNL     1      -4.860   1.120  24.435  0.00  0.00    +0.146 C 
ATOM     14  C   UNL     1      -5.871   1.020  26.562  0.00  0.00    +0.085 C 
ATOM     15  C   UNL     1      -5.653   2.423  24.645  0.00  0.00    +0.030 C 
ATOM     16  C   UNL     1      -5.946   2.473  26.138  0.00  0.00    +0.017 C 
BRANCH   4   9
ATOM      9  C   UNL     1      -4.722  -0.932  25.740  0.00  0.00    +0.057 C 
ATOM     10  C   UNL     1      -4.427  -1.403  24.301  0.00  0.00    +0.019 C 
ATOM     11  C   UNL     1      -3.321  -1.457  26.118  0.00  0.00    +0.019 C 
ATOM     12  C   UNL     1      -3.442  -2.419  24.918  0.00  0.00    +0.003 C 
ENDBRANCH   4   9
ENDBRANCH  17  13
ENDBRANCH  19  18
BRANCH  23   8
ATOM      2  O   UNL     1       4.225  -1.460  23.911  0.00  0.00    -0.270 OA
ATOM      8  N   UNL     1       3.968   0.735  23.113  0.00  0.00    -0.266 N 
ATOM     24  C   UNL     1       4.686  -0.404  23.494  0.00  0.00    +0.249 C 
ATOM     32  H   UNL     1       4.475   1.564  22.818  0.00  0.00    +0.157 HD
BRANCH  24  25
ATOM     25  C   UNL     1       6.161  -0.304  23.341  0.00  0.00    +0.037 A 
ATOM     26  C   UNL     1       6.847  -1.239  22.567  0.00  0.00    +0.016 A 
ATOM     27  C   UNL     1       6.860   0.725  23.974  0.00  0.00    +0.016 A 
ATOM     28  C   UNL     1       8.231  -1.145  22.425  0.00  0.00    +0.046 A 
ATOM     29  C   UNL     1       8.244   0.819  23.833  0.00  0.00    +0.046 A 
ATOM     30  C   UNL     1       8.930  -0.117  23.057  0.00  0.00    +0.120 A 
BRANCH  30   3
ATOM      3  O   UNL     1      10.281  -0.026  22.919  0.00  0.00    -0.495 OA
ATOM     31  C   UNL     1      10.774   0.902  21.954  0.00  0.00    +0.277 C 
ENDBRANCH  30   3
ENDBRANCH  24  25
ENDBRANCH  23   8
TORSDOF 6
ENDMDL
MODEL 2
REMARK VINA RESULT:      12.8      1.413      2.582
REMARK  Name = 51136901
REMARK  7 active torsions:
REMARK  status: ('A' for Active; 'I' for Inactive)
REMARK    1  A    between atoms: O_3  and  C_30
REMARK    2  A    between atoms: O_3  and  C_31
REMARK    3  A    between atoms: N_4  and  C_9
REMARK    4  A    between atoms: N_8  and  C_23
REMARK    5  A    between atoms: C_13  and  C_17
REMARK    6  A    between atoms: C_18  and  C_19
REMARK    7  A    between atoms: C_24  and  C_25
REMARK                            x       y       z     vdW  Elec       q    Type
REMARK                         _______ _______ _______ _____ _____    ______ ____
ROOT
ATOM      7  N   UNL     1       2.285   1.766  23.894  0.00  0.00    -0.239 NA
ATOM     19  C   UNL     1       0.077   0.868  23.494  0.00  0.00    +0.041 A 
ATOM     20  C   UNL     1       0.634  -0.248  22.878  0.00  0.00    +0.016 A 
ATOM     21  C   UNL     1       0.938   1.837  23.980  0.00  0.00    +0.124 A 
ATOM     22  C   UNL     1       2.016  -0.357  22.769  0.00  0.00    +0.044 A 
ATOM     23  C   UNL     1       2.790   0.666  23.288  0.00  0.00    +0.125 A 
ENDROOT
BRANCH  19  18
ATOM      1  O   UNL     1      -3.436   1.022  23.183  0.00  0.00    -0.336 OA
ATOM      5  N   UNL     1      -1.923   1.419  24.786  0.00  0.00    -0.190 NA
ATOM      6  N   UNL     1      -2.186   0.752  22.614  0.00  0.00    -0.056 NA
ATOM     17  C   UNL     1      -3.191   1.409  24.463  0.00  0.00    +0.245 A 
ATOM     18  C   UNL     1      -1.345   1.009  23.619  0.00  0.00    +0.204 A 
BRANCH  17  13
ATOM      4  N   UNL     1      -5.076   2.986  24.829  0.00  0.00    -0.288 NA
ATOM     13  C   UNL     1      -4.400   1.760  25.304  0.00  0.00    +0.146 C 
ATOM     14  C   UNL     1      -6.494   2.832  25.157  0.00  0.00    +0.085 C 
ATOM     15  C   UNL     1      -5.490   0.672  25.268  0.00  0.00    +0.030 C 
ATOM     16  C   UNL     1      -6.747   1.384  24.789  0.00  0.00    +0.017 C 
BRANCH   4   9
ATOM      9  C   UNL     1      -4.527   4.187  25.475  0.00  0.00    +0.057 C 
ATOM     10  C   UNL     1      -3.553   3.771  26.596  0.00  0.00    +0.019 C 
ATOM     11  C   UNL     1      -3.293   4.679  24.689  0.00  0.00    +0.019 C 
ATOM     12  C   UNL     1      -2.589   4.846  26.052  0.00  0.00    +0.003 C 
ENDBRANCH   4   9
ENDBRANCH  17  13
ENDBRANCH  19  18
BRANCH  23   8
ATOM      2  O   UNL     1       4.635  -1.490  24.254  0.00  0.00    -0.270 OA
ATOM      8  N   UNL     1       4.180   0.547  23.174  0.00  0.00    -0.266 N 
ATOM     24  C   UNL     1       4.994  -0.488  23.646  0.00  0.00    +0.249 C 
ATOM     32  H   UNL     1       4.610   1.345  22.715  0.00  0.00    +0.157 HD
BRANCH  24  25
ATOM     25  C   UNL     1       6.443  -0.344  23.344  0.00  0.00    +0.037 A 
ATOM     26  C   UNL     1       7.169   0.710  23.897  0.00  0.00    +0.016 A 
ATOM     27  C   UNL     1       7.075  -1.263  22.506  0.00  0.00    +0.016 A 
ATOM     28  C   UNL     1       8.528   0.845  23.613  0.00  0.00    +0.046 A 
ATOM     29  C   UNL     1       8.433  -1.128  22.220  0.00  0.00    +0.046 A 
ATOM     30  C   UNL     1       9.160  -0.073  22.775  0.00  0.00    +0.120 A 
BRANCH  30   3
ATOM      3  O   UNL     1      10.486   0.058  22.496  0.00  0.00    -0.495 OA
ATOM     31  C   UNL     1      10.871   1.154  21.668  0.00  0.00    +0.277 C 
ENDBRANCH  30   3
ENDBRANCH  24  25
ENDBRANCH  23   8
TORSDOF 6
ENDMDL
MODEL 3
REMARK VINA RESULT:      15.6      1.402      2.214
REMARK  Name = 51136901
REMARK  7 active torsions:
REMARK  status: ('A' for Active; 'I' for Inactive)
REMARK    1  A    between atoms: O_3  and  C_30
REMARK    2  A    between atoms: O_3  and  C_31
REMARK    3  A    between atoms: N_4  and  C_9
REMARK    4  A    between atoms: N_8  and  C_23
REMARK    5  A    between atoms: C_13  and  C_17
REMARK    6  A    between atoms: C_18  and  C_19
REMARK    7  A    between atoms: C_24  and  C_25
REMARK                            x       y       z     vdW  Elec       q    Type
REMARK                         _______ _______ _______ _____ _____    ______ ____
ROOT
ATOM      7  N   UNL     1       2.029   1.842  23.891  0.00  0.00    -0.239 NA
ATOM     19  C   UNL     1      -0.182   0.939  23.520  0.00  0.00    +0.041 A 
ATOM     20  C   UNL     1       0.372  -0.212  22.969  0.00  0.00    +0.016 A 
ATOM     21  C   UNL     1       0.682   1.926  23.962  0.00  0.00    +0.124 A 
ATOM     22  C   UNL     1       1.755  -0.336  22.878  0.00  0.00    +0.044 A 
ATOM     23  C   UNL     1       2.531   0.709  23.349  0.00  0.00    +0.125 A 
ENDROOT
BRANCH  19  18
ATOM      1  O   UNL     1      -3.695   0.675  23.753  0.00  0.00    -0.336 OA
ATOM      5  N   UNL     1      -2.184   2.328  23.716  0.00  0.00    -0.190 NA
ATOM      6  N   UNL     1      -2.444   0.057  23.641  0.00  0.00    -0.056 NA
ATOM     17  C   UNL     1      -3.451   2.012  23.791  0.00  0.00    +0.245 A 
ATOM     18  C   UNL     1      -1.604   1.095  23.626  0.00  0.00    +0.204 A 
BRANCH  17  13
ATOM      4  N   UNL     1      -5.151   3.009  25.304  0.00  0.00    -0.288 NA
ATOM     13  C   UNL     1      -4.661   2.914  23.913  0.00  0.00    +0.146 C 
ATOM     14  C   UNL     1      -5.746   4.339  25.446  0.00  0.00    +0.085 C 
ATOM     15  C   UNL     1      -4.366   4.369  23.501  0.00  0.00    +0.030 C 
ATOM     16  C   UNL     1      -4.747   5.210  24.710  0.00  0.00    +0.017 C 
BRANCH   4   9
ATOM      9  C   UNL     1      -6.147   1.968  25.596  0.00  0.00    +0.057 C 
ATOM     10  C   UNL     1      -5.467   0.793  26.329  0.00  0.00    +0.019 C 
ATOM     11  C   UNL     1      -6.856   2.290  26.928  0.00  0.00    +0.019 C 
ATOM     12  C   UNL     1      -6.668   0.803  27.298  0.00  0.00    +0.003 C 
ENDBRANCH   4   9
ENDBRANCH  17  13
ENDBRANCH  19  18
BRANCH  23   8
ATOM      2  O   UNL     1       4.303  -1.613  24.021  0.00  0.00    -0.270 OA
ATOM      8  N   UNL     1       3.921   0.574  23.253  0.00  0.00    -0.266 N 
ATOM     24  C   UNL     1       4.700  -0.539  23.583  0.00  0.00    +0.249 C 
ATOM     32  H   UNL     1       4.380   1.422  22.932  0.00  0.00    +0.157 HD
BRANCH  24  25
ATOM     25  C   UNL     1       6.160  -0.386  23.343  0.00  0.00    +0.037 A 
ATOM     26  C   UNL     1       6.848   0.693  23.896  0.00  0.00    +0.016 A 
ATOM     27  C   UNL     1       6.840  -1.322  22.563  0.00  0.00    +0.016 A 
ATOM     28  C   UNL     1       8.217   0.836  23.670  0.00  0.00    +0.046 A 
ATOM     29  C   UNL     1       8.208  -1.179  22.336  0.00  0.00    +0.046 A 
ATOM     30  C   UNL     1       8.897  -0.099  22.890  0.00  0.00    +0.120 A 
BRANCH  30   3
ATOM      3  O   UNL     1      10.233   0.041  22.669  0.00  0.00    -0.495 OA
ATOM     31  C   UNL     1      10.655   1.199  21.952  0.00  0.00    +0.277 C 
ENDBRANCH  30   3
ENDBRANCH  24  25
ENDBRANCH  23   8
TORSDOF 6
ENDMDL
