MODEL 1
REMARK VINA RESULT:      -1.6      0.000      0.000
REMARK  Name = 45361080
REMARK  6 active torsions:
REMARK  status: ('A' for Active; 'I' for Inactive)
REMARK    1  A    between atoms: N_4  and  C_17
REMARK    2  A    between atoms: N_5  and  C_16
REMARK    3  A    between atoms: C_12  and  C_15
REMARK    4  A    between atoms: C_15  and  C_18
REMARK    5  A    between atoms: C_16  and  C_19
REMARK    6  A    between atoms: C_18  and  C_20
REMARK                            x       y       z     vdW  Elec       q    Type
REMARK                         _______ _______ _______ _____ _____    ______ ____
ROOT
ATOM      1  O   UNL     1      -0.531   1.968  24.044  0.00  0.00    -0.274 OA
ATOM      4  N   UNL     1      -2.809  -0.944  25.195  0.00  0.00    -0.296 NA
ATOM      5  N   UNL     1       0.557  -0.495  23.829  0.00  0.00    -0.286 NA
ATOM      6  N   UNL     1      -2.631   1.316  23.410  0.00  0.00    -0.312 N 
ATOM      8  C   UNL     1      -1.605  -1.398  24.461  0.00  0.00    +0.084 C 
ATOM      9  C   UNL     1      -0.882  -0.385  23.526  0.00  0.00    +0.161 C 
ATOM     10  C   UNL     1      -0.458  -1.868  25.373  0.00  0.00    +0.036 C 
ATOM     11  C   UNL     1       0.761  -1.785  24.478  0.00  0.00    +0.087 C 
ATOM     12  C   UNL     1      -3.956  -0.567  24.323  0.00  0.00    +0.074 C 
ATOM     13  C   UNL     1      -1.303   1.072  23.704  0.00  0.00    +0.232 C 
ATOM     14  C   UNL     1      -3.583   0.271  23.086  0.00  0.00    +0.123 C 
ATOM     17  C   UNL     1      -3.228  -1.951  26.184  0.00  0.00    +0.105 C 
ATOM     30  H   UNL     1      -2.955   2.278  23.432  0.00  0.00    +0.149 HD
ENDROOT
BRANCH  12  15
ATOM     15  C   UNL     1      -5.004   0.231  25.127  0.00  0.00    +0.029 C 
BRANCH  15  18
ATOM     18  C   UNL     1      -5.235   1.612  24.544  0.00  0.00    +0.097 C 
BRANCH  18  20
ATOM      2  O   UNL     1      -5.896   2.568  26.609  0.00  0.00    -0.276 OA
ATOM      3  O   UNL     1      -2.038   5.422  25.413  0.00  0.00    -0.377 OA
ATOM      7  N   UNL     1      -4.286   3.722  25.400  0.00  0.00    -0.297 N 
ATOM     20  C   UNL     1      -5.176   2.672  25.614  0.00  0.00    +0.216 C 
ATOM     23  C   UNL     1      -4.162   4.791  26.390  0.00  0.00    +0.136 C 
ATOM     24  C   UNL     1      -3.511   3.944  24.173  0.00  0.00    +0.136 C 
ATOM     27  C   UNL     1      -2.697   5.112  26.644  0.00  0.00    +0.179 C 
ATOM     28  C   UNL     1      -2.071   4.306  24.518  0.00  0.00    +0.179 C 
ENDBRANCH  18  20
ENDBRANCH  15  18
ENDBRANCH  12  15
BRANCH   5  16
ATOM     16  C   UNL     1       1.409  -0.329  22.658  0.00  0.00    +0.120 C 
BRANCH  16  19
ATOM     19  C   UNL     1       2.864  -0.244  23.031  0.00  0.00    -0.033 A 
ATOM     21  C   UNL     1       3.569   0.942  22.823  0.00  0.00    +0.005 A 
ATOM     22  C   UNL     1       3.509  -1.350  23.584  0.00  0.00    +0.005 A 
ATOM     25  C   UNL     1       4.918   1.022  23.169  0.00  0.00    +0.000 A 
ATOM     26  C   UNL     1       4.858  -1.271  23.929  0.00  0.00    +0.000 A 
ATOM     29  C   UNL     1       5.563  -0.085  23.721  0.00  0.00    +0.000 A 
ENDBRANCH  16  19
ENDBRANCH   5  16
TORSDOF 5
ENDMDL
MODEL 2
REMARK VINA RESULT:      -1.4      1.848      6.911
REMARK  Name = 45361080
REMARK  6 active torsions:
REMARK  status: ('A' for Active; 'I' for Inactive)
REMARK    1  A    between atoms: N_4  and  C_17
REMARK    2  A    between atoms: N_5  and  C_16
REMARK    3  A    between atoms: C_12  and  C_15
REMARK    4  A    between atoms: C_15  and  C_18
REMARK    5  A    between atoms: C_16  and  C_19
REMARK    6  A    between atoms: C_18  and  C_20
REMARK                            x       y       z     vdW  Elec       q    Type
REMARK                         _______ _______ _______ _____ _____    ______ ____
ROOT
ATOM      1  O   UNL     1      -2.985   2.240  22.639  0.00  0.00    -0.274 OA
ATOM      4  N   UNL     1      -2.845  -1.113  24.572  0.00  0.00    -0.296 NA
ATOM      5  N   UNL     1      -4.892   1.921  24.525  0.00  0.00    -0.286 NA
ATOM      6  N   UNL     1      -1.328   1.235  23.857  0.00  0.00    -0.312 N 
ATOM      8  C   UNL     1      -3.761  -0.123  25.183  0.00  0.00    +0.084 C 
ATOM      9  C   UNL     1      -3.557   1.383  24.845  0.00  0.00    +0.161 C 
ATOM     10  C   UNL     1      -5.242  -0.335  24.822  0.00  0.00    +0.036 C 
ATOM     11  C   UNL     1      -5.872   1.012  25.109  0.00  0.00    +0.087 C 
ATOM     12  C   UNL     1      -1.420  -0.969  24.982  0.00  0.00    +0.074 C 
ATOM     13  C   UNL     1      -2.629   1.660  23.664  0.00  0.00    +0.232 C 
ATOM     14  C   UNL     1      -0.897   0.479  25.017  0.00  0.00    +0.123 C 
ATOM     17  C   UNL     1      -3.314  -2.485  24.825  0.00  0.00    +0.105 C 
ATOM     30  H   UNL     1      -0.643   1.460  23.143  0.00  0.00    +0.149 HD
ENDROOT
BRANCH  12  15
ATOM     15  C   UNL     1      -0.504  -1.772  24.035  0.00  0.00    +0.029 C 
BRANCH  15  18
ATOM     18  C   UNL     1       0.963  -1.465  24.271  0.00  0.00    +0.097 C 
BRANCH  18  20
ATOM      2  O   UNL     1       0.745   0.066  22.474  0.00  0.00    -0.276 OA
ATOM      3  O   UNL     1       5.639   0.097  23.182  0.00  0.00    -0.377 OA
ATOM      7  N   UNL     1       2.905  -0.569  23.040  0.00  0.00    -0.297 N 
ATOM     20  C   UNL     1       1.518  -0.586  23.178  0.00  0.00    +0.216 C 
ATOM     23  C   UNL     1       3.527   0.261  22.009  0.00  0.00    +0.136 C 
ATOM     24  C   UNL     1       3.844  -1.425  23.773  0.00  0.00    +0.136 C 
ATOM     27  C   UNL     1       4.720   1.013  22.581  0.00  0.00    +0.179 C 
ATOM     28  C   UNL     1       5.028  -0.604  24.269  0.00  0.00    +0.179 C 
ENDBRANCH  18  20
ENDBRANCH  15  18
ENDBRANCH  12  15
BRANCH   5  16
ATOM     16  C   UNL     1      -5.085   3.295  24.971  0.00  0.00    +0.120 C 
BRANCH  16  19
ATOM     19  C   UNL     1      -3.787   4.055  25.021  0.00  0.00    -0.033 A 
ATOM     21  C   UNL     1      -3.518   5.039  24.069  0.00  0.00    +0.005 A 
ATOM     22  C   UNL     1      -2.852   3.776  26.018  0.00  0.00    +0.005 A 
ATOM     25  C   UNL     1      -2.315   5.744  24.114  0.00  0.00    +0.000 A 
ATOM     26  C   UNL     1      -1.649   4.481  26.064  0.00  0.00    +0.000 A 
ATOM     29  C   UNL     1      -1.380   5.465  25.111  0.00  0.00    +0.000 A 
ENDBRANCH  16  19
ENDBRANCH   5  16
TORSDOF 5
ENDMDL
MODEL 3
REMARK VINA RESULT:       0.6     14.378     16.819
REMARK  Name = 45361080
REMARK  6 active torsions:
REMARK  status: ('A' for Active; 'I' for Inactive)
REMARK    1  A    between atoms: N_4  and  C_17
REMARK    2  A    between atoms: N_5  and  C_16
REMARK    3  A    between atoms: C_12  and  C_15
REMARK    4  A    between atoms: C_15  and  C_18
REMARK    5  A    between atoms: C_16  and  C_19
REMARK    6  A    between atoms: C_18  and  C_20
REMARK                            x       y       z     vdW  Elec       q    Type
REMARK                         _______ _______ _______ _____ _____    ______ ____
ROOT
ATOM      1  O   UNL     1      -6.993  -8.224  16.737  0.00  0.00    -0.274 OA
ATOM      4  N   UNL     1      -8.507  -9.577  13.440  0.00  0.00    -0.296 NA
ATOM      5  N   UNL     1      -9.056  -9.940  17.040  0.00  0.00    -0.286 NA
ATOM      6  N   UNL     1      -6.068  -9.332  14.961  0.00  0.00    -0.312 N 
ATOM      8  C   UNL     1      -8.980 -10.301  14.642  0.00  0.00    +0.084 C 
ATOM      9  C   UNL     1      -8.120 -10.228  15.937  0.00  0.00    +0.161 C 
ATOM     10  C   UNL     1     -10.360  -9.842  15.145  0.00  0.00    +0.036 C 
ATOM     11  C   UNL     1     -10.388 -10.320  16.582  0.00  0.00    +0.087 C 
ATOM     12  C   UNL     1      -7.212 -10.070  12.893  0.00  0.00    +0.074 C 
ATOM     13  C   UNL     1      -7.035  -9.154  15.932  0.00  0.00    +0.232 C 
ATOM     14  C   UNL     1      -6.133 -10.369  13.950  0.00  0.00    +0.123 C 
ATOM     17  C   UNL     1      -9.539  -9.577  12.390  0.00  0.00    +0.105 C 
ATOM     30  H   UNL     1      -5.276  -8.697  14.955  0.00  0.00    +0.149 HD
ENDROOT
BRANCH  12  15
ATOM     15  C   UNL     1      -6.621  -9.046  11.901  0.00  0.00    +0.029 C 
BRANCH  15  18
ATOM     18  C   UNL     1      -6.109  -9.710  10.638  0.00  0.00    +0.097 C 
BRANCH  18  20
ATOM      2  O   UNL     1      -4.920  -8.101   9.367  0.00  0.00    -0.276 OA
ATOM      3  O   UNL     1      -1.289 -10.050  12.101  0.00  0.00    -0.377 OA
ATOM      7  N   UNL     1      -3.646  -9.572  10.632  0.00  0.00    -0.297 N 
ATOM     20  C   UNL     1      -4.844  -9.051  10.149  0.00  0.00    +0.216 C 
ATOM     23  C   UNL     1      -2.372  -8.989  10.213  0.00  0.00    +0.136 C 
ATOM     24  C   UNL     1      -3.514 -10.777  11.460  0.00  0.00    +0.136 C 
ATOM     27  C   UNL     1      -1.451  -8.808  11.411  0.00  0.00    +0.179 C 
ATOM     28  C   UNL     1      -2.541 -10.525  12.605  0.00  0.00    +0.179 C 
ENDBRANCH  18  20
ENDBRANCH  15  18
ENDBRANCH  12  15
BRANCH   5  16
ATOM     16  C   UNL     1      -8.697 -10.600  18.289  0.00  0.00    +0.120 C 
BRANCH  16  19
ATOM     19  C   UNL     1      -7.206 -10.662  18.482  0.00  0.00    -0.033 A 
ATOM     21  C   UNL     1      -6.361 -10.721  17.373  0.00  0.00    +0.005 A 
ATOM     22  C   UNL     1      -6.668 -10.663  19.769  0.00  0.00    +0.005 A 
ATOM     25  C   UNL     1      -4.979 -10.779  17.552  0.00  0.00    +0.000 A 
ATOM     26  C   UNL     1      -5.286 -10.721  19.947  0.00  0.00    +0.000 A 
ATOM     29  C   UNL     1      -4.441 -10.780  18.838  0.00  0.00    +0.000 A 
ENDBRANCH  16  19
ENDBRANCH   5  16
TORSDOF 5
ENDMDL
MODEL 4
REMARK VINA RESULT:       1.4      1.768      3.862
REMARK  Name = 45361080
REMARK  6 active torsions:
REMARK  status: ('A' for Active; 'I' for Inactive)
REMARK    1  A    between atoms: N_4  and  C_17
REMARK    2  A    between atoms: N_5  and  C_16
REMARK    3  A    between atoms: C_12  and  C_15
REMARK    4  A    between atoms: C_15  and  C_18
REMARK    5  A    between atoms: C_16  and  C_19
REMARK    6  A    between atoms: C_18  and  C_20
REMARK                            x       y       z     vdW  Elec       q    Type
REMARK                         _______ _______ _______ _____ _____    ______ ____
ROOT
ATOM      1  O   UNL     1       0.753   1.812  25.877  0.00  0.00    -0.274 OA
ATOM      4  N   UNL     1      -2.190   1.442  23.388  0.00  0.00    -0.296 NA
ATOM      5  N   UNL     1       1.435   0.938  23.415  0.00  0.00    -0.286 NA
ATOM      6  N   UNL     1      -0.828   3.291  25.136  0.00  0.00    -0.312 N 
ATOM      8  C   UNL     1      -0.861   1.342  22.743  0.00  0.00    +0.084 C 
ATOM      9  C   UNL     1       0.368   1.953  23.478  0.00  0.00    +0.161 C 
ATOM     10  C   UNL     1      -0.397  -0.103  22.486  0.00  0.00    +0.036 C 
ATOM     11  C   UNL     1       1.102   0.033  22.320  0.00  0.00    +0.087 C 
ATOM     12  C   UNL     1      -2.687   2.834  23.564  0.00  0.00    +0.074 C 
ATOM     13  C   UNL     1       0.130   2.313  24.943  0.00  0.00    +0.232 C 
ATOM     14  C   UNL     1      -1.634   3.842  24.064  0.00  0.00    +0.123 C 
ATOM     17  C   UNL     1      -3.184   0.631  22.666  0.00  0.00    +0.105 C 
ATOM     30  H   UNL     1      -0.977   3.632  26.080  0.00  0.00    +0.149 HD
ENDROOT
BRANCH  12  15
ATOM     15  C   UNL     1      -3.867   2.864  24.558  0.00  0.00    +0.029 C 
BRANCH  15  18
ATOM     18  C   UNL     1      -3.662   1.901  25.711  0.00  0.00    +0.097 C 
BRANCH  18  20
ATOM      2  O   UNL     1      -5.377   0.430  24.994  0.00  0.00    -0.276 OA
ATOM      3  O   UNL     1      -1.484  -2.618  25.135  0.00  0.00    -0.377 OA
ATOM      7  N   UNL     1      -3.342  -0.541  25.550  0.00  0.00    -0.297 N 
ATOM     20  C   UNL     1      -4.213   0.535  25.386  0.00  0.00    +0.216 C 
ATOM     23  C   UNL     1      -3.794  -1.899  25.253  0.00  0.00    +0.136 C 
ATOM     24  C   UNL     1      -1.998  -0.466  26.133  0.00  0.00    +0.136 C 
ATOM     27  C   UNL     1      -2.739  -2.645  24.448  0.00  0.00    +0.179 C 
ATOM     28  C   UNL     1      -1.015  -1.276  25.295  0.00  0.00    +0.179 C 
ENDBRANCH  18  20
ENDBRANCH  15  18
ENDBRANCH  12  15
BRANCH   5  16
ATOM     16  C   UNL     1       2.768   1.508  23.268  0.00  0.00    +0.120 C 
BRANCH  16  19
ATOM     19  C   UNL     1       3.845   0.475  23.463  0.00  0.00    -0.033 A 
ATOM     21  C   UNL     1       3.501  -0.867  23.629  0.00  0.00    +0.005 A 
ATOM     22  C   UNL     1       5.186   0.859  23.480  0.00  0.00    +0.005 A 
ATOM     25  C   UNL     1       4.499  -1.825  23.811  0.00  0.00    +0.000 A 
ATOM     26  C   UNL     1       6.183  -0.100  23.661  0.00  0.00    +0.000 A 
ATOM     29  C   UNL     1       5.840  -1.442  23.827  0.00  0.00    +0.000 A 
ENDBRANCH  16  19
ENDBRANCH   5  16
TORSDOF 5
ENDMDL
