MODEL 1
REMARK VINA RESULT:       5.6      0.000      0.000
REMARK  Name = 7144127
REMARK  2 active torsions:
REMARK  status: ('A' for Active; 'I' for Inactive)
REMARK    1  A    between atoms: C_14  and  C_19
REMARK    2  A    between atoms: C_16  and  C_20
REMARK                            x       y       z     vdW  Elec       q    Type
REMARK                         _______ _______ _______ _____ _____    ______ ____
ROOT
ATOM      3  O   UNL     1      -2.789   4.007  28.065  0.00  0.00    -0.268 OA
ATOM      4  O   UNL     1      -5.796   0.972  25.328  0.00  0.00    -0.270 OA
ATOM      5  N   UNL     1      -4.226   1.857  23.839  0.00  0.00    -0.297 N 
ATOM      6  N   UNL     1      -2.398   3.517  25.807  0.00  0.00    -0.311 N 
ATOM      7  C   UNL     1      -3.990   4.324  23.965  0.00  0.00    +0.027 C 
ATOM      8  C   UNL     1      -2.037   2.944  23.387  0.00  0.00    +0.054 C 
ATOM      9  C   UNL     1      -2.759   4.254  23.073  0.00  0.00    +0.018 C 
ATOM     10  C   UNL     1      -4.924   3.132  23.693  0.00  0.00    +0.113 C 
ATOM     11  C   UNL     1      -3.531   4.371  25.423  0.00  0.00    +0.130 C 
ATOM     12  C   UNL     1      -2.970   1.754  23.081  0.00  0.00    +0.117 C 
ATOM     13  C   UNL     1      -1.580   2.888  24.847  0.00  0.00    +0.034 A 
ATOM     14  C   UNL     1      -0.454   2.237  25.239  0.00  0.00    +0.002 A 
ATOM     15  C   UNL     1      -2.117   3.467  27.185  0.00  0.00    +0.252 A 
ATOM     16  C   UNL     1      -4.745   0.882  24.695  0.00  0.00    +0.247 C 
ATOM     17  C   UNL     1      -0.134   2.163  26.651  0.00  0.00    +0.015 A 
ATOM     18  C   UNL     1      -0.905   2.717  27.585  0.00  0.00    +0.071 A 
ENDROOT
BRANCH  14  19
ATOM      1 CL   UNL     1       3.193  -0.399  21.294  0.00  0.00    -0.084 Cl
ATOM     19  C   UNL     1       0.447   1.585  24.263  0.00  0.00    -0.016 A 
ATOM     21  C   UNL     1       0.099   0.355  23.714  0.00  0.00    +0.010 A 
ATOM     22  C   UNL     1       1.638   2.207  23.900  0.00  0.00    +0.010 A 
ATOM     25  C   UNL     1       0.949  -0.260  22.796  0.00  0.00    +0.020 A 
ATOM     26  C   UNL     1       2.488   1.593  22.980  0.00  0.00    +0.020 A 
ATOM     27  C   UNL     1       2.144   0.359  22.428  0.00  0.00    +0.041 A 
ENDBRANCH  14  19
BRANCH  16  20
ATOM      2  F   UNL     1      -1.825  -3.832  25.416  0.00  0.00    -0.205 F 
ATOM     20  C   UNL     1      -3.979  -0.355  24.884  0.00  0.00    +0.037 A 
ATOM     23  C   UNL     1      -4.301  -1.490  24.144  0.00  0.00    +0.016 A 
ATOM     24  C   UNL     1      -2.932  -0.388  25.803  0.00  0.00    +0.016 A 
ATOM     28  C   UNL     1      -3.572  -2.667  24.324  0.00  0.00    +0.039 A 
ATOM     29  C   UNL     1      -2.204  -1.564  25.982  0.00  0.00    +0.039 A 
ATOM     30  C   UNL     1      -2.525  -2.703  25.244  0.00  0.00    +0.123 A 
ENDBRANCH  16  20
TORSDOF 2
ENDMDL
