MODEL 1
REMARK VINA RESULT:      -1.1      0.000      0.000
REMARK  Name = 71693171
REMARK  12 active torsions:
REMARK  status: ('A' for Active; 'I' for Inactive)
REMARK    1  A    between atoms: O_2  and  C_31
REMARK    2  A    between atoms: O_2  and  C_34
REMARK    3  A    between atoms: N_4  and  C_16
REMARK    4  A    between atoms: C_9  and  C_13
REMARK    5  A    between atoms: C_10  and  C_16
REMARK    6  A    between atoms: C_12  and  C_17
REMARK    7  A    between atoms: C_13  and  C_18
REMARK    8  A    between atoms: C_13  and  C_19
REMARK    9  A    between atoms: C_14  and  C_20
REMARK   10  A    between atoms: C_17  and  C_21
REMARK   11  A    between atoms: C_22  and  C_27
REMARK   12  A    between atoms: C_28  and  C_31
REMARK                            x       y       z     vdW  Elec       q    Type
REMARK                         _______ _______ _______ _____ _____    ______ ____
ROOT
ATOM      9  C   UNL     1      -4.272   3.340  25.381  0.00  0.00    +0.000 C 
ATOM     10  C   UNL     1      -3.884   3.823  23.962  0.00  0.00    +0.032 C 
ATOM     11  C   UNL     1      -3.719   4.301  26.445  0.00  0.00    +0.012 C 
ATOM     12  C   UNL     1      -2.185   4.426  26.376  0.00  0.00    +0.022 C 
ATOM     14  C   UNL     1      -1.701   4.637  24.955  0.00  0.00    -0.073 C 
ATOM     15  C   UNL     1      -2.480   4.375  23.889  0.00  0.00    -0.022 C 
ATOM     20  C   UNL     1      -0.318   5.201  24.788  0.00  0.00    +0.039 C 
ENDROOT
BRANCH   9  13
ATOM     13  C   UNL     1      -5.791   3.209  25.541  0.00  0.00    -0.013 C 
ATOM     18  C   UNL     1      -6.423   4.579  25.763  0.00  0.00    +0.007 C 
ATOM     19  C   UNL     1      -6.124   2.266  26.694  0.00  0.00    +0.007 C 
ENDBRANCH   9  13
BRANCH  10  16
ATOM     16  C   UNL     1      -4.044   2.699  22.932  0.00  0.00    +0.112 C 
BRANCH  16   4
ATOM      1  O   UNL     1      -5.828   0.708  23.981  0.00  0.00    -0.268 OA
ATOM      4  N   UNL     1      -3.678   1.438  23.497  0.00  0.00    -0.309 N 
ATOM     22  C   UNL     1      -4.613   0.525  23.984  0.00  0.00    +0.264 C 
ATOM     35  H   UNL     1      -2.697   1.177  23.508  0.00  0.00    +0.149 HD
BRANCH  22  27
ATOM      7  N   UNL     1      -3.595  -0.659  25.823  0.00  0.00    -0.247 NA
ATOM      8  N   UNL     1      -3.564  -3.051  24.358  0.00  0.00    -0.259 NA
ATOM     27  C   UNL     1      -4.071  -0.731  24.564  0.00  0.00    +0.143 A 
ATOM     30  C   UNL     1      -4.056  -1.905  23.845  0.00  0.00    +0.143 A 
ATOM     32  C   UNL     1      -3.103  -1.803  26.336  0.00  0.00    +0.131 A 
ATOM     33  C   UNL     1      -3.088  -2.978  25.618  0.00  0.00    +0.130 A 
ENDBRANCH  22  27
ENDBRANCH  16   4
ENDBRANCH  10  16
BRANCH  12  17
ATOM     17  C   UNL     1      -1.503   3.211  27.012  0.00  0.00    +0.082 C 
BRANCH  17  21
ATOM      5  N   UNL     1       0.443   2.550  25.585  0.00  0.00    -0.342 N 
ATOM      6  N   UNL     1      -1.399   1.329  25.342  0.00  0.00    -0.232 NA
ATOM     21  C   UNL     1      -0.851   2.341  25.975  0.00  0.00    +0.109 A 
ATOM     23  C   UNL     1       0.750   1.608  24.636  0.00  0.00    +0.067 A 
ATOM     24  C   UNL     1      -0.415   0.858  24.502  0.00  0.00    +0.089 A 
ATOM     25  C   UNL     1       1.912   1.356  23.907  0.00  0.00    +0.042 A 
ATOM     26  C   UNL     1      -0.441  -0.210  23.591  0.00  0.00    +0.030 A 
ATOM     28  C   UNL     1       1.869   0.289  23.004  0.00  0.00    +0.061 A 
ATOM     29  C   UNL     1       0.715  -0.482  22.847  0.00  0.00    +0.017 A 
ATOM     36  H   UNL     1       1.064   3.269  25.933  0.00  0.00    +0.167 HD
BRANCH  28  31
ATOM      3  O   UNL     1       3.158   0.196  21.000  0.00  0.00    -0.245 OA
ATOM     31  C   UNL     1       3.051  -0.023  22.214  0.00  0.00    +0.339 C 
BRANCH  31   2
ATOM      2  O   UNL     1       4.032  -0.589  22.980  0.00  0.00    -0.464 OA
ATOM     34  C   UNL     1       5.172   0.225  23.275  0.00  0.00    +0.280 C 
ENDBRANCH  31   2
ENDBRANCH  28  31
ENDBRANCH  17  21
ENDBRANCH  12  17
TORSDOF 8
ENDMDL
MODEL 2
REMARK VINA RESULT:       0.9      2.553      7.116
REMARK  Name = 71693171
REMARK  12 active torsions:
REMARK  status: ('A' for Active; 'I' for Inactive)
REMARK    1  A    between atoms: O_2  and  C_31
REMARK    2  A    between atoms: O_2  and  C_34
REMARK    3  A    between atoms: N_4  and  C_16
REMARK    4  A    between atoms: C_9  and  C_13
REMARK    5  A    between atoms: C_10  and  C_16
REMARK    6  A    between atoms: C_12  and  C_17
REMARK    7  A    between atoms: C_13  and  C_18
REMARK    8  A    between atoms: C_13  and  C_19
REMARK    9  A    between atoms: C_14  and  C_20
REMARK   10  A    between atoms: C_17  and  C_21
REMARK   11  A    between atoms: C_22  and  C_27
REMARK   12  A    between atoms: C_28  and  C_31
REMARK                            x       y       z     vdW  Elec       q    Type
REMARK                         _______ _______ _______ _____ _____    ______ ____
ROOT
ATOM      9  C   UNL     1      -2.052  -0.568  25.304  0.00  0.00    +0.000 C 
ATOM     10  C   UNL     1      -0.977  -1.322  24.482  0.00  0.00    +0.032 C 
ATOM     11  C   UNL     1      -3.030  -1.562  25.948  0.00  0.00    +0.012 C 
ATOM     12  C   UNL     1      -3.743  -2.440  24.903  0.00  0.00    +0.022 C 
ATOM     14  C   UNL     1      -2.771  -3.007  23.888  0.00  0.00    -0.073 C 
ATOM     15  C   UNL     1      -1.534  -2.503  23.724  0.00  0.00    -0.022 C 
ATOM     20  C   UNL     1      -3.236  -4.198  23.097  0.00  0.00    +0.039 C 
ENDROOT
BRANCH   9  13
ATOM     13  C   UNL     1      -1.424   0.317  26.386  0.00  0.00    -0.013 C 
ATOM     18  C   UNL     1      -0.664   1.476  25.750  0.00  0.00    +0.007 C 
ATOM     19  C   UNL     1      -0.503  -0.508  27.279  0.00  0.00    +0.007 C 
ENDBRANCH   9  13
BRANCH  10  16
ATOM     16  C   UNL     1      -0.264  -0.379  23.507  0.00  0.00    +0.112 C 
BRANCH  16   4
ATOM      1  O   UNL     1       1.817  -0.199  21.537  0.00  0.00    -0.268 OA
ATOM      4  N   UNL     1       1.144  -0.365  23.752  0.00  0.00    -0.309 N 
ATOM     22  C   UNL     1       2.091  -0.274  22.732  0.00  0.00    +0.264 C 
ATOM     35  H   UNL     1       1.469  -0.382  24.714  0.00  0.00    +0.149 HD
BRANCH  22  27
ATOM      7  N   UNL     1       3.974  -1.455  23.668  0.00  0.00    -0.247 NA
ATOM      8  N   UNL     1       5.617   0.802  23.391  0.00  0.00    -0.259 NA
ATOM     27  C   UNL     1       3.516  -0.298  23.149  0.00  0.00    +0.143 A 
ATOM     30  C   UNL     1       4.323   0.810  23.014  0.00  0.00    +0.143 A 
ATOM     32  C   UNL     1       5.267  -1.463  24.045  0.00  0.00    +0.131 A 
ATOM     33  C   UNL     1       6.074  -0.356  23.910  0.00  0.00    +0.130 A 
ENDBRANCH  22  27
ENDBRANCH  16   4
ENDBRANCH  10  16
BRANCH  12  17
ATOM     17  C   UNL     1      -4.870  -1.667  24.210  0.00  0.00    +0.082 C 
BRANCH  17  21
ATOM      5  N   UNL     1      -3.825   0.569  23.801  0.00  0.00    -0.342 N 
ATOM      6  N   UNL     1      -5.483   0.528  25.281  0.00  0.00    -0.232 NA
ATOM     21  C   UNL     1      -4.755  -0.190  24.456  0.00  0.00    +0.109 A 
ATOM     23  C   UNL     1      -3.963   1.863  24.233  0.00  0.00    +0.067 A 
ATOM     24  C   UNL     1      -5.004   1.812  25.155  0.00  0.00    +0.089 A 
ATOM     25  C   UNL     1      -3.287   3.038  23.905  0.00  0.00    +0.042 A 
ATOM     26  C   UNL     1      -5.408   2.993  25.799  0.00  0.00    +0.030 A 
ATOM     28  C   UNL     1      -3.702   4.205  24.554  0.00  0.00    +0.061 A 
ATOM     29  C   UNL     1      -4.743   4.186  25.485  0.00  0.00    +0.017 A 
ATOM     36  H   UNL     1      -3.154   0.237  23.120  0.00  0.00    +0.167 HD
BRANCH  28  31
ATOM      3  O   UNL     1      -3.384   6.244  23.359  0.00  0.00    -0.245 OA
ATOM     31  C   UNL     1      -3.034   5.463  24.254  0.00  0.00    +0.339 C 
BRANCH  31   2
ATOM      2  O   UNL     1      -1.969   5.677  25.084  0.00  0.00    -0.464 OA
ATOM     34  C   UNL     1      -0.738   5.034  24.736  0.00  0.00    +0.280 C 
ENDBRANCH  31   2
ENDBRANCH  28  31
ENDBRANCH  17  21
ENDBRANCH  12  17
TORSDOF 8
ENDMDL
