MODEL 1
REMARK VINA RESULT:      -1.7      0.000      0.000
REMARK  Name = 38030491
REMARK  12 active torsions:
REMARK  status: ('A' for Active; 'I' for Inactive)
REMARK    1  A    between atoms: O_2  and  C_27
REMARK    2  A    between atoms: O_2  and  C_32
REMARK    3  A    between atoms: N_3  and  C_15
REMARK    4  A    between atoms: N_3  and  C_21
REMARK    5  A    between atoms: C_8  and  C_12
REMARK    6  A    between atoms: C_9  and  C_15
REMARK    7  A    between atoms: C_11  and  C_16
REMARK    8  A    between atoms: C_12  and  C_17
REMARK    9  A    between atoms: C_12  and  C_18
REMARK   10  A    between atoms: C_13  and  C_19
REMARK   11  A    between atoms: C_16  and  C_20
REMARK   12  A    between atoms: C_22  and  C_26
REMARK                            x       y       z     vdW  Elec       q    Type
REMARK                         _______ _______ _______ _____ _____    ______ ____
ROOT
ATOM      8  C   UNL     1      -2.526   3.174  25.143  0.00  0.00    +0.000 C 
ATOM      9  C   UNL     1      -3.828   3.361  24.325  0.00  0.00    +0.032 C 
ATOM     10  C   UNL     1      -1.299   3.250  24.220  0.00  0.00    +0.012 C 
ATOM     11  C   UNL     1      -1.337   2.182  23.111  0.00  0.00    +0.024 C 
ATOM     13  C   UNL     1      -2.691   2.123  22.433  0.00  0.00    -0.073 C 
ATOM     14  C   UNL     1      -3.791   2.667  22.985  0.00  0.00    -0.022 C 
ATOM     19  C   UNL     1      -2.744   1.461  21.083  0.00  0.00    +0.039 C 
ENDROOT
BRANCH   8  12
ATOM     12  C   UNL     1      -2.400   4.216  26.259  0.00  0.00    -0.013 C 
ATOM     17  C   UNL     1      -2.169   5.603  25.669  0.00  0.00    +0.007 C 
ATOM     18  C   UNL     1      -3.644   4.203  27.142  0.00  0.00    +0.007 C 
ENDBRANCH   8  12
BRANCH   9  15
ATOM     15  C   UNL     1      -5.051   2.879  25.115  0.00  0.00    +0.109 C 
BRANCH  15   3
ATOM      3  N   UNL     1      -5.439   1.576  24.652  0.00  0.00    -0.342 N 
ATOM     33  H   UNL     1      -6.362   1.438  24.254  0.00  0.00    +0.146 HD
BRANCH   3  21
ATOM      6  N   UNL     1      -3.004  -0.821  26.009  0.00  0.00    -0.219 NA
ATOM     21  C   UNL     1      -4.638   0.445  24.755  0.00  0.00    +0.046 A 
ATOM     23  C   UNL     1      -4.645  -0.531  23.765  0.00  0.00    +0.029 A 
ATOM     24  C   UNL     1      -3.808   0.255  25.848  0.00  0.00    +0.137 A 
ATOM     25  C   UNL     1      -3.832  -1.652  23.895  0.00  0.00    +0.069 A 
ATOM     27  C   UNL     1      -3.038  -1.748  25.026  0.00  0.00    +0.214 A 
BRANCH  27   2
ATOM      2  O   UNL     1      -2.227  -2.843  25.177  0.00  0.00    -0.480 OA
ATOM     32  C   UNL     1      -0.826  -2.624  25.057  0.00  0.00    +0.279 C 
ENDBRANCH  27   2
ENDBRANCH   3  21
ENDBRANCH  15   3
ENDBRANCH   9  15
BRANCH  11  16
ATOM     16  C   UNL     1      -0.934   0.806  23.654  0.00  0.00    +0.105 C 
BRANCH  16  20
ATOM      1  O   UNL     1       1.461   0.343  23.675  0.00  0.00    -0.420 OA
ATOM      4  N   UNL     1       0.435  -0.228  21.772  0.00  0.00    -0.112 NA
ATOM      5  N   UNL     1       1.774  -0.543  21.644  0.00  0.00    -0.107 NA
ATOM     20  C   UNL     1       0.298   0.286  22.972  0.00  0.00    +0.218 A 
ATOM     22  C   UNL     1       2.335  -0.193  22.778  0.00  0.00    +0.250 A 
BRANCH  22  26
ATOM      7  N   UNL     1       5.470  -1.614  24.183  0.00  0.00    -0.263 NA
ATOM     26  C   UNL     1       3.699  -0.286  23.210  0.00  0.00    +0.057 A 
ATOM     28  C   UNL     1       4.564   0.795  23.093  0.00  0.00    +0.016 A 
ATOM     29  C   UNL     1       4.197  -1.459  23.756  0.00  0.00    +0.124 A 
ATOM     30  C   UNL     1       5.882   0.674  23.521  0.00  0.00    +0.020 A 
ATOM     31  C   UNL     1       6.281  -0.540  24.053  0.00  0.00    +0.111 A 
ENDBRANCH  22  26
ENDBRANCH  16  20
ENDBRANCH  11  16
TORSDOF 8
ENDMDL
MODEL 2
REMARK VINA RESULT:      -0.4      1.713      4.418
REMARK  Name = 38030491
REMARK  12 active torsions:
REMARK  status: ('A' for Active; 'I' for Inactive)
REMARK    1  A    between atoms: O_2  and  C_27
REMARK    2  A    between atoms: O_2  and  C_32
REMARK    3  A    between atoms: N_3  and  C_15
REMARK    4  A    between atoms: N_3  and  C_21
REMARK    5  A    between atoms: C_8  and  C_12
REMARK    6  A    between atoms: C_9  and  C_15
REMARK    7  A    between atoms: C_11  and  C_16
REMARK    8  A    between atoms: C_12  and  C_17
REMARK    9  A    between atoms: C_12  and  C_18
REMARK   10  A    between atoms: C_13  and  C_19
REMARK   11  A    between atoms: C_16  and  C_20
REMARK   12  A    between atoms: C_22  and  C_26
REMARK                            x       y       z     vdW  Elec       q    Type
REMARK                         _______ _______ _______ _____ _____    ______ ____
ROOT
ATOM      8  C   UNL     1      -3.401  -1.300  24.426  0.00  0.00    +0.000 C 
ATOM      9  C   UNL     1      -3.798  -0.471  25.673  0.00  0.00    +0.032 C 
ATOM     10  C   UNL     1      -1.907  -1.654  24.472  0.00  0.00    +0.012 C 
ATOM     11  C   UNL     1      -1.013  -0.401  24.529  0.00  0.00    +0.024 C 
ATOM     13  C   UNL     1      -1.504   0.594  25.561  0.00  0.00    -0.073 C 
ATOM     14  C   UNL     1      -2.748   0.539  26.071  0.00  0.00    -0.022 C 
ATOM     19  C   UNL     1      -0.517   1.629  26.027  0.00  0.00    +0.039 C 
ENDROOT
BRANCH   8  12
ATOM     12  C   UNL     1      -4.234  -2.581  24.307  0.00  0.00    -0.013 C 
ATOM     17  C   UNL     1      -4.654  -2.809  22.859  0.00  0.00    +0.007 C 
ATOM     18  C   UNL     1      -3.450  -3.777  24.837  0.00  0.00    +0.007 C 
ENDBRANCH   8  12
BRANCH   9  15
ATOM     15  C   UNL     1      -5.138   0.243  25.459  0.00  0.00    +0.109 C 
BRANCH  15   3
ATOM      3  N   UNL     1      -4.971   1.299  24.499  0.00  0.00    -0.342 N 
ATOM     33  H   UNL     1      -5.440   1.241  23.601  0.00  0.00    +0.146 HD
BRANCH   3  21
ATOM      6  N   UNL     1      -2.417   3.863  23.856  0.00  0.00    -0.219 NA
ATOM     21  C   UNL     1      -4.153   2.405  24.695  0.00  0.00    +0.046 A 
ATOM     23  C   UNL     1      -4.222   3.151  25.866  0.00  0.00    +0.029 A 
ATOM     24  C   UNL     1      -3.241   2.799  23.728  0.00  0.00    +0.137 A 
ATOM     25  C   UNL     1      -3.390   4.252  26.034  0.00  0.00    +0.069 A 
ATOM     27  C   UNL     1      -2.513   4.563  25.008  0.00  0.00    +0.214 A 
BRANCH  27   2
ATOM      2  O   UNL     1      -1.682   5.644  25.150  0.00  0.00    -0.480 OA
ATOM     32  C   UNL     1      -0.346   5.490  24.684  0.00  0.00    +0.279 C 
ENDBRANCH  27   2
ENDBRANCH   3  21
ENDBRANCH  15   3
ENDBRANCH   9  15
BRANCH  11  16
ATOM     16  C   UNL     1      -0.891   0.254  23.149  0.00  0.00    +0.105 C 
BRANCH  16  20
ATOM      1  O   UNL     1       1.526   0.015  23.395  0.00  0.00    -0.420 OA
ATOM      4  N   UNL     1       0.793  -0.204  21.293  0.00  0.00    -0.112 NA
ATOM      5  N   UNL     1       2.166  -0.360  21.284  0.00  0.00    -0.107 NA
ATOM     20  C   UNL     1       0.463   0.013  22.545  0.00  0.00    +0.218 A 
ATOM     22  C   UNL     1       2.551  -0.225  22.532  0.00  0.00    +0.250 A 
BRANCH  22  26
ATOM      7  N   UNL     1       5.532  -1.578  24.293  0.00  0.00    -0.263 NA
ATOM     26  C   UNL     1       3.859  -0.290  23.115  0.00  0.00    +0.057 A 
ATOM     28  C   UNL     1       4.713   0.806  23.086  0.00  0.00    +0.016 A 
ATOM     29  C   UNL     1       4.313  -1.449  23.725  0.00  0.00    +0.124 A 
ATOM     30  C   UNL     1       5.976   0.712  23.660  0.00  0.00    +0.020 A 
ATOM     31  C   UNL     1       6.335  -0.490  24.245  0.00  0.00    +0.111 A 
ENDBRANCH  22  26
ENDBRANCH  16  20
ENDBRANCH  11  16
TORSDOF 8
ENDMDL
MODEL 3
REMARK VINA RESULT:      -0.3      2.966      5.815
REMARK  Name = 38030491
REMARK  12 active torsions:
REMARK  status: ('A' for Active; 'I' for Inactive)
REMARK    1  A    between atoms: O_2  and  C_27
REMARK    2  A    between atoms: O_2  and  C_32
REMARK    3  A    between atoms: N_3  and  C_15
REMARK    4  A    between atoms: N_3  and  C_21
REMARK    5  A    between atoms: C_8  and  C_12
REMARK    6  A    between atoms: C_9  and  C_15
REMARK    7  A    between atoms: C_11  and  C_16
REMARK    8  A    between atoms: C_12  and  C_17
REMARK    9  A    between atoms: C_12  and  C_18
REMARK   10  A    between atoms: C_13  and  C_19
REMARK   11  A    between atoms: C_16  and  C_20
REMARK   12  A    between atoms: C_22  and  C_26
REMARK                            x       y       z     vdW  Elec       q    Type
REMARK                         _______ _______ _______ _____ _____    ______ ____
ROOT
ATOM      8  C   UNL     1      -3.536   0.286  25.184  0.00  0.00    +0.000 C 
ATOM      9  C   UNL     1      -2.909   0.197  23.771  0.00  0.00    +0.032 C 
ATOM     10  C   UNL     1      -4.824   1.123  25.146  0.00  0.00    +0.012 C 
ATOM     11  C   UNL     1      -4.575   2.553  24.631  0.00  0.00    +0.024 C 
ATOM     13  C   UNL     1      -3.728   2.559  23.375  0.00  0.00    -0.073 C 
ATOM     14  C   UNL     1      -3.000   1.491  22.999  0.00  0.00    -0.022 C 
ATOM     19  C   UNL     1      -3.770   3.806  22.535  0.00  0.00    +0.039 C 
ENDROOT
BRANCH   8  12
ATOM     12  C   UNL     1      -3.836  -1.100  25.764  0.00  0.00    -0.013 C 
ATOM     17  C   UNL     1      -3.964  -2.127  24.645  0.00  0.00    +0.007 C 
ATOM     18  C   UNL     1      -2.749  -1.509  26.753  0.00  0.00    +0.007 C 
ENDBRANCH   8  12
BRANCH   9  15
ATOM     15  C   UNL     1      -1.445  -0.253  23.843  0.00  0.00    +0.109 C 
BRANCH  15   3
ATOM      3  N   UNL     1      -0.590   0.833  23.452  0.00  0.00    -0.342 N 
ATOM     33  H   UNL     1      -0.977   1.765  23.344  0.00  0.00    +0.146 HD
BRANCH   3  21
ATOM      6  N   UNL     1       3.026   1.496  23.408  0.00  0.00    -0.219 NA
ATOM     21  C   UNL     1       0.761   0.690  23.155  0.00  0.00    +0.046 A 
ATOM     23  C   UNL     1       1.212  -0.346  22.346  0.00  0.00    +0.029 A 
ATOM     24  C   UNL     1       1.699   1.577  23.658  0.00  0.00    +0.137 A 
ATOM     25  C   UNL     1       2.569  -0.463  22.066  0.00  0.00    +0.069 A 
ATOM     27  C   UNL     1       3.427   0.476  22.617  0.00  0.00    +0.214 A 
BRANCH  27   2
ATOM      2  O   UNL     1       4.769   0.383  22.355  0.00  0.00    -0.480 OA
ATOM     32  C   UNL     1       5.612   0.039  23.449  0.00  0.00    +0.279 C 
ENDBRANCH  27   2
ENDBRANCH   3  21
ENDBRANCH  15   3
ENDBRANCH   9  15
BRANCH  11  16
ATOM     16  C   UNL     1      -3.949   3.432  25.719  0.00  0.00    +0.105 C 
BRANCH  16  20
ATOM      1  O   UNL     1      -1.850   3.117  26.924  0.00  0.00    -0.420 OA
ATOM      4  N   UNL     1      -1.607   3.393  24.717  0.00  0.00    -0.112 NA
ATOM      5  N   UNL     1      -0.350   3.228  25.267  0.00  0.00    -0.107 NA
ATOM     20  C   UNL     1      -2.451   3.322  25.720  0.00  0.00    +0.218 A 
ATOM     22  C   UNL     1      -0.539   3.070  26.556  0.00  0.00    +0.250 A 
BRANCH  22  26
ATOM      7  N   UNL     1       2.706   2.746  28.339  0.00  0.00    -0.263 NA
ATOM     26  C   UNL     1       0.402   2.860  27.617  0.00  0.00    +0.057 A 
ATOM     28  C   UNL     1      -0.025   2.576  28.910  0.00  0.00    +0.016 A 
ATOM     29  C   UNL     1       1.766   2.933  27.386  0.00  0.00    +0.124 A 
ATOM     30  C   UNL     1       0.913   2.377  29.917  0.00  0.00    +0.020 A 
ATOM     31  C   UNL     1       2.253   2.472  29.584  0.00  0.00    +0.111 A 
ENDBRANCH  22  26
ENDBRANCH  16  20
ENDBRANCH  11  16
TORSDOF 8
ENDMDL
MODEL 4
REMARK VINA RESULT:      -0.1      1.980      7.292
REMARK  Name = 38030491
REMARK  12 active torsions:
REMARK  status: ('A' for Active; 'I' for Inactive)
REMARK    1  A    between atoms: O_2  and  C_27
REMARK    2  A    between atoms: O_2  and  C_32
REMARK    3  A    between atoms: N_3  and  C_15
REMARK    4  A    between atoms: N_3  and  C_21
REMARK    5  A    between atoms: C_8  and  C_12
REMARK    6  A    between atoms: C_9  and  C_15
REMARK    7  A    between atoms: C_11  and  C_16
REMARK    8  A    between atoms: C_12  and  C_17
REMARK    9  A    between atoms: C_12  and  C_18
REMARK   10  A    between atoms: C_13  and  C_19
REMARK   11  A    between atoms: C_16  and  C_20
REMARK   12  A    between atoms: C_22  and  C_26
REMARK                            x       y       z     vdW  Elec       q    Type
REMARK                         _______ _______ _______ _____ _____    ______ ____
ROOT
ATOM      8  C   UNL     1      -1.188   0.194  24.519  0.00  0.00    +0.000 C 
ATOM      9  C   UNL     1      -0.450  -1.107  24.117  0.00  0.00    +0.032 C 
ATOM     10  C   UNL     1      -2.129  -0.069  25.705  0.00  0.00    +0.012 C 
ATOM     11  C   UNL     1      -3.180  -1.149  25.386  0.00  0.00    +0.024 C 
ATOM     13  C   UNL     1      -2.556  -2.367  24.736  0.00  0.00    -0.073 C 
ATOM     14  C   UNL     1      -1.329  -2.333  24.185  0.00  0.00    -0.022 C 
ATOM     19  C   UNL     1      -3.358  -3.639  24.770  0.00  0.00    +0.039 C 
ENDROOT
BRANCH   8  12
ATOM     12  C   UNL     1      -0.210   1.318  24.873  0.00  0.00    -0.013 C 
ATOM     17  C   UNL     1      -0.368   2.485  23.905  0.00  0.00    +0.007 C 
ATOM     18  C   UNL     1      -0.423   1.776  26.312  0.00  0.00    +0.007 C 
ENDBRANCH   8  12
BRANCH   9  15
ATOM     15  C   UNL     1       0.155  -0.989  22.713  0.00  0.00    +0.109 C 
BRANCH  15   3
ATOM      3  N   UNL     1       1.083   0.107  22.681  0.00  0.00    -0.342 N 
ATOM     33  H   UNL     1       0.764   1.027  22.395  0.00  0.00    +0.146 HD
BRANCH   3  21
ATOM      6  N   UNL     1       4.257  -1.368  23.804  0.00  0.00    -0.219 NA
ATOM     21  C   UNL     1       2.436  -0.011  22.975  0.00  0.00    +0.046 A 
ATOM     23  C   UNL     1       3.312   1.045  22.758  0.00  0.00    +0.029 A 
ATOM     24  C   UNL     1       2.953  -1.188  23.495  0.00  0.00    +0.137 A 
ATOM     25  C   UNL     1       4.661   0.897  23.064  0.00  0.00    +0.069 A 
ATOM     27  C   UNL     1       5.078  -0.319  23.579  0.00  0.00    +0.214 A 
BRANCH  27   2
ATOM      2  O   UNL     1       6.403  -0.489  23.889  0.00  0.00    -0.480 OA
ATOM     32  C   UNL     1       7.301  -0.643  22.796  0.00  0.00    +0.279 C 
ENDBRANCH  27   2
ENDBRANCH   3  21
ENDBRANCH  15   3
ENDBRANCH   9  15
BRANCH  11  16
ATOM     16  C   UNL     1      -4.311  -0.582  24.521  0.00  0.00    +0.105 C 
BRANCH  16  20
ATOM      1  O   UNL     1      -3.657   1.769  24.517  0.00  0.00    -0.420 OA
ATOM      4  N   UNL     1      -5.645   1.373  25.463  0.00  0.00    -0.112 NA
ATOM      5  N   UNL     1      -5.404   2.732  25.531  0.00  0.00    -0.107 NA
ATOM     20  C   UNL     1      -4.600   0.851  24.864  0.00  0.00    +0.218 A 
ATOM     22  C   UNL     1      -4.234   2.918  24.967  0.00  0.00    +0.250 A 
BRANCH  22  26
ATOM      7  N   UNL     1      -3.199   6.190  23.536  0.00  0.00    -0.263 NA
ATOM     26  C   UNL     1      -3.483   4.120  24.755  0.00  0.00    +0.057 A 
ATOM     28  C   UNL     1      -2.353   4.405  25.514  0.00  0.00    +0.016 A 
ATOM     29  C   UNL     1      -3.861   5.038  23.787  0.00  0.00    +0.124 A 
ATOM     30  C   UNL     1      -1.646   5.580  25.285  0.00  0.00    +0.020 A 
ATOM     31  C   UNL     1      -2.106   6.431  24.294  0.00  0.00    +0.111 A 
ENDBRANCH  22  26
ENDBRANCH  16  20
ENDBRANCH  11  16
TORSDOF 8
ENDMDL
MODEL 5
REMARK VINA RESULT:       0.1      2.115      5.851
REMARK  Name = 38030491
REMARK  12 active torsions:
REMARK  status: ('A' for Active; 'I' for Inactive)
REMARK    1  A    between atoms: O_2  and  C_27
REMARK    2  A    between atoms: O_2  and  C_32
REMARK    3  A    between atoms: N_3  and  C_15
REMARK    4  A    between atoms: N_3  and  C_21
REMARK    5  A    between atoms: C_8  and  C_12
REMARK    6  A    between atoms: C_9  and  C_15
REMARK    7  A    between atoms: C_11  and  C_16
REMARK    8  A    between atoms: C_12  and  C_17
REMARK    9  A    between atoms: C_12  and  C_18
REMARK   10  A    between atoms: C_13  and  C_19
REMARK   11  A    between atoms: C_16  and  C_20
REMARK   12  A    between atoms: C_22  and  C_26
REMARK                            x       y       z     vdW  Elec       q    Type
REMARK                         _______ _______ _______ _____ _____    ______ ____
ROOT
ATOM      8  C   UNL     1      -1.825   4.157  24.800  0.00  0.00    +0.000 C 
ATOM      9  C   UNL     1      -1.898   3.284  26.077  0.00  0.00    +0.032 C 
ATOM     10  C   UNL     1      -3.030   5.108  24.732  0.00  0.00    +0.012 C 
ATOM     11  C   UNL     1      -4.371   4.350  24.731  0.00  0.00    +0.024 C 
ATOM     13  C   UNL     1      -4.414   3.279  25.802  0.00  0.00    -0.073 C 
ATOM     14  C   UNL     1      -3.299   2.825  26.402  0.00  0.00    -0.022 C 
ATOM     19  C   UNL     1      -5.773   2.773  26.200  0.00  0.00    +0.039 C 
ENDROOT
BRANCH   8  12
ATOM     12  C   UNL     1      -0.524   4.964  24.734  0.00  0.00    -0.013 C 
ATOM     17  C   UNL     1       0.129   4.809  23.366  0.00  0.00    +0.007 C 
ATOM     18  C   UNL     1      -0.793   6.433  25.042  0.00  0.00    +0.007 C 
ENDBRANCH   8  12
BRANCH   9  15
ATOM     15  C   UNL     1      -0.973   2.066  25.968  0.00  0.00    +0.109 C 
BRANCH  15   3
ATOM      3  N   UNL     1      -0.886   1.652  24.595  0.00  0.00    -0.342 N 
ATOM     33  H   UNL     1      -1.719   1.652  24.015  0.00  0.00    +0.146 HD
BRANCH   3  21
ATOM      6  N   UNL     1       2.603   1.571  23.439  0.00  0.00    -0.219 NA
ATOM     21  C   UNL     1       0.281   1.193  23.994  0.00  0.00    +0.046 A 
ATOM     23  C   UNL     1       0.325  -0.046  23.366  0.00  0.00    +0.029 A 
ATOM     24  C   UNL     1       1.437   1.957  24.004  0.00  0.00    +0.137 A 
ATOM     25  C   UNL     1       1.506  -0.478  22.773  0.00  0.00    +0.069 A 
ATOM     27  C   UNL     1       2.607   0.361  22.837  0.00  0.00    +0.214 A 
BRANCH  27   2
ATOM      2  O   UNL     1       3.783  -0.043  22.259  0.00  0.00    -0.480 OA
ATOM     32  C   UNL     1       4.968   0.141  23.025  0.00  0.00    +0.279 C 
ENDBRANCH  27   2
ENDBRANCH   3  21
ENDBRANCH  15   3
ENDBRANCH   9  15
BRANCH  11  16
ATOM     16  C   UNL     1      -4.669   3.756  23.349  0.00  0.00    +0.105 C 
BRANCH  16  20
ATOM      1  O   UNL     1      -4.210   1.439  23.961  0.00  0.00    -0.420 OA
ATOM      4  N   UNL     1      -2.998   2.188  22.237  0.00  0.00    -0.112 NA
ATOM      5  N   UNL     1      -2.637   0.875  22.472  0.00  0.00    -0.107 NA
ATOM     20  C   UNL     1      -3.918   2.475  23.129  0.00  0.00    +0.218 A 
ATOM     22  C   UNL     1      -3.370   0.477  23.486  0.00  0.00    +0.250 A 
BRANCH  22  26
ATOM      7  N   UNL     1      -3.908  -3.154  24.070  0.00  0.00    -0.263 NA
ATOM     26  C   UNL     1      -3.421  -0.787  24.158  0.00  0.00    +0.057 A 
ATOM     28  C   UNL     1      -3.056  -0.906  25.495  0.00  0.00    +0.016 A 
ATOM     29  C   UNL     1      -3.836  -1.932  23.497  0.00  0.00    +0.124 A 
ATOM     30  C   UNL     1      -3.116  -2.147  26.119  0.00  0.00    +0.020 A 
ATOM     31  C   UNL     1      -3.545  -3.229  25.370  0.00  0.00    +0.111 A 
ENDBRANCH  22  26
ENDBRANCH  16  20
ENDBRANCH  11  16
TORSDOF 8
ENDMDL
MODEL 6
REMARK VINA RESULT:       0.2      1.683      6.782
REMARK  Name = 38030491
REMARK  12 active torsions:
REMARK  status: ('A' for Active; 'I' for Inactive)
REMARK    1  A    between atoms: O_2  and  C_27
REMARK    2  A    between atoms: O_2  and  C_32
REMARK    3  A    between atoms: N_3  and  C_15
REMARK    4  A    between atoms: N_3  and  C_21
REMARK    5  A    between atoms: C_8  and  C_12
REMARK    6  A    between atoms: C_9  and  C_15
REMARK    7  A    between atoms: C_11  and  C_16
REMARK    8  A    between atoms: C_12  and  C_17
REMARK    9  A    between atoms: C_12  and  C_18
REMARK   10  A    between atoms: C_13  and  C_19
REMARK   11  A    between atoms: C_16  and  C_20
REMARK   12  A    between atoms: C_22  and  C_26
REMARK                            x       y       z     vdW  Elec       q    Type
REMARK                         _______ _______ _______ _____ _____    ______ ____
ROOT
ATOM      8  C   UNL     1      -1.796   2.384  23.665  0.00  0.00    +0.000 C 
ATOM      9  C   UNL     1      -0.469   1.623  23.910  0.00  0.00    +0.032 C 
ATOM     10  C   UNL     1      -1.686   3.829  24.177  0.00  0.00    +0.012 C 
ATOM     11  C   UNL     1      -1.358   3.890  25.681  0.00  0.00    +0.024 C 
ATOM     13  C   UNL     1      -0.224   2.955  26.048  0.00  0.00    -0.073 C 
ATOM     14  C   UNL     1       0.168   1.955  25.238  0.00  0.00    -0.022 C 
ATOM     19  C   UNL     1       0.479   3.221  27.351  0.00  0.00    +0.039 C 
ENDROOT
BRANCH   8  12
ATOM     12  C   UNL     1      -2.185   2.388  22.183  0.00  0.00    -0.013 C 
ATOM     17  C   UNL     1      -2.460   0.968  21.702  0.00  0.00    +0.007 C 
ATOM     18  C   UNL     1      -3.400   3.282  21.954  0.00  0.00    +0.007 C 
ENDBRANCH   8  12
BRANCH   9  15
ATOM     15  C   UNL     1      -0.675   0.107  23.806  0.00  0.00    +0.109 C 
BRANCH  15   3
ATOM      3  N   UNL     1       0.272  -0.444  22.877  0.00  0.00    -0.342 N 
ATOM     33  H   UNL     1      -0.051  -1.047  22.128  0.00  0.00    +0.146 HD
BRANCH   3  21
ATOM      6  N   UNL     1       3.832  -1.132  23.481  0.00  0.00    -0.219 NA
ATOM     21  C   UNL     1       1.645  -0.245  22.958  0.00  0.00    +0.046 A 
ATOM     23  C   UNL     1       2.214   0.977  22.619  0.00  0.00    +0.029 A 
ATOM     24  C   UNL     1       2.490  -1.260  23.379  0.00  0.00    +0.137 A 
ATOM     25  C   UNL     1       3.591   1.146  22.710  0.00  0.00    +0.069 A 
ATOM     27  C   UNL     1       4.349   0.070  23.143  0.00  0.00    +0.214 A 
BRANCH  27   2
ATOM      2  O   UNL     1       5.709   0.213  23.242  0.00  0.00    -0.480 OA
ATOM     32  C   UNL     1       6.360  -0.548  24.254  0.00  0.00    +0.279 C 
ENDBRANCH  27   2
ENDBRANCH   3  21
ENDBRANCH  15   3
ENDBRANCH   9  15
BRANCH  11  16
ATOM     16  C   UNL     1      -2.602   3.606  26.530  0.00  0.00    +0.105 C 
BRANCH  16  20
ATOM      1  O   UNL     1      -3.081   1.331  25.787  0.00  0.00    -0.420 OA
ATOM      4  N   UNL     1      -4.691   2.808  25.310  0.00  0.00    -0.112 NA
ATOM      5  N   UNL     1      -5.091   1.574  24.836  0.00  0.00    -0.107 NA
ATOM     20  C   UNL     1      -3.513   2.619  25.857  0.00  0.00    +0.218 A 
ATOM     22  C   UNL     1      -4.121   0.742  25.136  0.00  0.00    +0.250 A 
BRANCH  22  26
ATOM      7  N   UNL     1      -3.248  -2.834  25.654  0.00  0.00    -0.263 NA
ATOM     26  C   UNL     1      -3.991  -0.664  24.889  0.00  0.00    +0.057 A 
ATOM     28  C   UNL     1      -4.452  -1.231  23.706  0.00  0.00    +0.016 A 
ATOM     29  C   UNL     1      -3.402  -1.502  25.823  0.00  0.00    +0.124 A 
ATOM     30  C   UNL     1      -4.311  -2.599  23.496  0.00  0.00    +0.020 A 
ATOM     31  C   UNL     1      -3.708  -3.349  24.491  0.00  0.00    +0.111 A 
ENDBRANCH  22  26
ENDBRANCH  16  20
ENDBRANCH  11  16
TORSDOF 8
ENDMDL
MODEL 7
REMARK VINA RESULT:       0.4      1.759      6.125
REMARK  Name = 38030491
REMARK  12 active torsions:
REMARK  status: ('A' for Active; 'I' for Inactive)
REMARK    1  A    between atoms: O_2  and  C_27
REMARK    2  A    between atoms: O_2  and  C_32
REMARK    3  A    between atoms: N_3  and  C_15
REMARK    4  A    between atoms: N_3  and  C_21
REMARK    5  A    between atoms: C_8  and  C_12
REMARK    6  A    between atoms: C_9  and  C_15
REMARK    7  A    between atoms: C_11  and  C_16
REMARK    8  A    between atoms: C_12  and  C_17
REMARK    9  A    between atoms: C_12  and  C_18
REMARK   10  A    between atoms: C_13  and  C_19
REMARK   11  A    between atoms: C_16  and  C_20
REMARK   12  A    between atoms: C_22  and  C_26
REMARK                            x       y       z     vdW  Elec       q    Type
REMARK                         _______ _______ _______ _____ _____    ______ ____
ROOT
ATOM      8  C   UNL     1      -3.002   2.610  23.827  0.00  0.00    +0.000 C 
ATOM      9  C   UNL     1      -1.738   3.107  24.572  0.00  0.00    +0.032 C 
ATOM     10  C   UNL     1      -4.117   3.664  23.902  0.00  0.00    +0.012 C 
ATOM     11  C   UNL     1      -4.506   3.999  25.354  0.00  0.00    +0.024 C 
ATOM     13  C   UNL     1      -3.288   4.240  26.222  0.00  0.00    -0.073 C 
ATOM     14  C   UNL     1      -2.057   3.846  25.850  0.00  0.00    -0.022 C 
ATOM     19  C   UNL     1      -3.510   4.985  27.509  0.00  0.00    +0.039 C 
ENDROOT
BRANCH   8  12
ATOM     12  C   UNL     1      -2.704   2.273  22.362  0.00  0.00    -0.013 C 
ATOM     17  C   UNL     1      -2.871   0.778  22.115  0.00  0.00    +0.007 C 
ATOM     18  C   UNL     1      -3.609   3.080  21.436  0.00  0.00    +0.007 C 
ENDBRANCH   8  12
BRANCH   9  15
ATOM     15  C   UNL     1      -0.784   1.946  24.878  0.00  0.00    +0.109 C 
BRANCH  15   3
ATOM      3  N   UNL     1      -0.405   1.301  23.652  0.00  0.00    -0.342 N 
ATOM     33  H   UNL     1      -1.119   1.033  22.982  0.00  0.00    +0.146 HD
BRANCH   3  21
ATOM      6  N   UNL     1       3.234   1.595  23.221  0.00  0.00    -0.219 NA
ATOM     21  C   UNL     1       0.903   0.964  23.324  0.00  0.00    +0.046 A 
ATOM     23  C   UNL     1       1.210  -0.283  22.790  0.00  0.00    +0.029 A 
ATOM     24  C   UNL     1       1.942   1.860  23.519  0.00  0.00    +0.137 A 
ATOM     25  C   UNL     1       2.528  -0.592  22.471  0.00  0.00    +0.069 A 
ATOM     27  C   UNL     1       3.493   0.374  22.704  0.00  0.00    +0.214 A 
BRANCH  27   2
ATOM      2  O   UNL     1       4.800   0.093  22.397  0.00  0.00    -0.480 OA
ATOM     32  C   UNL     1       5.701  -0.037  23.491  0.00  0.00    +0.279 C 
ENDBRANCH  27   2
ENDBRANCH   3  21
ENDBRANCH  15   3
ENDBRANCH   9  15
BRANCH  11  16
ATOM     16  C   UNL     1      -5.399   2.906  25.953  0.00  0.00    +0.105 C 
BRANCH  16  20
ATOM      1  O   UNL     1      -3.932   0.988  25.599  0.00  0.00    -0.420 OA
ATOM      4  N   UNL     1      -5.888   0.856  24.522  0.00  0.00    -0.112 NA
ATOM      5  N   UNL     1      -5.165  -0.286  24.233  0.00  0.00    -0.107 NA
ATOM     20  C   UNL     1      -5.130   1.570  25.321  0.00  0.00    +0.218 A 
ATOM     22  C   UNL     1      -4.030  -0.166  24.883  0.00  0.00    +0.250 A 
BRANCH  22  26
ATOM      7  N   UNL     1      -0.676  -1.486  25.794  0.00  0.00    -0.263 NA
ATOM     26  C   UNL     1      -2.901  -1.046  24.955  0.00  0.00    +0.057 A 
ATOM     28  C   UNL     1      -2.902  -2.270  24.295  0.00  0.00    +0.016 A 
ATOM     29  C   UNL     1      -1.774  -0.704  25.684  0.00  0.00    +0.124 A 
ATOM     30  C   UNL     1      -1.791  -3.102  24.383  0.00  0.00    +0.020 A 
ATOM     31  C   UNL     1      -0.714  -2.668  25.138  0.00  0.00    +0.111 A 
ENDBRANCH  22  26
ENDBRANCH  16  20
ENDBRANCH  11  16
TORSDOF 8
ENDMDL
MODEL 8
REMARK VINA RESULT:       0.8      2.035      5.718
REMARK  Name = 38030491
REMARK  12 active torsions:
REMARK  status: ('A' for Active; 'I' for Inactive)
REMARK    1  A    between atoms: O_2  and  C_27
REMARK    2  A    between atoms: O_2  and  C_32
REMARK    3  A    between atoms: N_3  and  C_15
REMARK    4  A    between atoms: N_3  and  C_21
REMARK    5  A    between atoms: C_8  and  C_12
REMARK    6  A    between atoms: C_9  and  C_15
REMARK    7  A    between atoms: C_11  and  C_16
REMARK    8  A    between atoms: C_12  and  C_17
REMARK    9  A    between atoms: C_12  and  C_18
REMARK   10  A    between atoms: C_13  and  C_19
REMARK   11  A    between atoms: C_16  and  C_20
REMARK   12  A    between atoms: C_22  and  C_26
REMARK                            x       y       z     vdW  Elec       q    Type
REMARK                         _______ _______ _______ _____ _____    ______ ____
ROOT
ATOM      8  C   UNL     1      -3.668   2.455  24.337  0.00  0.00    +0.000 C 
ATOM      9  C   UNL     1      -2.732   2.751  23.139  0.00  0.00    +0.032 C 
ATOM     10  C   UNL     1      -4.046   3.760  25.056  0.00  0.00    +0.012 C 
ATOM     11  C   UNL     1      -2.810   4.517  25.577  0.00  0.00    +0.024 C 
ATOM     13  C   UNL     1      -1.725   4.615  24.524  0.00  0.00    -0.073 C 
ATOM     14  C   UNL     1      -1.714   3.826  23.434  0.00  0.00    -0.022 C 
ATOM     19  C   UNL     1      -0.675   5.672  24.729  0.00  0.00    +0.039 C 
ENDROOT
BRANCH   8  12
ATOM     12  C   UNL     1      -4.938   1.718  23.900  0.00  0.00    -0.013 C 
ATOM     17  C   UNL     1      -4.681   0.217  23.820  0.00  0.00    +0.007 C 
ATOM     18  C   UNL     1      -6.086   2.020  24.858  0.00  0.00    +0.007 C 
ENDBRANCH   8  12
BRANCH   9  15
ATOM     15  C   UNL     1      -2.012   1.480  22.673  0.00  0.00    +0.109 C 
BRANCH  15   3
ATOM      3  N   UNL     1      -0.963   1.156  23.600  0.00  0.00    -0.342 N 
ATOM     33  H   UNL     1      -1.164   1.117  24.594  0.00  0.00    +0.146 HD
BRANCH   3  21
ATOM      6  N   UNL     1       2.669   1.636  23.297  0.00  0.00    -0.219 NA
ATOM     21  C   UNL     1       0.358   0.930  23.230  0.00  0.00    +0.046 A 
ATOM     23  C   UNL     1       0.709  -0.170  22.457  0.00  0.00    +0.029 A 
ATOM     24  C   UNL     1       1.366   1.797  23.623  0.00  0.00    +0.137 A 
ATOM     25  C   UNL     1       2.038  -0.368  22.102  0.00  0.00    +0.069 A 
ATOM     27  C   UNL     1       2.971   0.556  22.544  0.00  0.00    +0.214 A 
BRANCH  27   2
ATOM      2  O   UNL     1       4.289   0.382  22.207  0.00  0.00    -0.480 OA
ATOM     32  C   UNL     1       5.199   0.153  23.277  0.00  0.00    +0.279 C 
ENDBRANCH  27   2
ENDBRANCH   3  21
ENDBRANCH  15   3
ENDBRANCH   9  15
BRANCH  11  16
ATOM     16  C   UNL     1      -2.272   3.880  26.862  0.00  0.00    +0.105 C 
BRANCH  16  20
ATOM      1  O   UNL     1      -2.302   1.522  26.231  0.00  0.00    -0.420 OA
ATOM      4  N   UNL     1      -0.255   2.344  26.607  0.00  0.00    -0.112 NA
ATOM      5  N   UNL     1      -0.123   1.013  26.262  0.00  0.00    -0.107 NA
ATOM     20  C   UNL     1      -1.543   2.598  26.576  0.00  0.00    +0.218 A 
ATOM     22  C   UNL     1      -1.342   0.573  26.051  0.00  0.00    +0.250 A 
BRANCH  22  26
ATOM      7  N   UNL     1      -1.336  -2.884  24.683  0.00  0.00    -0.263 NA
ATOM     26  C   UNL     1      -1.809  -0.727  25.669  0.00  0.00    +0.057 A 
ATOM     28  C   UNL     1      -3.128  -1.109  25.889  0.00  0.00    +0.016 A 
ATOM     29  C   UNL     1      -0.961  -1.643  25.068  0.00  0.00    +0.124 A 
ATOM     30  C   UNL     1      -3.552  -2.377  25.506  0.00  0.00    +0.020 A 
ATOM     31  C   UNL     1      -2.626  -3.218  24.913  0.00  0.00    +0.111 A 
ENDBRANCH  22  26
ENDBRANCH  16  20
ENDBRANCH  11  16
TORSDOF 8
ENDMDL
MODEL 9
REMARK VINA RESULT:       1.3      2.288      4.490
REMARK  Name = 38030491
REMARK  12 active torsions:
REMARK  status: ('A' for Active; 'I' for Inactive)
REMARK    1  A    between atoms: O_2  and  C_27
REMARK    2  A    between atoms: O_2  and  C_32
REMARK    3  A    between atoms: N_3  and  C_15
REMARK    4  A    between atoms: N_3  and  C_21
REMARK    5  A    between atoms: C_8  and  C_12
REMARK    6  A    between atoms: C_9  and  C_15
REMARK    7  A    between atoms: C_11  and  C_16
REMARK    8  A    between atoms: C_12  and  C_17
REMARK    9  A    between atoms: C_12  and  C_18
REMARK   10  A    between atoms: C_13  and  C_19
REMARK   11  A    between atoms: C_16  and  C_20
REMARK   12  A    between atoms: C_22  and  C_26
REMARK                            x       y       z     vdW  Elec       q    Type
REMARK                         _______ _______ _______ _____ _____    ______ ____
ROOT
ATOM      8  C   UNL     1      -3.393   2.362  23.502  0.00  0.00    +0.000 C 
ATOM      9  C   UNL     1      -4.439   3.407  23.961  0.00  0.00    +0.032 C 
ATOM     10  C   UNL     1      -4.012   0.956  23.488  0.00  0.00    +0.012 C 
ATOM     11  C   UNL     1      -4.544   0.539  24.872  0.00  0.00    +0.024 C 
ATOM     13  C   UNL     1      -5.371   1.636  25.510  0.00  0.00    -0.073 C 
ATOM     14  C   UNL     1      -5.321   2.910  25.081  0.00  0.00    -0.022 C 
ATOM     19  C   UNL     1      -6.293   1.227  26.626  0.00  0.00    +0.039 C 
ENDROOT
BRANCH   8  12
ATOM     12  C   UNL     1      -2.826   2.692  22.117  0.00  0.00    -0.013 C 
ATOM     17  C   UNL     1      -2.275   1.436  21.454  0.00  0.00    +0.007 C 
ATOM     18  C   UNL     1      -3.898   3.339  21.245  0.00  0.00    +0.007 C 
ENDBRANCH   8  12
BRANCH   9  15
ATOM     15  C   UNL     1      -3.763   4.716  24.386  0.00  0.00    +0.109 C 
BRANCH  15   3
ATOM      3  N   UNL     1      -2.338   4.580  24.267  0.00  0.00    -0.342 N 
ATOM     33  H   UNL     1      -1.865   4.939  23.444  0.00  0.00    +0.146 HD
BRANCH   3  21
ATOM      6  N   UNL     1       0.614   2.998  25.783  0.00  0.00    -0.219 NA
ATOM     21  C   UNL     1      -1.538   3.933  25.202  0.00  0.00    +0.046 A 
ATOM     23  C   UNL     1      -2.038   3.575  26.448  0.00  0.00    +0.029 A 
ATOM     24  C   UNL     1      -0.216   3.626  24.920  0.00  0.00    +0.137 A 
ATOM     25  C   UNL     1      -1.214   2.928  27.363  0.00  0.00    +0.069 A 
ATOM     27  C   UNL     1       0.092   2.665  26.984  0.00  0.00    +0.214 A 
BRANCH  27   2
ATOM      2  O   UNL     1       0.924   2.027  27.868  0.00  0.00    -0.480 OA
ATOM     32  C   UNL     1       1.785   2.851  28.646  0.00  0.00    +0.279 C 
ENDBRANCH  27   2
ENDBRANCH   3  21
ENDBRANCH  15   3
ENDBRANCH   9  15
BRANCH  11  16
ATOM     16  C   UNL     1      -3.400   0.106  25.796  0.00  0.00    +0.105 C 
BRANCH  16  20
ATOM      1  O   UNL     1      -1.277   0.196  24.596  0.00  0.00    -0.420 OA
ATOM      4  N   UNL     1      -2.181  -1.847  24.704  0.00  0.00    -0.112 NA
ATOM      5  N   UNL     1      -0.994  -1.943  24.003  0.00  0.00    -0.107 NA
ATOM     20  C   UNL     1      -2.306  -0.581  25.030  0.00  0.00    +0.218 A 
ATOM     22  C   UNL     1      -0.500  -0.727  23.965  0.00  0.00    +0.250 A 
BRANCH  22  26
ATOM      7  N   UNL     1       2.581   1.293  23.472  0.00  0.00    -0.263 NA
ATOM     26  C   UNL     1       0.707  -0.232  23.372  0.00  0.00    +0.057 A 
ATOM     28  C   UNL     1       1.183  -0.750  22.173  0.00  0.00    +0.016 A 
ATOM     29  C   UNL     1       1.437   0.780  23.976  0.00  0.00    +0.124 A 
ATOM     30  C   UNL     1       2.358  -0.248  21.623  0.00  0.00    +0.020 A 
ATOM     31  C   UNL     1       3.013   0.763  22.305  0.00  0.00    +0.111 A 
ENDBRANCH  22  26
ENDBRANCH  16  20
ENDBRANCH  11  16
TORSDOF 8
ENDMDL
MODEL 10
REMARK VINA RESULT:       1.3      1.818      2.829
REMARK  Name = 38030491
REMARK  12 active torsions:
REMARK  status: ('A' for Active; 'I' for Inactive)
REMARK    1  A    between atoms: O_2  and  C_27
REMARK    2  A    between atoms: O_2  and  C_32
REMARK    3  A    between atoms: N_3  and  C_15
REMARK    4  A    between atoms: N_3  and  C_21
REMARK    5  A    between atoms: C_8  and  C_12
REMARK    6  A    between atoms: C_9  and  C_15
REMARK    7  A    between atoms: C_11  and  C_16
REMARK    8  A    between atoms: C_12  and  C_17
REMARK    9  A    between atoms: C_12  and  C_18
REMARK   10  A    between atoms: C_13  and  C_19
REMARK   11  A    between atoms: C_16  and  C_20
REMARK   12  A    between atoms: C_22  and  C_26
REMARK                            x       y       z     vdW  Elec       q    Type
REMARK                         _______ _______ _______ _____ _____    ______ ____
ROOT
ATOM      8  C   UNL     1      -3.952   3.449  25.803  0.00  0.00    +0.000 C 
ATOM      9  C   UNL     1      -3.931   3.622  24.264  0.00  0.00    +0.032 C 
ATOM     10  C   UNL     1      -2.965   4.424  26.464  0.00  0.00    +0.012 C 
ATOM     11  C   UNL     1      -1.522   4.218  25.968  0.00  0.00    +0.024 C 
ATOM     13  C   UNL     1      -1.455   4.109  24.459  0.00  0.00    -0.073 C 
ATOM     14  C   UNL     1      -2.545   3.855  23.712  0.00  0.00    -0.022 C 
ATOM     19  C   UNL     1      -0.113   4.342  23.821  0.00  0.00    +0.039 C 
ENDROOT
BRANCH   8  12
ATOM     12  C   UNL     1      -5.355   3.660  26.382  0.00  0.00    -0.013 C 
ATOM     17  C   UNL     1      -6.143   4.640  25.520  0.00  0.00    +0.007 C 
ATOM     18  C   UNL     1      -6.089   2.327  26.496  0.00  0.00    +0.007 C 
ENDBRANCH   8  12
BRANCH   9  15
ATOM     15  C   UNL     1      -4.563   2.413  23.564  0.00  0.00    +0.109 C 
BRANCH  15   3
ATOM      3  N   UNL     1      -4.908   1.418  24.541  0.00  0.00    -0.342 N 
ATOM     33  H   UNL     1      -5.570   1.644  25.276  0.00  0.00    +0.146 HD
BRANCH   3  21
ATOM      6  N   UNL     1      -3.573  -1.809  23.395  0.00  0.00    -0.219 NA
ATOM     21  C   UNL     1      -4.349   0.146  24.585  0.00  0.00    +0.046 A 
ATOM     23  C   UNL     1      -4.012  -0.447  25.796  0.00  0.00    +0.029 A 
ATOM     24  C   UNL     1      -4.112  -0.570  23.422  0.00  0.00    +0.137 A 
ATOM     25  C   UNL     1      -3.456  -1.722  25.808  0.00  0.00    +0.069 A 
ATOM     27  C   UNL     1      -3.258  -2.354  24.591  0.00  0.00    +0.214 A 
BRANCH  27   2
ATOM      2  O   UNL     1      -2.712  -3.611  24.578  0.00  0.00    -0.480 OA
ATOM     32  C   UNL     1      -2.044  -4.006  23.385  0.00  0.00    +0.279 C 
ENDBRANCH  27   2
ENDBRANCH   3  21
ENDBRANCH  15   3
ENDBRANCH   9  15
BRANCH  11  16
ATOM     16  C   UNL     1      -0.877   2.998  26.636  0.00  0.00    +0.105 C 
BRANCH  16  20
ATOM      1  O   UNL     1       0.554   1.980  24.941  0.00  0.00    -0.420 OA
ATOM      4  N   UNL     1      -1.343   0.860  25.332  0.00  0.00    -0.112 NA
ATOM      5  N   UNL     1      -0.638   0.177  24.359  0.00  0.00    -0.107 NA
ATOM     20  C   UNL     1      -0.611   1.905  25.642  0.00  0.00    +0.218 A 
ATOM     22  C   UNL     1       0.462   0.866  24.163  0.00  0.00    +0.250 A 
BRANCH  22  26
ATOM      7  N   UNL     1       2.397  -0.404  21.254  0.00  0.00    -0.263 NA
ATOM     26  C   UNL     1       1.560   0.631  23.272  0.00  0.00    +0.057 A 
ATOM     28  C   UNL     1       2.816   1.174  23.522  0.00  0.00    +0.016 A 
ATOM     29  C   UNL     1       1.405  -0.144  22.134  0.00  0.00    +0.124 A 
ATOM     30  C   UNL     1       3.862   0.929  22.640  0.00  0.00    +0.020 A 
ATOM     31  C   UNL     1       3.603   0.141  21.531  0.00  0.00    +0.111 A 
ENDBRANCH  22  26
ENDBRANCH  16  20
ENDBRANCH  11  16
TORSDOF 8
ENDMDL
