MODEL 1
REMARK VINA RESULT:      -3.6      0.000      0.000
REMARK  Name = 45783461
REMARK  9 active torsions:
REMARK  status: ('A' for Active; 'I' for Inactive)
REMARK    1  A    between atoms: O_2  and  C_22
REMARK    2  A    between atoms: O_2  and  C_25
REMARK    3  A    between atoms: O_3  and  C_26
REMARK    4  A    between atoms: O_3  and  C_27
REMARK    5  A    between atoms: N_4  and  C_14
REMARK    6  A    between atoms: C_10  and  C_15
REMARK    7  A    between atoms: C_14  and  C_16
REMARK    8  A    between atoms: C_17  and  C_20
REMARK    9  A    between atoms: C_25  and  C_26
REMARK                            x       y       z     vdW  Elec       q    Type
REMARK                         _______ _______ _______ _____ _____    ______ ____
ROOT
ATOM      1  O   UNL     1      -1.939   2.033  25.556  0.00  0.00    -0.336 OA
ATOM      5  N   UNL     1      -1.844   1.539  23.373  0.00  0.00    -0.189 NA
ATOM      8  N   UNL     1      -0.631   1.598  25.311  0.00  0.00    -0.054 NA
ATOM     15  C   UNL     1      -2.587   1.968  24.363  0.00  0.00    +0.245 A 
ATOM     17  C   UNL     1      -0.652   1.327  24.003  0.00  0.00    +0.221 A 
ENDROOT
BRANCH  17  20
ATOM      9  N   UNL     1       0.262  -0.164  22.421  0.00  0.00    -0.252 NA
ATOM     20  C   UNL     1       0.496   0.839  23.296  0.00  0.00    +0.115 A 
ATOM     21  C   UNL     1       1.746   1.390  23.528  0.00  0.00    +0.077 A 
ATOM     22  C   UNL     1       2.825   0.878  22.815  0.00  0.00    +0.124 A 
ATOM     23  C   UNL     1       1.335  -0.635  21.747  0.00  0.00    +0.115 A 
ATOM     24  C   UNL     1       2.624  -0.154  21.905  0.00  0.00    +0.065 A 
BRANCH  22   2
ATOM      2  O   UNL     1       4.072   1.387  23.007  0.00  0.00    -0.490 OA
BRANCH   2  25
ATOM     25  C   UNL     1       5.164   0.468  22.954  0.00  0.00    +0.257 C 
BRANCH  25  26
ATOM     26  C   UNL     1       5.740   0.304  24.347  0.00  0.00    +0.200 C 
BRANCH  26   3
ATOM      3  O   UNL     1       5.686  -1.068  24.714  0.00  0.00    -0.380 OA
ATOM     27  C   UNL     1       4.728  -1.777  23.940  0.00  0.00    +0.194 C 
ENDBRANCH  26   3
ENDBRANCH  25  26
ENDBRANCH   2  25
ENDBRANCH  22   2
ENDBRANCH  17  20
BRANCH  15  10
ATOM      4  N   UNL     1      -4.873   1.569  25.259  0.00  0.00    -0.284 NA
ATOM     10  C   UNL     1      -4.040   2.392  24.360  0.00  0.00    +0.146 C 
ATOM     11  C   UNL     1      -4.238   3.837  24.857  0.00  0.00    +0.030 C 
ATOM     12  C   UNL     1      -5.244   3.732  25.994  0.00  0.00    +0.017 C 
ATOM     13  C   UNL     1      -5.966   2.430  25.713  0.00  0.00    +0.085 C 
BRANCH   4  14
ATOM     14  C   UNL     1      -5.361   0.348  24.631  0.00  0.00    +0.159 C 
BRANCH  14  16
ATOM      6  N   UNL     1      -3.263  -0.699  25.513  0.00  0.00    -0.347 N 
ATOM      7  N   UNL     1      -4.310  -1.831  23.914  0.00  0.00    -0.239 NA
ATOM     16  C   UNL     1      -4.329  -0.747  24.658  0.00  0.00    +0.121 A 
ATOM     18  C   UNL     1      -2.516  -1.824  25.300  0.00  0.00    +0.104 A 
ATOM     19  C   UNL     1      -3.181  -2.505  24.309  0.00  0.00    +0.130 A 
ATOM     28  H   UNL     1      -3.062   0.032  26.182  0.00  0.00    +0.167 HD
ENDBRANCH  14  16
ENDBRANCH   4  14
ENDBRANCH  15  10
TORSDOF 8
ENDMDL
MODEL 2
REMARK VINA RESULT:      -1.2     16.621     19.208
REMARK  Name = 45783461
REMARK  9 active torsions:
REMARK  status: ('A' for Active; 'I' for Inactive)
REMARK    1  A    between atoms: O_2  and  C_22
REMARK    2  A    between atoms: O_2  and  C_25
REMARK    3  A    between atoms: O_3  and  C_26
REMARK    4  A    between atoms: O_3  and  C_27
REMARK    5  A    between atoms: N_4  and  C_14
REMARK    6  A    between atoms: C_10  and  C_15
REMARK    7  A    between atoms: C_14  and  C_16
REMARK    8  A    between atoms: C_17  and  C_20
REMARK    9  A    between atoms: C_25  and  C_26
REMARK                            x       y       z     vdW  Elec       q    Type
REMARK                         _______ _______ _______ _____ _____    ______ ____
ROOT
ATOM      1  O   UNL     1      15.901  -5.802  26.285  0.00  0.00    -0.336 OA
ATOM      5  N   UNL     1      16.542  -6.348  28.360  0.00  0.00    -0.189 NA
ATOM      8  N   UNL     1      15.280  -7.022  26.576  0.00  0.00    -0.054 NA
ATOM     15  C   UNL     1      16.625  -5.475  27.387  0.00  0.00    +0.245 A 
ATOM     17  C   UNL     1      15.705  -7.278  27.817  0.00  0.00    +0.221 A 
ENDROOT
BRANCH  17  20
ATOM      9  N   UNL     1      15.494  -9.626  27.889  0.00  0.00    -0.252 NA
ATOM     20  C   UNL     1      15.316  -8.454  28.540  0.00  0.00    +0.115 A 
ATOM     21  C   UNL     1      14.796  -8.349  29.819  0.00  0.00    +0.077 A 
ATOM     22  C   UNL     1      14.435  -9.521  30.473  0.00  0.00    +0.124 A 
ATOM     23  C   UNL     1      15.132 -10.744  28.557  0.00  0.00    +0.115 A 
ATOM     24  C   UNL     1      14.603 -10.746  29.838  0.00  0.00    +0.065 A 
BRANCH  22   2
ATOM      2  O   UNL     1      13.919  -9.470  31.732  0.00  0.00    -0.490 OA
BRANCH   2  25
ATOM     25  C   UNL     1      12.847  -8.556  31.959  0.00  0.00    +0.257 C 
BRANCH  25  26
ATOM     26  C   UNL     1      11.564  -9.154  31.414  0.00  0.00    +0.200 C 
BRANCH  26   3
ATOM      3  O   UNL     1      10.461  -8.623  32.136  0.00  0.00    -0.380 OA
ATOM     27  C   UNL     1       9.447  -9.599  32.331  0.00  0.00    +0.194 C 
ENDBRANCH  26   3
ENDBRANCH  25  26
ENDBRANCH   2  25
ENDBRANCH  22   2
ENDBRANCH  17  20
BRANCH  15  10
ATOM      4  N   UNL     1      16.869  -3.245  26.311  0.00  0.00    -0.284 NA
ATOM     10  C   UNL     1      17.403  -4.177  27.325  0.00  0.00    +0.146 C 
ATOM     11  C   UNL     1      17.350  -3.388  28.647  0.00  0.00    +0.030 C 
ATOM     12  C   UNL     1      16.834  -2.008  28.266  0.00  0.00    +0.017 C 
ATOM     13  C   UNL     1      17.168  -1.896  26.792  0.00  0.00    +0.085 C 
BRANCH   4  14
ATOM     14  C   UNL     1      17.405  -3.482  24.976  0.00  0.00    +0.159 C 
BRANCH  14  16
ATOM      6  N   UNL     1      15.568  -3.177  23.299  0.00  0.00    -0.347 N 
ATOM      7  N   UNL     1      16.982  -1.476  23.505  0.00  0.00    -0.239 NA
ATOM     16  C   UNL     1      16.676  -2.682  23.930  0.00  0.00    +0.121 A 
ATOM     18  C   UNL     1      15.141  -2.225  22.416  0.00  0.00    +0.104 A 
ATOM     19  C   UNL     1      16.029  -1.187  22.560  0.00  0.00    +0.130 A 
ATOM     28  H   UNL     1      15.140  -4.079  23.457  0.00  0.00    +0.167 HD
ENDBRANCH  14  16
ENDBRANCH   4  14
ENDBRANCH  15  10
TORSDOF 8
ENDMDL
