MODEL 1
REMARK VINA RESULT:       7.0      0.000      0.000
REMARK  Name = 11886264
REMARK  6 active torsions:
REMARK  status: ('A' for Active; 'I' for Inactive)
REMARK    1  A    between atoms: O_3  and  C_20
REMARK    2  A    between atoms: O_3  and  C_23
REMARK    3  A    between atoms: N_5  and  C_16
REMARK    4  A    between atoms: N_6  and  C_17
REMARK    5  A    between atoms: N_9  and  C_22
REMARK    6  A    between atoms: N_11  and  C_35
REMARK                            x       y       z     vdW  Elec       q    Type
REMARK                         _______ _______ _______ _____ _____    ______ ____
ROOT
ATOM      1  O   UNL     1      -4.349  -1.125  23.238  0.00  0.00    -0.370 OA
ATOM      2  O   UNL     1      -3.309  -1.445  26.188  0.00  0.00    -0.370 OA
ATOM     14  C   UNL     1      -3.390  -0.337  25.272  0.00  0.00    +0.176 C 
ATOM     15  C   UNL     1      -3.093  -0.878  23.888  0.00  0.00    +0.172 C 
ATOM     16  C   UNL     1      -4.820   0.162  25.193  0.00  0.00    +0.171 C 
ATOM     17  C   UNL     1      -2.370  -2.182  24.143  0.00  0.00    +0.131 C 
ATOM     18  C   UNL     1      -5.423  -0.698  24.088  0.00  0.00    +0.190 C 
ATOM     19  C   UNL     1      -2.973  -2.634  25.459  0.00  0.00    +0.185 C 
ENDROOT
BRANCH  17   6
ATOM      4  O   UNL     1      -0.845  -0.052  22.984  0.00  0.00    -0.252 OA
ATOM      6  N   UNL     1      -0.948  -1.975  24.262  0.00  0.00    -0.292 N 
ATOM      9  N   UNL     1       1.090  -0.963  23.950  0.00  0.00    -0.269 N 
ATOM     21  C   UNL     1      -0.276  -0.903  23.662  0.00  0.00    +0.304 C 
ATOM     40  H   UNL     1      -0.419  -2.596  24.868  0.00  0.00    +0.151 HD
ATOM     41  H   UNL     1       1.395  -1.839  24.360  0.00  0.00    +0.156 HD
BRANCH   9  22
ATOM     22  C   UNL     1       2.106  -0.070  23.533  0.00  0.00    +0.042 A 
ATOM     24  C   UNL     1       3.451  -0.442  23.550  0.00  0.00    +0.003 A 
ATOM     25  C   UNL     1       1.701   1.189  23.109  0.00  0.00    +0.024 A 
ATOM     26  C   UNL     1       4.423   0.494  23.121  0.00  0.00    -0.016 A 
ATOM     29  C   UNL     1       3.865  -1.714  23.978  0.00  0.00    +0.010 A 
ATOM     30  C   UNL     1       2.657   2.109  22.687  0.00  0.00    +0.002 A 
ATOM     31  C   UNL     1       4.009   1.765  22.693  0.00  0.00    +0.008 A 
ATOM     34  C   UNL     1       5.779   0.130  23.134  0.00  0.00    +0.008 A 
ATOM     36  C   UNL     1       5.218  -2.059  23.984  0.00  0.00    +0.001 A 
ATOM     37  C   UNL     1       6.172  -1.138  23.562  0.00  0.00    +0.001 A 
ENDBRANCH   9  22
ENDBRANCH  17   6
BRANCH  16   5
ATOM      5  N   UNL     1      -4.898   1.608  24.966  0.00  0.00    -0.187 N 
ATOM      7  N   UNL     1      -6.050   2.266  25.130  0.00  0.00    -0.041 NA
ATOM      8  N   UNL     1      -4.432   3.667  24.505  0.00  0.00    -0.071 NA
ATOM     10  N   UNL     1      -5.758   3.530  24.846  0.00  0.00    -0.020 NA
ATOM     20  C   UNL     1      -3.919   2.461  24.586  0.00  0.00    +0.342 A 
BRANCH  20   3
ATOM      3  O   UNL     1      -2.666   2.118  24.344  0.00  0.00    -0.423 OA
BRANCH   3  23
ATOM     23  C   UNL     1      -1.663   2.233  25.296  0.00  0.00    +0.132 A 
ATOM     27  C   UNL     1      -1.291   1.113  26.016  0.00  0.00    +0.048 A 
ATOM     28  C   UNL     1      -1.067   3.462  25.497  0.00  0.00    +0.048 A 
ATOM     32  C   UNL     1      -0.284   1.229  26.974  0.00  0.00    +0.031 A 
ATOM     33  C   UNL     1      -0.058   3.577  26.454  0.00  0.00    +0.031 A 
ATOM     35  C   UNL     1       0.333   2.460  27.193  0.00  0.00    +0.067 A 
BRANCH  35  11
ATOM     11  N   UNL     1       1.332   2.574  28.143  0.00  0.00    -0.220 N 
ATOM     12  N   UNL     1       2.506   3.173  27.873  0.00  0.00    -0.154 NA
ATOM     13  N   UNL     1       2.431   2.419  30.032  0.00  0.00    -0.222 NA
ATOM     38  C   UNL     1       1.301   2.129  29.432  0.00  0.00    +0.225 A 
ATOM     39  C   UNL     1       3.133   3.052  29.046  0.00  0.00    +0.245 A 
ENDBRANCH  35  11
ENDBRANCH   3  23
ENDBRANCH  20   3
ENDBRANCH  16   5
TORSDOF 6
ENDMDL
