MODEL 1
REMARK VINA RESULT:      -3.1      0.000      0.000
REMARK  Name = 25390426
REMARK  12 active torsions:
REMARK  status: ('A' for Active; 'I' for Inactive)
REMARK    1  A    between atoms: O_2  and  C_9
REMARK    2  A    between atoms: O_3  and  C_10
REMARK    3  A    between atoms: O_6  and  C_25
REMARK    4  A    between atoms: O_6  and  C_26
REMARK    5  A    between atoms: N_7  and  C_14
REMARK    6  A    between atoms: N_8  and  C_16
REMARK    7  A    between atoms: C_11  and  C_13
REMARK    8  A    between atoms: C_12  and  C_14
REMARK    9  A    between atoms: C_13  and  C_15
REMARK   10  A    between atoms: C_16  and  C_18
REMARK   11  A    between atoms: C_16  and  C_19
REMARK   12  A    between atoms: C_17  and  C_20
REMARK                            x       y       z     vdW  Elec       q    Type
REMARK                         _______ _______ _______ _____ _____    ______ ____
ROOT
ATOM      1  O   UNL     1      -2.736   2.667  23.876  0.00  0.00    -0.366 OA
ATOM      9  C   UNL     1      -2.001   4.084  25.638  0.00  0.00    +0.175 C 
ATOM     10  C   UNL     1      -1.042   2.920  25.496  0.00  0.00    +0.176 C 
ATOM     11  C   UNL     1      -3.226   3.580  24.884  0.00  0.00    +0.158 C 
ATOM     12  C   UNL     1      -1.326   2.465  24.074  0.00  0.00    +0.167 C 
ENDROOT
BRANCH   9   2
ATOM      2  O   UNL     1      -1.496   5.228  24.951  0.00  0.00    -0.387 OA
ATOM     27  H   UNL     1      -1.111   5.821  25.619  0.00  0.00    +0.210 HD
ENDBRANCH   9   2
BRANCH  10   3
ATOM      3  O   UNL     1       0.310   3.284  25.675  0.00  0.00    -0.387 OA
ATOM     28  H   UNL     1       0.325   4.108  26.191  0.00  0.00    +0.210 HD
ENDBRANCH  10   3
BRANCH  11  13
ATOM     13  C   UNL     1      -4.200   2.817  25.770  0.00  0.00    +0.130 C 
BRANCH  13  15
ATOM      4  O   UNL     1      -5.729   1.531  24.407  0.00  0.00    -0.276 OA
ATOM      8  N   UNL     1      -3.927   0.458  25.407  0.00  0.00    -0.313 N 
ATOM     15  C   UNL     1      -4.723   1.554  25.110  0.00  0.00    +0.216 C 
ATOM     30  H   UNL     1      -3.080   0.600  25.951  0.00  0.00    +0.149 HD
BRANCH   8  16
ATOM     16  C   UNL     1      -4.199  -0.871  24.910  0.00  0.00    +0.067 C 
ATOM     18  C   UNL     1      -3.331  -1.894  25.632  0.00  0.00    +0.027 C 
ATOM     19  C   UNL     1      -3.984  -0.932  23.403  0.00  0.00    +0.027 C 
ENDBRANCH   8  16
ENDBRANCH  13  15
ENDBRANCH  11  13
BRANCH  12  14
ATOM     14  C   UNL     1      -0.979   1.007  23.828  0.00  0.00    +0.138 C 
BRANCH  14   7
ATOM      5  O   UNL     1       0.658  -0.324  21.881  0.00  0.00    -0.270 OA
ATOM      7  N   UNL     1       0.436   0.792  23.903  0.00  0.00    -0.309 N 
ATOM     17  C   UNL     1       1.153   0.133  22.908  0.00  0.00    +0.244 C 
ATOM     29  H   UNL     1       0.918   1.193  24.701  0.00  0.00    +0.149 HD
BRANCH  17  20
ATOM     20  C   UNL     1       2.611  -0.033  23.149  0.00  0.00    +0.037 A 
ATOM     21  C   UNL     1       3.485   1.021  22.882  0.00  0.00    +0.016 A 
ATOM     22  C   UNL     1       3.104  -1.242  23.638  0.00  0.00    +0.016 A 
ATOM     23  C   UNL     1       4.853   0.865  23.105  0.00  0.00    +0.046 A 
ATOM     24  C   UNL     1       4.472  -1.398  23.861  0.00  0.00    +0.046 A 
ATOM     25  C   UNL     1       5.346  -0.344  23.594  0.00  0.00    +0.120 A 
BRANCH  25   6
ATOM      6  O   UNL     1       6.682  -0.497  23.812  0.00  0.00    -0.495 OA
ATOM     26  C   UNL     1       7.512  -0.657  22.663  0.00  0.00    +0.277 C 
ENDBRANCH  25   6
ENDBRANCH  17  20
ENDBRANCH  14   7
ENDBRANCH  12  14
TORSDOF 9
ENDMDL
MODEL 2
REMARK VINA RESULT:      -3.0      1.969      3.939
REMARK  Name = 25390426
REMARK  12 active torsions:
REMARK  status: ('A' for Active; 'I' for Inactive)
REMARK    1  A    between atoms: O_2  and  C_9
REMARK    2  A    between atoms: O_3  and  C_10
REMARK    3  A    between atoms: O_6  and  C_25
REMARK    4  A    between atoms: O_6  and  C_26
REMARK    5  A    between atoms: N_7  and  C_14
REMARK    6  A    between atoms: N_8  and  C_16
REMARK    7  A    between atoms: C_11  and  C_13
REMARK    8  A    between atoms: C_12  and  C_14
REMARK    9  A    between atoms: C_13  and  C_15
REMARK   10  A    between atoms: C_16  and  C_18
REMARK   11  A    between atoms: C_16  and  C_19
REMARK   12  A    between atoms: C_17  and  C_20
REMARK                            x       y       z     vdW  Elec       q    Type
REMARK                         _______ _______ _______ _____ _____    ______ ____
ROOT
ATOM      1  O   UNL     1      -4.375   1.738  24.003  0.00  0.00    -0.366 OA
ATOM      9  C   UNL     1      -6.195   1.753  25.533  0.00  0.00    +0.175 C 
ATOM     10  C   UNL     1      -5.428   3.054  25.653  0.00  0.00    +0.176 C 
ATOM     11  C   UNL     1      -5.197   0.860  24.806  0.00  0.00    +0.158 C 
ATOM     12  C   UNL     1      -4.704   3.103  24.318  0.00  0.00    +0.167 C 
ENDROOT
BRANCH   9   2
ATOM      2  O   UNL     1      -7.333   1.926  24.690  0.00  0.00    -0.387 OA
ATOM     27  H   UNL     1      -7.759   2.762  24.945  0.00  0.00    +0.210 HD
ENDBRANCH   9   2
BRANCH  10   3
ATOM      3  O   UNL     1      -6.259   4.178  25.847  0.00  0.00    -0.387 OA
ATOM     28  H   UNL     1      -7.084   3.864  26.253  0.00  0.00    +0.210 HD
ENDBRANCH  10   3
BRANCH  11  13
ATOM     13  C   UNL     1      -4.278   0.099  25.752  0.00  0.00    +0.130 C 
BRANCH  13  15
ATOM      4  O   UNL     1      -4.161  -1.728  24.171  0.00  0.00    -0.276 OA
ATOM      8  N   UNL     1      -2.417  -1.418  25.675  0.00  0.00    -0.313 N 
ATOM     15  C   UNL     1      -3.639  -1.111  25.096  0.00  0.00    +0.216 C 
ATOM     30  H   UNL     1      -2.048  -0.804  26.396  0.00  0.00    +0.149 HD
BRANCH   8  16
ATOM     16  C   UNL     1      -1.596  -2.526  25.244  0.00  0.00    +0.067 C 
ATOM     18  C   UNL     1      -0.123  -2.219  25.484  0.00  0.00    +0.027 C 
ATOM     19  C   UNL     1      -1.860  -2.849  23.779  0.00  0.00    +0.027 C 
ENDBRANCH   8  16
ENDBRANCH  13  15
ENDBRANCH  11  13
BRANCH  12  14
ATOM     14  C   UNL     1      -3.438   3.940  24.350  0.00  0.00    +0.138 C 
BRANCH  14   7
ATOM      5  O   UNL     1      -1.681   2.349  25.971  0.00  0.00    -0.270 OA
ATOM      7  N   UNL     1      -2.306   3.184  23.898  0.00  0.00    -0.309 N 
ATOM     17  C   UNL     1      -1.505   2.438  24.758  0.00  0.00    +0.244 C 
ATOM     29  H   UNL     1      -2.137   3.168  22.898  0.00  0.00    +0.149 HD
BRANCH  17  20
ATOM     20  C   UNL     1      -0.354   1.731  24.137  0.00  0.00    +0.037 A 
ATOM     21  C   UNL     1       0.931   2.265  24.243  0.00  0.00    +0.016 A 
ATOM     22  C   UNL     1      -0.559   0.537  23.446  0.00  0.00    +0.016 A 
ATOM     23  C   UNL     1       2.010   1.605  23.658  0.00  0.00    +0.046 A 
ATOM     24  C   UNL     1       0.521  -0.123  22.860  0.00  0.00    +0.046 A 
ATOM     25  C   UNL     1       1.806   0.411  22.967  0.00  0.00    +0.120 A 
BRANCH  25   6
ATOM      6  O   UNL     1       2.860  -0.235  22.395  0.00  0.00    -0.495 OA
ATOM     26  C   UNL     1       4.161   0.283  22.665  0.00  0.00    +0.277 C 
ENDBRANCH  25   6
ENDBRANCH  17  20
ENDBRANCH  14   7
ENDBRANCH  12  14
TORSDOF 9
ENDMDL
MODEL 3
REMARK VINA RESULT:      -1.8      3.146      7.737
REMARK  Name = 25390426
REMARK  12 active torsions:
REMARK  status: ('A' for Active; 'I' for Inactive)
REMARK    1  A    between atoms: O_2  and  C_9
REMARK    2  A    between atoms: O_3  and  C_10
REMARK    3  A    between atoms: O_6  and  C_25
REMARK    4  A    between atoms: O_6  and  C_26
REMARK    5  A    between atoms: N_7  and  C_14
REMARK    6  A    between atoms: N_8  and  C_16
REMARK    7  A    between atoms: C_11  and  C_13
REMARK    8  A    between atoms: C_12  and  C_14
REMARK    9  A    between atoms: C_13  and  C_15
REMARK   10  A    between atoms: C_16  and  C_18
REMARK   11  A    between atoms: C_16  and  C_19
REMARK   12  A    between atoms: C_17  and  C_20
REMARK                            x       y       z     vdW  Elec       q    Type
REMARK                         _______ _______ _______ _____ _____    ______ ____
ROOT
ATOM      1  O   UNL     1      -1.184  -2.165  23.486  0.00  0.00    -0.366 OA
ATOM      9  C   UNL     1      -0.077  -1.119  25.313  0.00  0.00    +0.175 C 
ATOM     10  C   UNL     1      -1.567  -1.161  25.586  0.00  0.00    +0.176 C 
ATOM     11  C   UNL     1      -0.021  -1.368  23.810  0.00  0.00    +0.158 C 
ATOM     12  C   UNL     1      -2.014  -2.277  24.656  0.00  0.00    +0.167 C 
ENDROOT
BRANCH   9   2
ATOM      2  O   UNL     1       0.577  -2.206  25.967  0.00  0.00    -0.387 OA
ATOM     27  H   UNL     1       1.520  -1.979  26.035  0.00  0.00    +0.210 HD
ENDBRANCH   9   2
BRANCH  10   3
ATOM      3  O   UNL     1      -1.881  -1.437  26.933  0.00  0.00    -0.387 OA
ATOM     28  H   UNL     1      -1.161  -1.081  27.480  0.00  0.00    +0.210 HD
ENDBRANCH  10   3
BRANCH  11  13
ATOM     13  C   UNL     1      -0.092  -0.087  22.990  0.00  0.00    +0.130 C 
BRANCH  13  15
ATOM      4  O   UNL     1       1.637   1.373  23.842  0.00  0.00    -0.276 OA
ATOM      8  N   UNL     1      -0.587   1.870  24.293  0.00  0.00    -0.313 N 
ATOM     15  C   UNL     1       0.440   1.118  23.743  0.00  0.00    +0.216 C 
ATOM     30  H   UNL     1      -1.548   1.602  24.099  0.00  0.00    +0.149 HD
BRANCH   8  16
ATOM     16  C   UNL     1      -0.361   3.070  25.065  0.00  0.00    +0.067 C 
ATOM     18  C   UNL     1      -1.240   3.074  26.309  0.00  0.00    +0.027 C 
ATOM     19  C   UNL     1      -0.608   4.308  24.211  0.00  0.00    +0.027 C 
ENDBRANCH   8  16
ENDBRANCH  13  15
ENDBRANCH  11  13
BRANCH  12  14
ATOM     14  C   UNL     1      -3.475  -2.179  24.256  0.00  0.00    +0.138 C 
BRANCH  14   7
ATOM      5  O   UNL     1      -3.175   0.335  22.901  0.00  0.00    -0.270 OA
ATOM      7  N   UNL     1      -4.037  -0.921  24.652  0.00  0.00    -0.309 N 
ATOM     17  C   UNL     1      -3.838   0.254  23.932  0.00  0.00    +0.244 C 
ATOM     29  H   UNL     1      -4.643  -0.926  25.466  0.00  0.00    +0.149 HD
BRANCH  17  20
ATOM     20  C   UNL     1      -4.467   1.480  24.489  0.00  0.00    +0.037 A 
ATOM     21  C   UNL     1      -4.015   2.739  24.088  0.00  0.00    +0.016 A 
ATOM     22  C   UNL     1      -5.505   1.374  25.414  0.00  0.00    +0.016 A 
ATOM     23  C   UNL     1      -4.603   3.889  24.614  0.00  0.00    +0.046 A 
ATOM     24  C   UNL     1      -6.093   2.524  25.939  0.00  0.00    +0.046 A 
ATOM     25  C   UNL     1      -5.641   3.782  25.539  0.00  0.00    +0.120 A 
BRANCH  25   6
ATOM      6  O   UNL     1      -6.215   4.906  26.052  0.00  0.00    -0.495 OA
ATOM     26  C   UNL     1      -6.619   5.910  25.123  0.00  0.00    +0.277 C 
ENDBRANCH  25   6
ENDBRANCH  17  20
ENDBRANCH  14   7
ENDBRANCH  12  14
TORSDOF 9
ENDMDL
MODEL 4
REMARK VINA RESULT:      -1.7      1.667      3.481
REMARK  Name = 25390426
REMARK  12 active torsions:
REMARK  status: ('A' for Active; 'I' for Inactive)
REMARK    1  A    between atoms: O_2  and  C_9
REMARK    2  A    between atoms: O_3  and  C_10
REMARK    3  A    between atoms: O_6  and  C_25
REMARK    4  A    between atoms: O_6  and  C_26
REMARK    5  A    between atoms: N_7  and  C_14
REMARK    6  A    between atoms: N_8  and  C_16
REMARK    7  A    between atoms: C_11  and  C_13
REMARK    8  A    between atoms: C_12  and  C_14
REMARK    9  A    between atoms: C_13  and  C_15
REMARK   10  A    between atoms: C_16  and  C_18
REMARK   11  A    between atoms: C_16  and  C_19
REMARK   12  A    between atoms: C_17  and  C_20
REMARK                            x       y       z     vdW  Elec       q    Type
REMARK                         _______ _______ _______ _____ _____    ______ ____
ROOT
ATOM      1  O   UNL     1      -2.697   0.356  25.368  0.00  0.00    -0.366 OA
ATOM      9  C   UNL     1      -3.439  -1.883  25.063  0.00  0.00    +0.175 C 
ATOM     10  C   UNL     1      -2.369  -1.564  24.039  0.00  0.00    +0.176 C 
ATOM     11  C   UNL     1      -3.857  -0.493  25.530  0.00  0.00    +0.158 C 
ATOM     12  C   UNL     1      -1.666  -0.384  24.692  0.00  0.00    +0.167 C 
ENDROOT
BRANCH   9   2
ATOM      2  O   UNL     1      -2.870  -2.572  26.175  0.00  0.00    -0.387 OA
ATOM     27  H   UNL     1      -2.601  -1.901  26.826  0.00  0.00    +0.210 HD
ENDBRANCH   9   2
BRANCH  10   3
ATOM      3  O   UNL     1      -1.486  -2.639  23.798  0.00  0.00    -0.387 OA
ATOM     28  H   UNL     1      -0.992  -2.800  24.619  0.00  0.00    +0.210 HD
ENDBRANCH  10   3
BRANCH  11  13
ATOM     13  C   UNL     1      -4.987   0.100  24.701  0.00  0.00    +0.130 C 
BRANCH  13  15
ATOM      4  O   UNL     1      -6.325   2.047  25.222  0.00  0.00    -0.276 OA
ATOM      8  N   UNL     1      -4.028   2.287  24.965  0.00  0.00    -0.313 N 
ATOM     15  C   UNL     1      -5.216   1.571  24.994  0.00  0.00    +0.216 C 
ATOM     30  H   UNL     1      -3.156   1.783  24.825  0.00  0.00    +0.149 HD
BRANCH   8  16
ATOM     16  C   UNL     1      -3.958   3.709  25.207  0.00  0.00    +0.067 C 
ATOM     18  C   UNL     1      -3.885   4.468  23.888  0.00  0.00    +0.027 C 
ATOM     19  C   UNL     1      -2.770   4.041  26.100  0.00  0.00    +0.027 C 
ENDBRANCH   8  16
ENDBRANCH  13  15
ENDBRANCH  11  13
BRANCH  12  14
ATOM     14  C   UNL     1      -0.957   0.519  23.698  0.00  0.00    +0.138 C 
BRANCH  14   7
ATOM      5  O   UNL     1       0.870  -0.450  21.705  0.00  0.00    -0.270 OA
ATOM      7  N   UNL     1       0.467   0.409  23.823  0.00  0.00    -0.309 N 
ATOM     17  C   UNL     1       1.279  -0.075  22.801  0.00  0.00    +0.244 C 
ATOM     29  H   UNL     1       0.878   0.753  24.684  0.00  0.00    +0.149 HD
BRANCH  17  20
ATOM     20  C   UNL     1       2.733  -0.151  23.098  0.00  0.00    +0.037 A 
ATOM     21  C   UNL     1       3.555   0.949  22.847  0.00  0.00    +0.016 A 
ATOM     22  C   UNL     1       3.278  -1.322  23.625  0.00  0.00    +0.016 A 
ATOM     23  C   UNL     1       4.920   0.877  23.123  0.00  0.00    +0.046 A 
ATOM     24  C   UNL     1       4.643  -1.394  23.901  0.00  0.00    +0.046 A 
ATOM     25  C   UNL     1       5.464  -0.294  23.650  0.00  0.00    +0.120 A 
BRANCH  25   6
ATOM      6  O   UNL     1       6.797  -0.365  23.919  0.00  0.00    -0.495 OA
ATOM     26  C   UNL     1       7.673  -0.564  22.811  0.00  0.00    +0.277 C 
ENDBRANCH  25   6
ENDBRANCH  17  20
ENDBRANCH  14   7
ENDBRANCH  12  14
TORSDOF 9
ENDMDL
MODEL 5
REMARK VINA RESULT:      -1.7      1.885      3.369
REMARK  Name = 25390426
REMARK  12 active torsions:
REMARK  status: ('A' for Active; 'I' for Inactive)
REMARK    1  A    between atoms: O_2  and  C_9
REMARK    2  A    between atoms: O_3  and  C_10
REMARK    3  A    between atoms: O_6  and  C_25
REMARK    4  A    between atoms: O_6  and  C_26
REMARK    5  A    between atoms: N_7  and  C_14
REMARK    6  A    between atoms: N_8  and  C_16
REMARK    7  A    between atoms: C_11  and  C_13
REMARK    8  A    between atoms: C_12  and  C_14
REMARK    9  A    between atoms: C_13  and  C_15
REMARK   10  A    between atoms: C_16  and  C_18
REMARK   11  A    between atoms: C_16  and  C_19
REMARK   12  A    between atoms: C_17  and  C_20
REMARK                            x       y       z     vdW  Elec       q    Type
REMARK                         _______ _______ _______ _____ _____    ______ ____
ROOT
ATOM      1  O   UNL     1      -3.608   4.145  23.871  0.00  0.00    -0.366 OA
ATOM      9  C   UNL     1      -4.834   2.993  25.553  0.00  0.00    +0.175 C 
ATOM     10  C   UNL     1      -3.589   3.601  26.166  0.00  0.00    +0.176 C 
ATOM     11  C   UNL     1      -4.504   3.026  24.065  0.00  0.00    +0.158 C 
ATOM     12  C   UNL     1      -3.251   4.685  25.156  0.00  0.00    +0.167 C 
ENDROOT
BRANCH   9   2
ATOM      2  O   UNL     1      -5.960   3.840  25.777  0.00  0.00    -0.387 OA
ATOM     27  H   UNL     1      -5.661   4.577  26.338  0.00  0.00    +0.210 HD
ENDBRANCH   9   2
BRANCH  10   3
ATOM      3  O   UNL     1      -3.801   4.127  27.458  0.00  0.00    -0.387 OA
ATOM     28  H   UNL     1      -4.602   4.677  27.421  0.00  0.00    +0.210 HD
ENDBRANCH  10   3
BRANCH  11  13
ATOM     13  C   UNL     1      -3.792   1.770  23.583  0.00  0.00    +0.130 C 
BRANCH  13  15
ATOM      4  O   UNL     1      -5.144   0.508  25.141  0.00  0.00    -0.276 OA
ATOM      8  N   UNL     1      -3.332  -0.526  24.117  0.00  0.00    -0.313 N 
ATOM     15  C   UNL     1      -4.186   0.537  24.373  0.00  0.00    +0.216 C 
ATOM     30  H   UNL     1      -2.605  -0.412  23.416  0.00  0.00    +0.149 HD
BRANCH   8  16
ATOM     16  C   UNL     1      -3.476  -1.822  24.740  0.00  0.00    +0.067 C 
ATOM     18  C   UNL     1      -2.109  -2.441  24.998  0.00  0.00    +0.027 C 
ATOM     19  C   UNL     1      -4.340  -2.735  23.879  0.00  0.00    +0.027 C 
ENDBRANCH   8  16
ENDBRANCH  13  15
ENDBRANCH  11  13
BRANCH  12  14
ATOM     14  C   UNL     1      -1.784   5.074  25.157  0.00  0.00    +0.138 C 
BRANCH  14   7
ATOM      5  O   UNL     1      -1.052   2.574  26.367  0.00  0.00    -0.270 OA
ATOM      7  N   UNL     1      -0.975   4.044  24.573  0.00  0.00    -0.309 N 
ATOM     17  C   UNL     1      -0.668   2.858  25.235  0.00  0.00    +0.244 C 
ATOM     29  H   UNL     1      -0.670   4.190  23.616  0.00  0.00    +0.149 HD
BRANCH  17  20
ATOM     20  C   UNL     1       0.204   1.904  24.502  0.00  0.00    +0.037 A 
ATOM     21  C   UNL     1      -0.189   0.572  24.356  0.00  0.00    +0.016 A 
ATOM     22  C   UNL     1       1.415   2.337  23.962  0.00  0.00    +0.016 A 
ATOM     23  C   UNL     1       0.630  -0.324  23.671  0.00  0.00    +0.046 A 
ATOM     24  C   UNL     1       2.234   1.441  23.277  0.00  0.00    +0.046 A 
ATOM     25  C   UNL     1       1.841   0.109  23.131  0.00  0.00    +0.120 A 
BRANCH  25   6
ATOM      6  O   UNL     1       2.642  -0.766  22.463  0.00  0.00    -0.495 OA
ATOM     26  C   UNL     1       3.909  -1.064  23.047  0.00  0.00    +0.277 C 
ENDBRANCH  25   6
ENDBRANCH  17  20
ENDBRANCH  14   7
ENDBRANCH  12  14
TORSDOF 9
ENDMDL
MODEL 6
REMARK VINA RESULT:      -1.4      2.006      4.566
REMARK  Name = 25390426
REMARK  12 active torsions:
REMARK  status: ('A' for Active; 'I' for Inactive)
REMARK    1  A    between atoms: O_2  and  C_9
REMARK    2  A    between atoms: O_3  and  C_10
REMARK    3  A    between atoms: O_6  and  C_25
REMARK    4  A    between atoms: O_6  and  C_26
REMARK    5  A    between atoms: N_7  and  C_14
REMARK    6  A    between atoms: N_8  and  C_16
REMARK    7  A    between atoms: C_11  and  C_13
REMARK    8  A    between atoms: C_12  and  C_14
REMARK    9  A    between atoms: C_13  and  C_15
REMARK   10  A    between atoms: C_16  and  C_18
REMARK   11  A    between atoms: C_16  and  C_19
REMARK   12  A    between atoms: C_17  and  C_20
REMARK                            x       y       z     vdW  Elec       q    Type
REMARK                         _______ _______ _______ _____ _____    ______ ____
ROOT
ATOM      1  O   UNL     1      -3.865   1.737  25.501  0.00  0.00    -0.366 OA
ATOM      9  C   UNL     1      -5.747   3.182  25.647  0.00  0.00    +0.175 C 
ATOM     10  C   UNL     1      -6.075   2.021  24.731  0.00  0.00    +0.176 C 
ATOM     11  C   UNL     1      -4.226   3.122  25.704  0.00  0.00    +0.158 C 
ATOM     12  C   UNL     1      -5.048   0.990  25.168  0.00  0.00    +0.167 C 
ENDROOT
BRANCH   9   2
ATOM      2  O   UNL     1      -6.251   2.934  26.959  0.00  0.00    -0.387 OA
ATOM     27  H   UNL     1      -5.830   3.575  27.557  0.00  0.00    +0.210 HD
ENDBRANCH   9   2
BRANCH  10   3
ATOM      3  O   UNL     1      -7.397   1.548  24.878  0.00  0.00    -0.387 OA
ATOM     28  H   UNL     1      -7.970   2.105  24.326  0.00  0.00    +0.210 HD
ENDBRANCH  10   3
BRANCH  11  13
ATOM     13  C   UNL     1      -3.555   3.943  24.612  0.00  0.00    +0.130 C 
BRANCH  13  15
ATOM      4  O   UNL     1      -1.593   5.346  24.793  0.00  0.00    -0.276 OA
ATOM      8  N   UNL     1      -1.425   3.090  25.324  0.00  0.00    -0.313 N 
ATOM     15  C   UNL     1      -2.096   4.232  24.912  0.00  0.00    +0.216 C 
ATOM     30  H   UNL     1      -1.952   2.230  25.447  0.00  0.00    +0.149 HD
BRANCH   8  16
ATOM     16  C   UNL     1      -0.022   3.082  25.672  0.00  0.00    +0.067 C 
ATOM     18  C   UNL     1       0.812   2.601  24.492  0.00  0.00    +0.027 C 
ATOM     19  C   UNL     1       0.217   2.219  26.904  0.00  0.00    +0.027 C 
ENDBRANCH   8  16
ENDBRANCH  13  15
ENDBRANCH  11  13
BRANCH  12  14
ATOM     14  C   UNL     1      -4.723  -0.030  24.092  0.00  0.00    +0.138 C 
BRANCH  14   7
ATOM      5  O   UNL     1      -2.754  -1.766  25.256  0.00  0.00    -0.270 OA
ATOM      7  N   UNL     1      -3.319  -0.048  23.802  0.00  0.00    -0.309 N 
ATOM     17  C   UNL     1      -2.433  -0.928  24.418  0.00  0.00    +0.244 C 
ATOM     29  H   UNL     1      -2.994   0.582  23.077  0.00  0.00    +0.149 HD
BRANCH  17  20
ATOM     20  C   UNL     1      -1.004  -0.802  24.027  0.00  0.00    +0.037 A 
ATOM     21  C   UNL     1      -0.017  -1.438  24.781  0.00  0.00    +0.016 A 
ATOM     22  C   UNL     1      -0.650  -0.046  22.909  0.00  0.00    +0.016 A 
ATOM     23  C   UNL     1       1.324  -1.317  24.416  0.00  0.00    +0.046 A 
ATOM     24  C   UNL     1       0.690   0.075  22.545  0.00  0.00    +0.046 A 
ATOM     25  C   UNL     1       1.678  -0.561  23.299  0.00  0.00    +0.120 A 
BRANCH  25   6
ATOM      6  O   UNL     1       2.986  -0.443  22.943  0.00  0.00    -0.495 OA
ATOM     26  C   UNL     1       3.496   0.879  22.775  0.00  0.00    +0.277 C 
ENDBRANCH  25   6
ENDBRANCH  17  20
ENDBRANCH  14   7
ENDBRANCH  12  14
TORSDOF 9
ENDMDL
MODEL 7
REMARK VINA RESULT:      -1.4      2.093      4.418
REMARK  Name = 25390426
REMARK  12 active torsions:
REMARK  status: ('A' for Active; 'I' for Inactive)
REMARK    1  A    between atoms: O_2  and  C_9
REMARK    2  A    between atoms: O_3  and  C_10
REMARK    3  A    between atoms: O_6  and  C_25
REMARK    4  A    between atoms: O_6  and  C_26
REMARK    5  A    between atoms: N_7  and  C_14
REMARK    6  A    between atoms: N_8  and  C_16
REMARK    7  A    between atoms: C_11  and  C_13
REMARK    8  A    between atoms: C_12  and  C_14
REMARK    9  A    between atoms: C_13  and  C_15
REMARK   10  A    between atoms: C_16  and  C_18
REMARK   11  A    between atoms: C_16  and  C_19
REMARK   12  A    between atoms: C_17  and  C_20
REMARK                            x       y       z     vdW  Elec       q    Type
REMARK                         _______ _______ _______ _____ _____    ______ ____
ROOT
ATOM      1  O   UNL     1      -4.101  -0.212  25.566  0.00  0.00    -0.366 OA
ATOM      9  C   UNL     1      -4.240  -1.483  23.561  0.00  0.00    +0.175 C 
ATOM     10  C   UNL     1      -2.975  -1.857  24.306  0.00  0.00    +0.176 C 
ATOM     11  C   UNL     1      -4.615  -0.158  24.215  0.00  0.00    +0.158 C 
ATOM     12  C   UNL     1      -3.309  -1.404  25.717  0.00  0.00    +0.167 C 
ENDROOT
BRANCH   9   2
ATOM      2  O   UNL     1      -5.275  -2.424  23.839  0.00  0.00    -0.387 OA
ATOM     27  H   UNL     1      -6.120  -2.005  23.603  0.00  0.00    +0.210 HD
ENDBRANCH   9   2
BRANCH  10   3
ATOM      3  O   UNL     1      -2.678  -3.235  24.248  0.00  0.00    -0.387 OA
ATOM     28  H   UNL     1      -2.353  -3.427  23.353  0.00  0.00    +0.210 HD
ENDBRANCH  10   3
BRANCH  11  13
ATOM     13  C   UNL     1      -3.989   1.046  23.527  0.00  0.00    +0.130 C 
BRANCH  13  15
ATOM      4  O   UNL     1      -5.311   2.687  24.713  0.00  0.00    -0.276 OA
ATOM      8  N   UNL     1      -3.032   3.050  24.443  0.00  0.00    -0.313 N 
ATOM     15  C   UNL     1      -4.212   2.337  24.292  0.00  0.00    +0.216 C 
ATOM     30  H   UNL     1      -2.165   2.639  24.108  0.00  0.00    +0.149 HD
BRANCH   8  16
ATOM     16  C   UNL     1      -2.959   4.318  25.132  0.00  0.00    +0.067 C 
ATOM     18  C   UNL     1      -1.578   4.937  24.957  0.00  0.00    +0.027 C 
ATOM     19  C   UNL     1      -3.303   4.147  26.606  0.00  0.00    +0.027 C 
ENDBRANCH   8  16
ENDBRANCH  13  15
ENDBRANCH  11  13
BRANCH  12  14
ATOM     14  C   UNL     1      -2.083  -1.098  26.558  0.00  0.00    +0.138 C 
BRANCH  14   7
ATOM      5  O   UNL     1      -1.348   1.372  25.292  0.00  0.00    -0.270 OA
ATOM      7  N   UNL     1      -0.933  -0.868  25.733  0.00  0.00    -0.309 N 
ATOM     17  C   UNL     1      -0.653   0.368  25.156  0.00  0.00    +0.244 C 
ATOM     29  H   UNL     1      -0.286  -1.641  25.624  0.00  0.00    +0.149 HD
BRANCH  17  20
ATOM     20  C   UNL     1       0.563   0.436  24.306  0.00  0.00    +0.037 A 
ATOM     21  C   UNL     1       1.069  -0.725  23.720  0.00  0.00    +0.016 A 
ATOM     22  C   UNL     1       1.201   1.659  24.096  0.00  0.00    +0.016 A 
ATOM     23  C   UNL     1       2.213  -0.662  22.924  0.00  0.00    +0.046 A 
ATOM     24  C   UNL     1       2.344   1.722  23.300  0.00  0.00    +0.046 A 
ATOM     25  C   UNL     1       2.850   0.561  22.714  0.00  0.00    +0.120 A 
BRANCH  25   6
ATOM      6  O   UNL     1       3.967   0.622  21.937  0.00  0.00    -0.495 OA
ATOM     26  C   UNL     1       5.207   0.281  22.555  0.00  0.00    +0.277 C 
ENDBRANCH  25   6
ENDBRANCH  17  20
ENDBRANCH  14   7
ENDBRANCH  12  14
TORSDOF 9
ENDMDL
MODEL 8
REMARK VINA RESULT:      -1.0      2.496      8.187
REMARK  Name = 25390426
REMARK  12 active torsions:
REMARK  status: ('A' for Active; 'I' for Inactive)
REMARK    1  A    between atoms: O_2  and  C_9
REMARK    2  A    between atoms: O_3  and  C_10
REMARK    3  A    between atoms: O_6  and  C_25
REMARK    4  A    between atoms: O_6  and  C_26
REMARK    5  A    between atoms: N_7  and  C_14
REMARK    6  A    between atoms: N_8  and  C_16
REMARK    7  A    between atoms: C_11  and  C_13
REMARK    8  A    between atoms: C_12  and  C_14
REMARK    9  A    between atoms: C_13  and  C_15
REMARK   10  A    between atoms: C_16  and  C_18
REMARK   11  A    between atoms: C_16  and  C_19
REMARK   12  A    between atoms: C_17  and  C_20
REMARK                            x       y       z     vdW  Elec       q    Type
REMARK                         _______ _______ _______ _____ _____    ______ ____
ROOT
ATOM      1  O   UNL     1      -1.161  -2.344  23.584  0.00  0.00    -0.366 OA
ATOM      9  C   UNL     1      -0.130  -1.259  25.432  0.00  0.00    +0.175 C 
ATOM     10  C   UNL     1      -1.635  -1.169  25.573  0.00  0.00    +0.176 C 
ATOM     11  C   UNL     1       0.031  -1.617  23.959  0.00  0.00    +0.158 C 
ATOM     12  C   UNL     1      -2.093  -2.310  24.680  0.00  0.00    +0.167 C 
ENDROOT
BRANCH   9   2
ATOM      2  O   UNL     1       0.376  -2.344  26.209  0.00  0.00    -0.387 OA
ATOM     27  H   UNL     1       1.161  -2.020  26.683  0.00  0.00    +0.210 HD
ENDBRANCH   9   2
BRANCH  10   3
ATOM      3  O   UNL     1      -2.083  -1.324  26.902  0.00  0.00    -0.387 OA
ATOM     28  H   UNL     1      -2.496  -2.201  26.971  0.00  0.00    +0.210 HD
ENDBRANCH  10   3
BRANCH  11  13
ATOM     13  C   UNL     1       0.134  -0.395  23.056  0.00  0.00    +0.130 C 
BRANCH  13  15
ATOM      4  O   UNL     1       1.576  -0.329  21.115  0.00  0.00    -0.276 OA
ATOM      8  N   UNL     1       2.523  -0.217  23.234  0.00  0.00    -0.313 N 
ATOM     15  C   UNL     1       1.469  -0.311  22.338  0.00  0.00    +0.216 C 
ATOM     30  H   UNL     1       2.318  -0.149  24.227  0.00  0.00    +0.149 HD
BRANCH   8  16
ATOM     16  C   UNL     1       3.904  -0.126  22.819  0.00  0.00    +0.067 C 
ATOM     18  C   UNL     1       4.812  -0.775  23.856  0.00  0.00    +0.027 C 
ATOM     19  C   UNL     1       4.295   1.326  22.577  0.00  0.00    +0.027 C 
ENDBRANCH   8  16
ENDBRANCH  13  15
ENDBRANCH  11  13
BRANCH  12  14
ATOM     14  C   UNL     1      -3.503  -2.130  24.146  0.00  0.00    +0.138 C 
BRANCH  14   7
ATOM      5  O   UNL     1      -3.013   0.433  22.947  0.00  0.00    -0.270 OA
ATOM      7  N   UNL     1      -4.055  -0.873  24.558  0.00  0.00    -0.309 N 
ATOM     17  C   UNL     1      -3.761   0.327  23.916  0.00  0.00    +0.244 C 
ATOM     29  H   UNL     1      -4.726  -0.895  25.318  0.00  0.00    +0.149 HD
BRANCH  17  20
ATOM     20  C   UNL     1      -4.394   1.547  24.481  0.00  0.00    +0.037 A 
ATOM     21  C   UNL     1      -3.792   2.793  24.301  0.00  0.00    +0.016 A 
ATOM     22  C   UNL     1      -5.589   1.447  25.194  0.00  0.00    +0.016 A 
ATOM     23  C   UNL     1      -4.384   3.937  24.834  0.00  0.00    +0.046 A 
ATOM     24  C   UNL     1      -6.182   2.591  25.727  0.00  0.00    +0.046 A 
ATOM     25  C   UNL     1      -5.579   3.837  25.547  0.00  0.00    +0.120 A 
BRANCH  25   6
ATOM      6  O   UNL     1      -6.158   4.954  26.067  0.00  0.00    -0.495 OA
ATOM     26  C   UNL     1      -6.603   5.945  25.143  0.00  0.00    +0.277 C 
ENDBRANCH  25   6
ENDBRANCH  17  20
ENDBRANCH  14   7
ENDBRANCH  12  14
TORSDOF 9
ENDMDL
MODEL 9
REMARK VINA RESULT:      -0.9      2.211      7.063
REMARK  Name = 25390426
REMARK  12 active torsions:
REMARK  status: ('A' for Active; 'I' for Inactive)
REMARK    1  A    between atoms: O_2  and  C_9
REMARK    2  A    between atoms: O_3  and  C_10
REMARK    3  A    between atoms: O_6  and  C_25
REMARK    4  A    between atoms: O_6  and  C_26
REMARK    5  A    between atoms: N_7  and  C_14
REMARK    6  A    between atoms: N_8  and  C_16
REMARK    7  A    between atoms: C_11  and  C_13
REMARK    8  A    between atoms: C_12  and  C_14
REMARK    9  A    between atoms: C_13  and  C_15
REMARK   10  A    between atoms: C_16  and  C_18
REMARK   11  A    between atoms: C_16  and  C_19
REMARK   12  A    between atoms: C_17  and  C_20
REMARK                            x       y       z     vdW  Elec       q    Type
REMARK                         _______ _______ _______ _____ _____    ______ ____
ROOT
ATOM      1  O   UNL     1       0.756   0.414  24.424  0.00  0.00    -0.366 OA
ATOM      9  C   UNL     1       2.140  -0.804  22.922  0.00  0.00    +0.175 C 
ATOM     10  C   UNL     1       2.170   0.665  22.553  0.00  0.00    +0.176 C 
ATOM     11  C   UNL     1       0.901  -0.886  23.806  0.00  0.00    +0.158 C 
ATOM     12  C   UNL     1       1.723   1.313  23.853  0.00  0.00    +0.167 C 
ENDROOT
BRANCH   9   2
ATOM      2  O   UNL     1       3.276  -1.138  23.718  0.00  0.00    -0.387 OA
ATOM     27  H   UNL     1       2.946  -1.434  24.584  0.00  0.00    +0.210 HD
ENDBRANCH   9   2
BRANCH  10   3
ATOM      3  O   UNL     1       3.444   1.114  22.147  0.00  0.00    -0.387 OA
ATOM     28  H   UNL     1       3.998   1.178  22.943  0.00  0.00    +0.210 HD
ENDBRANCH  10   3
BRANCH  11  13
ATOM     13  C   UNL     1      -0.373  -1.173  23.023  0.00  0.00    +0.130 C 
BRANCH  13  15
ATOM      4  O   UNL     1      -1.860  -2.658  24.221  0.00  0.00    -0.276 OA
ATOM      8  N   UNL     1      -2.206  -0.364  24.348  0.00  0.00    -0.313 N 
ATOM     15  C   UNL     1      -1.548  -1.508  23.923  0.00  0.00    +0.216 C 
ATOM     30  H   UNL     1      -1.827   0.543  24.091  0.00  0.00    +0.149 HD
BRANCH   8  16
ATOM     16  C   UNL     1      -3.363  -0.395  25.214  0.00  0.00    +0.067 C 
ATOM     18  C   UNL     1      -3.160  -1.409  26.333  0.00  0.00    +0.027 C 
ATOM     19  C   UNL     1      -4.621  -0.704  24.412  0.00  0.00    +0.027 C 
ENDBRANCH   8  16
ENDBRANCH  13  15
ENDBRANCH  11  13
BRANCH  12  14
ATOM     14  C   UNL     1       1.096   2.682  23.659  0.00  0.00    +0.138 C 
BRANCH  14   7
ATOM      5  O   UNL     1      -0.402   4.900  24.699  0.00  0.00    -0.270 OA
ATOM      7  N   UNL     1      -0.286   2.678  24.041  0.00  0.00    -0.309 N 
ATOM     17  C   UNL     1      -0.935   3.804  24.539  0.00  0.00    +0.244 C 
ATOM     29  H   UNL     1      -0.802   1.818  23.882  0.00  0.00    +0.149 HD
BRANCH  17  20
ATOM     20  C   UNL     1      -2.362   3.629  24.914  0.00  0.00    +0.037 A 
ATOM     21  C   UNL     1      -2.809   4.042  26.170  0.00  0.00    +0.016 A 
ATOM     22  C   UNL     1      -3.254   3.048  24.012  0.00  0.00    +0.016 A 
ATOM     23  C   UNL     1      -4.147   3.874  26.523  0.00  0.00    +0.046 A 
ATOM     24  C   UNL     1      -4.593   2.881  24.365  0.00  0.00    +0.046 A 
ATOM     25  C   UNL     1      -5.039   3.294  25.621  0.00  0.00    +0.120 A 
BRANCH  25   6
ATOM      6  O   UNL     1      -6.346   3.130  25.966  0.00  0.00    -0.495 OA
ATOM     26  C   UNL     1      -6.714   1.875  26.536  0.00  0.00    +0.277 C 
ENDBRANCH  25   6
ENDBRANCH  17  20
ENDBRANCH  14   7
ENDBRANCH  12  14
TORSDOF 9
ENDMDL
MODEL 10
REMARK VINA RESULT:      -0.8      3.366      5.856
REMARK  Name = 25390426
REMARK  12 active torsions:
REMARK  status: ('A' for Active; 'I' for Inactive)
REMARK    1  A    between atoms: O_2  and  C_9
REMARK    2  A    between atoms: O_3  and  C_10
REMARK    3  A    between atoms: O_6  and  C_25
REMARK    4  A    between atoms: O_6  and  C_26
REMARK    5  A    between atoms: N_7  and  C_14
REMARK    6  A    between atoms: N_8  and  C_16
REMARK    7  A    between atoms: C_11  and  C_13
REMARK    8  A    between atoms: C_12  and  C_14
REMARK    9  A    between atoms: C_13  and  C_15
REMARK   10  A    between atoms: C_16  and  C_18
REMARK   11  A    between atoms: C_16  and  C_19
REMARK   12  A    between atoms: C_17  and  C_20
REMARK                            x       y       z     vdW  Elec       q    Type
REMARK                         _______ _______ _______ _____ _____    ______ ____
ROOT
ATOM      1  O   UNL     1      -3.020  -1.501  25.634  0.00  0.00    -0.366 OA
ATOM      9  C   UNL     1      -3.678  -2.663  23.666  0.00  0.00    +0.175 C 
ATOM     10  C   UNL     1      -2.170  -2.718  23.801  0.00  0.00    +0.176 C 
ATOM     11  C   UNL     1      -4.042  -1.523  24.609  0.00  0.00    +0.158 C 
ATOM     12  C   UNL     1      -1.988  -2.440  25.284  0.00  0.00    +0.167 C 
ENDROOT
BRANCH   9   2
ATOM      2  O   UNL     1      -4.263  -3.862  24.173  0.00  0.00    -0.387 OA
ATOM     27  H   UNL     1      -3.963  -4.594  23.607  0.00  0.00    +0.210 HD
ENDBRANCH   9   2
BRANCH  10   3
ATOM      3  O   UNL     1      -1.619  -3.960  23.423  0.00  0.00    -0.387 OA
ATOM     28  H   UNL     1      -1.612  -3.994  22.452  0.00  0.00    +0.210 HD
ENDBRANCH  10   3
BRANCH  11  13
ATOM     13  C   UNL     1      -4.046  -0.162  23.927  0.00  0.00    +0.130 C 
BRANCH  13  15
ATOM      4  O   UNL     1      -5.262   0.744  25.811  0.00  0.00    -0.276 OA
ATOM      8  N   UNL     1      -4.077   2.187  24.427  0.00  0.00    -0.313 N 
ATOM     15  C   UNL     1      -4.540   0.946  24.838  0.00  0.00    +0.216 C 
ATOM     30  H   UNL     1      -3.434   2.235  23.642  0.00  0.00    +0.149 HD
BRANCH   8  16
ATOM     16  C   UNL     1      -4.400   3.416  25.115  0.00  0.00    +0.067 C 
ATOM     18  C   UNL     1      -3.498   3.595  26.330  0.00  0.00    +0.027 C 
ATOM     19  C   UNL     1      -5.871   3.437  25.512  0.00  0.00    +0.027 C 
ENDBRANCH   8  16
ENDBRANCH  13  15
ENDBRANCH  11  13
BRANCH  12  14
ATOM     14  C   UNL     1      -0.629  -1.855  25.625  0.00  0.00    +0.138 C 
BRANCH  14   7
ATOM      5  O   UNL     1       0.040  -0.219  23.362  0.00  0.00    -0.270 OA
ATOM      7  N   UNL     1      -0.652  -0.423  25.568  0.00  0.00    -0.309 N 
ATOM     17  C   UNL     1      -0.310   0.292  24.423  0.00  0.00    +0.244 C 
ATOM     29  H   UNL     1      -0.986   0.062  26.394  0.00  0.00    +0.149 HD
BRANCH  17  20
ATOM     20  C   UNL     1      -0.360   1.773  24.535  0.00  0.00    +0.037 A 
ATOM     21  C   UNL     1      -0.020   2.393  25.738  0.00  0.00    +0.016 A 
ATOM     22  C   UNL     1      -0.748   2.543  23.439  0.00  0.00    +0.016 A 
ATOM     23  C   UNL     1      -0.070   3.783  25.844  0.00  0.00    +0.046 A 
ATOM     24  C   UNL     1      -0.798   3.933  23.545  0.00  0.00    +0.046 A 
ATOM     25  C   UNL     1      -0.459   4.553  24.748  0.00  0.00    +0.120 A 
BRANCH  25   6
ATOM      6  O   UNL     1      -0.507   5.910  24.851  0.00  0.00    -0.495 OA
ATOM     26  C   UNL     1      -1.797   6.504  24.982  0.00  0.00    +0.277 C 
ENDBRANCH  25   6
ENDBRANCH  17  20
ENDBRANCH  14   7
ENDBRANCH  12  14
TORSDOF 9
ENDMDL
