MODEL 1
REMARK VINA RESULT:      -3.7      0.000      0.000
REMARK  Name = 75537111
REMARK  4 active torsions:
REMARK  status: ('A' for Active; 'I' for Inactive)
REMARK    1  A    between atoms: N_3  and  C_13
REMARK    2  A    between atoms: N_4  and  C_14
REMARK    3  A    between atoms: N_5  and  C_17
REMARK    4  A    between atoms: C_13  and  C_15
REMARK                            x       y       z     vdW  Elec       q    Type
REMARK                         _______ _______ _______ _____ _____    ______ ____
ROOT
ATOM      1  O   UNL     1      -1.163  -9.651  11.496  0.00  0.00    -0.252 OA
ATOM      2  N   UNL     1      -3.444  -9.870  10.981  0.00  0.00    -0.278 N 
ATOM      3  N   UNL     1      -5.991  -9.191   9.998  0.00  0.00    -0.292 NA
ATOM      4  N   UNL     1      -2.743 -10.531  13.010  0.00  0.00    -0.287 N 
ATOM      7  C   UNL     1      -4.615 -10.462  11.594  0.00  0.00    +0.109 C 
ATOM      8  C   UNL     1      -5.826  -9.547  11.423  0.00  0.00    +0.109 C 
ATOM      9  C   UNL     1      -4.186 -10.694  13.043  0.00  0.00    +0.132 C 
ATOM     10  C   UNL     1      -3.537  -9.351   9.632  0.00  0.00    +0.125 C 
ATOM     11  C   UNL     1      -4.794  -8.491   9.489  0.00  0.00    +0.104 C 
ATOM     12  C   UNL     1      -2.304  -9.980  11.789  0.00  0.00    +0.305 C 
ATOM     14  C   UNL     1      -1.917 -10.777  14.171  0.00  0.00    +0.133 C 
ENDROOT
BRANCH   3  13
ATOM     13  C   UNL     1      -7.183  -8.364   9.814  0.00  0.00    +0.158 C 
BRANCH  13  15
ATOM      5  N   UNL     1      -9.522  -8.604   8.921  0.00  0.00    -0.336 N 
ATOM      6  N   UNL     1      -8.446 -10.493   9.374  0.00  0.00    -0.239 NA
ATOM     15  C   UNL     1      -8.369  -9.180   9.376  0.00  0.00    +0.124 A 
ATOM     16  C   UNL     1     -10.390  -9.612   8.609  0.00  0.00    +0.106 A 
ATOM     17  C   UNL     1      -9.791  -7.190   8.787  0.00  0.00    +0.150 C 
ATOM     18  C   UNL     1      -9.704 -10.768   8.897  0.00  0.00    +0.130 A 
ENDBRANCH  13  15
ENDBRANCH   3  13
TORSDOF 2
ENDMDL
MODEL 2
REMARK VINA RESULT:      -3.4      3.784      5.062
REMARK  Name = 75537111
REMARK  4 active torsions:
REMARK  status: ('A' for Active; 'I' for Inactive)
REMARK    1  A    between atoms: N_3  and  C_13
REMARK    2  A    between atoms: N_4  and  C_14
REMARK    3  A    between atoms: N_5  and  C_17
REMARK    4  A    between atoms: C_13  and  C_15
REMARK                            x       y       z     vdW  Elec       q    Type
REMARK                         _______ _______ _______ _____ _____    ______ ____
ROOT
ATOM      1  O   UNL     1      -5.581 -10.592  17.341  0.00  0.00    -0.252 OA
ATOM      2  N   UNL     1      -6.493 -10.564  15.176  0.00  0.00    -0.278 N 
ATOM      3  N   UNL     1      -6.825  -9.847  12.476  0.00  0.00    -0.292 NA
ATOM      4  N   UNL     1      -7.902 -10.530  16.925  0.00  0.00    -0.287 N 
ATOM      7  C   UNL     1      -7.810 -10.654  14.582  0.00  0.00    +0.109 C 
ATOM      8  C   UNL     1      -7.942  -9.664  13.426  0.00  0.00    +0.109 C 
ATOM      9  C   UNL     1      -8.755 -10.399  15.756  0.00  0.00    +0.132 C 
ATOM     10  C   UNL     1      -5.326 -10.583  14.318  0.00  0.00    +0.125 C 
ATOM     11  C   UNL     1      -5.526  -9.623  13.143  0.00  0.00    +0.104 C 
ATOM     12  C   UNL     1      -6.537 -10.570  16.577  0.00  0.00    +0.305 C 
ATOM     14  C   UNL     1      -8.430 -10.469  18.270  0.00  0.00    +0.133 C 
ENDROOT
BRANCH   3  13
ATOM     13  C   UNL     1      -6.974  -8.945  11.335  0.00  0.00    +0.158 C 
BRANCH  13  15
ATOM      5  N   UNL     1      -5.942  -9.942   9.269  0.00  0.00    -0.336 N 
ATOM      6  N   UNL     1      -4.693  -8.482  10.384  0.00  0.00    -0.239 NA
ATOM     15  C   UNL     1      -5.852  -9.103  10.345  0.00  0.00    +0.124 A 
ATOM     16  C   UNL     1      -4.766  -9.850   8.578  0.00  0.00    +0.106 A 
ATOM     17  C   UNL     1      -7.065 -10.777   8.912  0.00  0.00    +0.150 C 
ATOM     18  C   UNL     1      -4.012  -8.944   9.285  0.00  0.00    +0.130 A 
ENDBRANCH  13  15
ENDBRANCH   3  13
TORSDOF 2
ENDMDL
MODEL 3
REMARK VINA RESULT:      -3.3      4.116      5.432
REMARK  Name = 75537111
REMARK  4 active torsions:
REMARK  status: ('A' for Active; 'I' for Inactive)
REMARK    1  A    between atoms: N_3  and  C_13
REMARK    2  A    between atoms: N_4  and  C_14
REMARK    3  A    between atoms: N_5  and  C_17
REMARK    4  A    between atoms: C_13  and  C_15
REMARK                            x       y       z     vdW  Elec       q    Type
REMARK                         _______ _______ _______ _____ _____    ______ ____
ROOT
ATOM      1  O   UNL     1      -7.226  -9.626  17.947  0.00  0.00    -0.252 OA
ATOM      2  N   UNL     1      -6.976 -10.141  15.669  0.00  0.00    -0.278 N 
ATOM      3  N   UNL     1      -5.742 -10.389  13.154  0.00  0.00    -0.292 NA
ATOM      4  N   UNL     1      -8.857  -9.103  16.326  0.00  0.00    -0.287 N 
ATOM      7  C   UNL     1      -7.796 -10.086  14.476  0.00  0.00    +0.109 C 
ATOM      8  C   UNL     1      -6.974  -9.585  13.289  0.00  0.00    +0.109 C 
ATOM      9  C   UNL     1      -8.960  -9.181  14.878  0.00  0.00    +0.132 C 
ATOM     10  C   UNL     1      -5.678 -10.780  15.608  0.00  0.00    +0.125 C 
ATOM     11  C   UNL     1      -4.915 -10.294  14.373  0.00  0.00    +0.104 C 
ATOM     12  C   UNL     1      -7.636  -9.628  16.795  0.00  0.00    +0.305 C 
ATOM     14  C   UNL     1      -9.847  -8.421  17.129  0.00  0.00    +0.133 C 
ENDROOT
BRANCH   3  13
ATOM     13  C   UNL     1      -4.978  -9.957  11.984  0.00  0.00    +0.158 C 
BRANCH  13  15
ATOM      5  N   UNL     1      -5.313  -9.656   9.509  0.00  0.00    -0.336 N 
ATOM      6  N   UNL     1      -6.897 -10.781  10.584  0.00  0.00    -0.239 NA
ATOM     15  C   UNL     1      -5.752 -10.147  10.707  0.00  0.00    +0.124 A 
ATOM     16  C   UNL     1      -6.236  -9.999   8.562  0.00  0.00    +0.106 A 
ATOM     17  C   UNL     1      -4.098  -8.912   9.269  0.00  0.00    +0.150 C 
ATOM     18  C   UNL     1      -7.204 -10.692   9.249  0.00  0.00    +0.130 A 
ENDBRANCH  13  15
ENDBRANCH   3  13
TORSDOF 2
ENDMDL
MODEL 4
REMARK VINA RESULT:      -3.1      2.792      6.864
REMARK  Name = 75537111
REMARK  4 active torsions:
REMARK  status: ('A' for Active; 'I' for Inactive)
REMARK    1  A    between atoms: N_3  and  C_13
REMARK    2  A    between atoms: N_4  and  C_14
REMARK    3  A    between atoms: N_5  and  C_17
REMARK    4  A    between atoms: C_13  and  C_15
REMARK                            x       y       z     vdW  Elec       q    Type
REMARK                         _______ _______ _______ _____ _____    ______ ____
ROOT
ATOM      1  O   UNL     1      -7.690  -7.932   8.882  0.00  0.00    -0.252 OA
ATOM      2  N   UNL     1      -6.994  -8.690  10.993  0.00  0.00    -0.278 N 
ATOM      3  N   UNL     1      -5.320  -9.799  12.964  0.00  0.00    -0.292 NA
ATOM      4  N   UNL     1      -9.058  -9.232  10.295  0.00  0.00    -0.287 N 
ATOM      7  C   UNL     1      -7.593  -9.366  12.125  0.00  0.00    +0.109 C 
ATOM      8  C   UNL     1      -6.635 -10.415  12.687  0.00  0.00    +0.109 C 
ATOM      9  C   UNL     1      -8.898  -9.927  11.561  0.00  0.00    +0.132 C 
ATOM     10  C   UNL     1      -5.644  -8.177  11.108  0.00  0.00    +0.125 C 
ATOM     11  C   UNL     1      -4.733  -9.238  11.731  0.00  0.00    +0.104 C 
ATOM     12  C   UNL     1      -7.890  -8.537   9.926  0.00  0.00    +0.305 C 
ATOM     14  C   UNL     1     -10.240  -9.392   9.477  0.00  0.00    +0.133 C 
ENDROOT
BRANCH   3  13
ATOM     13  C   UNL     1      -4.414 -10.781  13.559  0.00  0.00    +0.158 C 
BRANCH  13  15
ATOM      5  N   UNL     1      -3.313 -10.652  15.817  0.00  0.00    -0.336 N 
ATOM      6  N   UNL     1      -5.530 -10.772  15.812  0.00  0.00    -0.239 NA
ATOM     15  C   UNL     1      -4.450 -10.737  15.063  0.00  0.00    +0.124 A 
ATOM     16  C   UNL     1      -3.692 -10.633  17.130  0.00  0.00    +0.106 A 
ATOM     17  C   UNL     1      -1.953 -10.593  15.333  0.00  0.00    +0.150 C 
ATOM     18  C   UNL     1      -5.064 -10.708  17.101  0.00  0.00    +0.130 A 
ENDBRANCH  13  15
ENDBRANCH   3  13
TORSDOF 2
ENDMDL
MODEL 5
REMARK VINA RESULT:      -2.9      4.642      6.548
REMARK  Name = 75537111
REMARK  4 active torsions:
REMARK  status: ('A' for Active; 'I' for Inactive)
REMARK    1  A    between atoms: N_3  and  C_13
REMARK    2  A    between atoms: N_4  and  C_14
REMARK    3  A    between atoms: N_5  and  C_17
REMARK    4  A    between atoms: C_13  and  C_15
REMARK                            x       y       z     vdW  Elec       q    Type
REMARK                         _______ _______ _______ _____ _____    ______ ____
ROOT
ATOM      1  O   UNL     1      -7.281  -8.645   9.927  0.00  0.00    -0.252 OA
ATOM      2  N   UNL     1      -6.785  -9.730  11.950  0.00  0.00    -0.278 N 
ATOM      3  N   UNL     1      -6.746 -10.237  14.717  0.00  0.00    -0.292 NA
ATOM      4  N   UNL     1      -5.139  -9.483  10.443  0.00  0.00    -0.287 N 
ATOM      7  C   UNL     1      -5.665 -10.452  12.516  0.00  0.00    +0.109 C 
ATOM      8  C   UNL     1      -5.474 -10.071  13.984  0.00  0.00    +0.109 C 
ATOM      9  C   UNL     1      -4.498 -10.083  11.601  0.00  0.00    +0.132 C 
ATOM     10  C   UNL     1      -8.045  -9.703  12.665  0.00  0.00    +0.125 C 
ATOM     11  C   UNL     1      -7.800  -9.378  14.141  0.00  0.00    +0.104 C 
ATOM     12  C   UNL     1      -6.503  -9.218  10.676  0.00  0.00    +0.305 C 
ATOM     14  C   UNL     1      -4.389  -9.087   9.272  0.00  0.00    +0.133 C 
ENDROOT
BRANCH   3  13
ATOM     13  C   UNL     1      -6.559  -9.933  16.135  0.00  0.00    +0.158 C 
BRANCH  13  15
ATOM      5  N   UNL     1      -7.721 -10.476  18.300  0.00  0.00    -0.336 N 
ATOM      6  N   UNL     1      -9.000 -10.428  16.485  0.00  0.00    -0.239 NA
ATOM     15  C   UNL     1      -7.778 -10.279  16.948  0.00  0.00    +0.124 A 
ATOM     16  C   UNL     1      -8.986 -10.770  18.725  0.00  0.00    +0.106 A 
ATOM     17  C   UNL     1      -6.548 -10.392  19.140  0.00  0.00    +0.150 C 
ATOM     18  C   UNL     1      -9.756 -10.734  17.588  0.00  0.00    +0.130 A 
ENDBRANCH  13  15
ENDBRANCH   3  13
TORSDOF 2
ENDMDL
MODEL 6
REMARK VINA RESULT:      -2.9      3.571      5.043
REMARK  Name = 75537111
REMARK  4 active torsions:
REMARK  status: ('A' for Active; 'I' for Inactive)
REMARK    1  A    between atoms: N_3  and  C_13
REMARK    2  A    between atoms: N_4  and  C_14
REMARK    3  A    between atoms: N_5  and  C_17
REMARK    4  A    between atoms: C_13  and  C_15
REMARK                            x       y       z     vdW  Elec       q    Type
REMARK                         _______ _______ _______ _____ _____    ______ ____
ROOT
ATOM      1  O   UNL     1      -3.219  -9.106   9.945  0.00  0.00    -0.252 OA
ATOM      2  N   UNL     1      -4.722  -9.961  11.535  0.00  0.00    -0.278 N 
ATOM      3  N   UNL     1      -7.015 -10.129  13.156  0.00  0.00    -0.292 NA
ATOM      4  N   UNL     1      -2.530  -9.979  12.024  0.00  0.00    -0.287 N 
ATOM      7  C   UNL     1      -4.639 -10.662  12.799  0.00  0.00    +0.109 C 
ATOM      8  C   UNL     1      -5.676 -10.116  13.780  0.00  0.00    +0.109 C 
ATOM      9  C   UNL     1      -3.185 -10.464  13.227  0.00  0.00    +0.132 C 
ATOM     10  C   UNL     1      -6.015  -9.786  10.906  0.00  0.00    +0.125 C 
ATOM     11  C   UNL     1      -7.035  -9.296  11.936  0.00  0.00    +0.104 C 
ATOM     12  C   UNL     1      -3.460  -9.621  11.028  0.00  0.00    +0.305 C 
ATOM     14  C   UNL     1      -1.101  -9.765  11.962  0.00  0.00    +0.133 C 
ENDROOT
BRANCH   3  13
ATOM     13  C   UNL     1      -8.024  -9.666  14.107  0.00  0.00    +0.158 C 
BRANCH  13  15
ATOM      5  N   UNL     1      -8.208  -9.302  16.590  0.00  0.00    -0.336 N 
ATOM      6  N   UNL     1      -6.691 -10.781  15.923  0.00  0.00    -0.239 NA
ATOM     15  C   UNL     1      -7.619  -9.937  15.531  0.00  0.00    +0.124 A 
ATOM     16  C   UNL     1      -7.617  -9.772  17.729  0.00  0.00    +0.106 A 
ATOM     17  C   UNL     1      -9.262  -8.316  16.533  0.00  0.00    +0.150 C 
ATOM     18  C   UNL     1      -6.685 -10.682  17.292  0.00  0.00    +0.130 A 
ENDBRANCH  13  15
ENDBRANCH   3  13
TORSDOF 2
ENDMDL
MODEL 7
REMARK VINA RESULT:      -2.9      3.207      4.102
REMARK  Name = 75537111
REMARK  4 active torsions:
REMARK  status: ('A' for Active; 'I' for Inactive)
REMARK    1  A    between atoms: N_3  and  C_13
REMARK    2  A    between atoms: N_4  and  C_14
REMARK    3  A    between atoms: N_5  and  C_17
REMARK    4  A    between atoms: C_13  and  C_15
REMARK                            x       y       z     vdW  Elec       q    Type
REMARK                         _______ _______ _______ _____ _____    ______ ____
ROOT
ATOM      1  O   UNL     1      -3.122  -8.923   9.663  0.00  0.00    -0.252 OA
ATOM      2  N   UNL     1      -4.074 -10.069  11.478  0.00  0.00    -0.278 N 
ATOM      3  N   UNL     1      -5.890 -10.678  13.539  0.00  0.00    -0.292 NA
ATOM      4  N   UNL     1      -1.855  -9.722  11.484  0.00  0.00    -0.287 N 
ATOM      7  C   UNL     1      -3.598 -10.781  12.647  0.00  0.00    +0.109 C 
ATOM      8  C   UNL     1      -4.466 -10.451  13.860  0.00  0.00    +0.109 C 
ATOM      9  C   UNL     1      -2.138 -10.347  12.765  0.00  0.00    +0.132 C 
ATOM     10  C   UNL     1      -5.485 -10.103  11.154  0.00  0.00    +0.125 C 
ATOM     11  C   UNL     1      -6.316  -9.827  12.409  0.00  0.00    +0.104 C 
ATOM     12  C   UNL     1      -3.029  -9.502  10.736  0.00  0.00    +0.305 C 
ATOM     14  C   UNL     1      -0.530  -9.263  11.132  0.00  0.00    +0.133 C 
ENDROOT
BRANCH   3  13
ATOM     13  C   UNL     1      -6.724 -10.422  14.712  0.00  0.00    +0.158 C 
BRANCH  13  15
ATOM      5  N   UNL     1      -8.957  -9.346  15.141  0.00  0.00    -0.336 N 
ATOM      6  N   UNL     1      -8.749 -10.446  13.222  0.00  0.00    -0.239 NA
ATOM     15  C   UNL     1      -8.141 -10.087  14.332  0.00  0.00    +0.124 A 
ATOM     16  C   UNL     1     -10.162  -9.226  14.507  0.00  0.00    +0.106 A 
ATOM     17  C   UNL     1      -8.624  -8.786  16.430  0.00  0.00    +0.150 C 
ATOM     18  C   UNL     1     -10.009  -9.912  13.327  0.00  0.00    +0.130 A 
ENDBRANCH  13  15
ENDBRANCH   3  13
TORSDOF 2
ENDMDL
MODEL 8
REMARK VINA RESULT:      -2.8      3.404      4.189
REMARK  Name = 75537111
REMARK  4 active torsions:
REMARK  status: ('A' for Active; 'I' for Inactive)
REMARK    1  A    between atoms: N_3  and  C_13
REMARK    2  A    between atoms: N_4  and  C_14
REMARK    3  A    between atoms: N_5  and  C_17
REMARK    4  A    between atoms: C_13  and  C_15
REMARK                            x       y       z     vdW  Elec       q    Type
REMARK                         _______ _______ _______ _____ _____    ______ ____
ROOT
ATOM      1  O   UNL     1      -4.348 -10.601  17.231  0.00  0.00    -0.252 OA
ATOM      2  N   UNL     1      -5.560 -10.668  15.221  0.00  0.00    -0.278 N 
ATOM      3  N   UNL     1      -6.275 -10.078  12.565  0.00  0.00    -0.292 NA
ATOM      4  N   UNL     1      -6.703 -10.540  17.149  0.00  0.00    -0.287 N 
ATOM      7  C   UNL     1      -6.949 -10.777  14.826  0.00  0.00    +0.109 C 
ATOM      8  C   UNL     1      -7.244  -9.841  13.655  0.00  0.00    +0.109 C 
ATOM      9  C   UNL     1      -7.715 -10.458  16.110  0.00  0.00    +0.132 C 
ATOM     10  C   UNL     1      -4.529 -10.738  14.207  0.00  0.00    +0.125 C 
ATOM     11  C   UNL     1      -4.894  -9.833  13.027  0.00  0.00    +0.104 C 
ATOM     12  C   UNL     1      -5.402 -10.607  16.612  0.00  0.00    +0.305 C 
ATOM     14  C   UNL     1      -7.033 -10.411  18.552  0.00  0.00    +0.133 C 
ENDROOT
BRANCH   3  13
ATOM     13  C   UNL     1      -6.586  -9.230  11.415  0.00  0.00    +0.158 C 
BRANCH  13  15
ATOM      5  N   UNL     1      -7.585 -10.439   9.448  0.00  0.00    -0.336 N 
ATOM      6  N   UNL     1      -9.020  -9.650  10.948  0.00  0.00    -0.239 NA
ATOM     15  C   UNL     1      -7.751  -9.762  10.624  0.00  0.00    +0.124 A 
ATOM     16  C   UNL     1      -8.828 -10.781   8.993  0.00  0.00    +0.106 A 
ATOM     17  C   UNL     1      -6.335 -10.747   8.792  0.00  0.00    +0.150 C 
ATOM     18  C   UNL     1      -9.696 -10.283   9.935  0.00  0.00    +0.130 A 
ENDBRANCH  13  15
ENDBRANCH   3  13
TORSDOF 2
ENDMDL
MODEL 9
REMARK VINA RESULT:      -2.8     17.515     19.121
REMARK  Name = 75537111
REMARK  4 active torsions:
REMARK  status: ('A' for Active; 'I' for Inactive)
REMARK    1  A    between atoms: N_3  and  C_13
REMARK    2  A    between atoms: N_4  and  C_14
REMARK    3  A    between atoms: N_5  and  C_17
REMARK    4  A    between atoms: C_13  and  C_15
REMARK                            x       y       z     vdW  Elec       q    Type
REMARK                         _______ _______ _______ _____ _____    ______ ____
ROOT
ATOM      1  O   UNL     1      -2.733   3.236  25.455  0.00  0.00    -0.252 OA
ATOM      2  N   UNL     1      -1.244   1.499  24.923  0.00  0.00    -0.278 N 
ATOM      3  N   UNL     1       0.948   0.189  23.743  0.00  0.00    -0.292 NA
ATOM      4  N   UNL     1      -3.445   1.056  24.909  0.00  0.00    -0.287 N 
ATOM      7  C   UNL     1      -1.325   0.074  24.679  0.00  0.00    +0.109 C 
ATOM      8  C   UNL     1      -0.420  -0.319  23.512  0.00  0.00    +0.109 C 
ATOM      9  C   UNL     1      -2.815  -0.168  24.444  0.00  0.00    +0.132 C 
ATOM     10  C   UNL     1       0.057   2.128  25.018  0.00  0.00    +0.125 C 
ATOM     11  C   UNL     1       0.949   1.661  23.866  0.00  0.00    +0.104 C 
ATOM     12  C   UNL     1      -2.502   2.077  25.141  0.00  0.00    +0.305 C 
ATOM     14  C   UNL     1      -4.883   1.204  24.965  0.00  0.00    +0.133 C 
ENDROOT
BRANCH   3  13
ATOM     13  C   UNL     1       1.837  -0.233  22.662  0.00  0.00    +0.158 C 
BRANCH  13  15
ATOM      5  N   UNL     1       4.220   0.511  22.975  0.00  0.00    -0.336 N 
ATOM      6  N   UNL     1       3.709  -1.503  23.760  0.00  0.00    -0.239 NA
ATOM     15  C   UNL     1       3.249  -0.437  23.143  0.00  0.00    +0.124 A 
ATOM     16  C   UNL     1       5.373   0.017  23.518  0.00  0.00    +0.106 A 
ATOM     17  C   UNL     1       4.073   1.801  22.342  0.00  0.00    +0.150 C 
ATOM     18  C   UNL     1       5.032  -1.226  23.996  0.00  0.00    +0.130 A 
ENDBRANCH  13  15
ENDBRANCH   3  13
TORSDOF 2
ENDMDL
MODEL 10
REMARK VINA RESULT:      -2.7     17.152     18.965
REMARK  Name = 75537111
REMARK  4 active torsions:
REMARK  status: ('A' for Active; 'I' for Inactive)
REMARK    1  A    between atoms: N_3  and  C_13
REMARK    2  A    between atoms: N_4  and  C_14
REMARK    3  A    between atoms: N_5  and  C_17
REMARK    4  A    between atoms: C_13  and  C_15
REMARK                            x       y       z     vdW  Elec       q    Type
REMARK                         _______ _______ _______ _____ _____    ______ ____
ROOT
ATOM      1  O   UNL     1      -6.782   1.617  25.469  0.00  0.00    -0.252 OA
ATOM      2  N   UNL     1      -4.618   1.217  24.649  0.00  0.00    -0.278 N 
ATOM      3  N   UNL     1      -2.109  -0.021  24.354  0.00  0.00    -0.292 NA
ATOM      4  N   UNL     1      -5.205   3.334  25.117  0.00  0.00    -0.287 N 
ATOM      7  C   UNL     1      -3.490   2.012  24.209  0.00  0.00    +0.109 C 
ATOM      8  C   UNL     1      -2.183   1.409  24.721  0.00  0.00    +0.109 C 
ATOM      9  C   UNL     1      -3.803   3.410  24.741  0.00  0.00    +0.132 C 
ATOM     10  C   UNL     1      -4.585  -0.220  24.471  0.00  0.00    +0.125 C 
ATOM     11  C   UNL     1      -3.237  -0.773  24.941  0.00  0.00    +0.104 C 
ATOM     12  C   UNL     1      -5.677   2.006  25.118  0.00  0.00    +0.305 C 
ATOM     14  C   UNL     1      -5.939   4.493  25.574  0.00  0.00    +0.133 C 
ENDROOT
BRANCH   3  13
ATOM     13  C   UNL     1      -0.835  -0.592  24.787  0.00  0.00    +0.158 C 
BRANCH  13  15
ATOM      5  N   UNL     1       0.881   1.135  24.154  0.00  0.00    -0.336 N 
ATOM      6  N   UNL     1       0.899  -0.745  22.972  0.00  0.00    -0.239 NA
ATOM     15  C   UNL     1       0.316  -0.093  23.954  0.00  0.00    +0.124 A 
ATOM     16  C   UNL     1       1.889   1.276  23.242  0.00  0.00    +0.106 A 
ATOM     17  C   UNL     1       0.498   2.116  25.143  0.00  0.00    +0.150 C 
ATOM     18  C   UNL     1       1.880   0.104  22.525  0.00  0.00    +0.130 A 
ENDBRANCH  13  15
ENDBRANCH   3  13
TORSDOF 2
ENDMDL
