MODEL 1
REMARK VINA RESULT:       4.5      0.000      0.000
REMARK  Name = 45784399
REMARK  12 active torsions:
REMARK  status: ('A' for Active; 'I' for Inactive)
REMARK    1  A    between atoms: O_1  and  C_12
REMARK    2  A    between atoms: N_5  and  C_16
REMARK    3  A    between atoms: N_6  and  C_26
REMARK    4  A    between atoms: N_7  and  C_27
REMARK    5  A    between atoms: C_9  and  C_19
REMARK    6  A    between atoms: C_11  and  C_21
REMARK    7  A    between atoms: C_15  and  C_20
REMARK    8  A    between atoms: C_20  and  C_22
REMARK    9  A    between atoms: C_20  and  C_23
REMARK   10  A    between atoms: C_24  and  C_25
REMARK   11  A    between atoms: C_26  and  C_27
REMARK   12  A    between atoms: C_34  and  C_37
REMARK                            x       y       z     vdW  Elec       q    Type
REMARK                         _______ _______ _______ _____ _____    ______ ____
ROOT
ATOM      9  C   UNL     1      -3.068  -1.274  25.031  0.00  0.00    -0.027 C 
ATOM     10  C   UNL     1      -2.746   0.002  24.182  0.00  0.00    +0.028 C 
ATOM     11  C   UNL     1      -1.202   0.290  24.170  0.00  0.00    +0.012 C 
ATOM     12  C   UNL     1      -3.646   1.200  24.601  0.00  0.00    +0.122 C 
ATOM     13  C   UNL     1      -4.578  -1.593  24.930  0.00  0.00    +0.007 C 
ATOM     14  C   UNL     1      -2.291  -2.476  24.448  0.00  0.00    +0.009 C 
ATOM     15  C   UNL     1      -5.151   0.842  24.597  0.00  0.00    +0.029 C 
ATOM     16  C   UNL     1      -0.426  -0.954  23.651  0.00  0.00    +0.076 C 
ATOM     17  C   UNL     1      -5.462  -0.436  25.377  0.00  0.00    +0.007 C 
ATOM     18  C   UNL     1      -0.789  -2.244  24.385  0.00  0.00    +0.023 C 
ATOM     19  C   UNL     1      -2.694  -1.101  26.526  0.00  0.00    +0.011 C 
ATOM     21  C   UNL     1      -0.811   1.516  23.328  0.00  0.00    +0.010 C 
ENDROOT
BRANCH  16   5
ATOM      3  O   UNL     1       1.355  -0.355  21.480  0.00  0.00    -0.270 OA
ATOM      5  N   UNL     1       1.007  -0.765  23.736  0.00  0.00    -0.308 N 
ATOM     24  C   UNL     1       1.782  -0.478  22.625  0.00  0.00    +0.244 C 
ATOM     38  H   UNL     1       1.444  -0.966  24.629  0.00  0.00    +0.149 HD
BRANCH  24  25
ATOM     25  C   UNL     1       3.241  -0.339  22.874  0.00  0.00    +0.037 A 
ATOM     28  C   UNL     1       3.932  -1.343  23.552  0.00  0.00    +0.014 A 
ATOM     29  C   UNL     1       3.918   0.795  22.428  0.00  0.00    +0.014 A 
ATOM     30  C   UNL     1       5.301  -1.214  23.784  0.00  0.00    +0.019 A 
ATOM     31  C   UNL     1       5.288   0.925  22.660  0.00  0.00    +0.019 A 
ATOM     34  C   UNL     1       5.978  -0.080  23.338  0.00  0.00    +0.052 A 
BRANCH  34  37
ATOM      8  N   UNL     1       8.521   0.163  23.768  0.00  0.00    -0.191 NA
ATOM     37  C   UNL     1       7.381   0.054  23.576  0.00  0.00    +0.099 C 
ENDBRANCH  34  37
ENDBRANCH  24  25
ENDBRANCH  16   5
BRANCH  12   1
ATOM      1  O   UNL     1      -3.479   2.270  23.670  0.00  0.00    -0.391 OA
ATOM     39  H   UNL     1      -3.666   3.105  24.132  0.00  0.00    +0.210 HD
ENDBRANCH  12   1
BRANCH  15  20
ATOM     20  C   UNL     1      -6.010   1.992  25.137  0.00  0.00    +0.077 C 
ATOM     22  C   UNL     1      -7.213   2.222  24.228  0.00  0.00    +0.017 C 
BRANCH  20  23
ATOM      2  O   UNL     1      -5.049   4.075  24.361  0.00  0.00    -0.276 OA
ATOM      6  N   UNL     1      -4.553   3.358  26.510  0.00  0.00    -0.314 N 
ATOM     23  C   UNL     1      -5.164   3.255  25.269  0.00  0.00    +0.216 C 
ATOM     40  H   UNL     1      -4.687   2.622  27.196  0.00  0.00    +0.149 HD
BRANCH   6  26
ATOM     26  C   UNL     1      -3.700   4.467  26.870  0.00  0.00    +0.119 C 
BRANCH  26  27
ATOM     27  C   UNL     1      -2.807   4.876  25.707  0.00  0.00    +0.103 C 
BRANCH  27   7
ATOM      4  O   UNL     1       0.853   2.836  25.946  0.00  0.00    -0.377 OA
ATOM      7  N   UNL     1      -1.757   3.881  25.500  0.00  0.00    -0.297 NA
ATOM     32  C   UNL     1      -0.568   4.497  24.892  0.00  0.00    +0.112 C 
ATOM     33  C   UNL     1      -1.395   3.232  26.767  0.00  0.00    +0.112 C 
ATOM     35  C   UNL     1       0.517   3.442  24.697  0.00  0.00    +0.175 C 
ATOM     36  C   UNL     1      -0.289   2.207  26.528  0.00  0.00    +0.175 C 
ENDBRANCH  27   7
ENDBRANCH  26  27
ENDBRANCH   6  26
ENDBRANCH  20  23
ENDBRANCH  15  20
TORSDOF 9
ENDMDL
