MODEL 1
REMARK VINA RESULT:      -3.1      0.000      0.000
REMARK  Name = 45361606
REMARK  9 active torsions:
REMARK  status: ('A' for Active; 'I' for Inactive)
REMARK    1  A    between atoms: O_1  and  C_10
REMARK    2  A    between atoms: N_4  and  C_14
REMARK    3  A    between atoms: N_5  and  C_22
REMARK    4  A    between atoms: C_7  and  C_17
REMARK    5  A    between atoms: C_9  and  C_19
REMARK    6  A    between atoms: C_12  and  C_18
REMARK    7  A    between atoms: C_18  and  C_20
REMARK    8  A    between atoms: C_18  and  C_21
REMARK    9  A    between atoms: C_25  and  C_26
REMARK                            x       y       z     vdW  Elec       q    Type
REMARK                         _______ _______ _______ _____ _____    ______ ____
ROOT
ATOM      7  C   UNL     1      -2.921  -1.214  24.918  0.00  0.00    -0.027 C 
ATOM      8  C   UNL     1      -2.527   0.132  24.223  0.00  0.00    +0.028 C 
ATOM      9  C   UNL     1      -0.977   0.374  24.311  0.00  0.00    +0.012 C 
ATOM     10  C   UNL     1      -3.416   1.307  24.724  0.00  0.00    +0.122 C 
ATOM     11  C   UNL     1      -4.431  -1.476  24.715  0.00  0.00    +0.007 C 
ATOM     12  C   UNL     1      -4.927   0.996  24.615  0.00  0.00    +0.029 C 
ATOM     13  C   UNL     1      -2.148  -2.372  24.247  0.00  0.00    +0.009 C 
ATOM     14  C   UNL     1      -0.208  -0.832  23.702  0.00  0.00    +0.076 C 
ATOM     15  C   UNL     1      -5.307  -0.346  25.240  0.00  0.00    +0.007 C 
ATOM     16  C   UNL     1      -0.638  -2.181  24.278  0.00  0.00    +0.023 C 
ATOM     17  C   UNL     1      -2.616  -1.209  26.437  0.00  0.00    +0.011 C 
ATOM     19  C   UNL     1      -0.515   1.669  23.622  0.00  0.00    +0.010 C 
ENDROOT
BRANCH  14   4
ATOM      3  O   UNL     1       1.712  -0.239  21.650  0.00  0.00    -0.269 OA
ATOM      4  N   UNL     1       1.223  -0.697  23.870  0.00  0.00    -0.307 N 
ATOM     25  C   UNL     1       2.069  -0.408  22.814  0.00  0.00    +0.263 C 
ATOM     31  H   UNL     1       1.619  -0.877  24.788  0.00  0.00    +0.149 HD
BRANCH  25  26
ATOM      6  N   UNL     1       4.052  -1.443  23.693  0.00  0.00    -0.250 NA
ATOM     26  C   UNL     1       3.515  -0.329  23.147  0.00  0.00    +0.125 A 
ATOM     27  C   UNL     1       4.227   0.833  22.897  0.00  0.00    +0.033 A 
ATOM     28  C   UNL     1       5.577   0.854  23.227  0.00  0.00    +0.004 A 
ATOM     29  C   UNL     1       5.367  -1.386  24.000  0.00  0.00    +0.111 A 
ATOM     30  C   UNL     1       6.166  -0.273  23.790  0.00  0.00    +0.020 A 
ENDBRANCH  25  26
ENDBRANCH  14   4
BRANCH  10   1
ATOM      1  O   UNL     1      -3.177   2.463  23.919  0.00  0.00    -0.391 OA
ATOM     32  H   UNL     1      -4.015   2.946  23.828  0.00  0.00    +0.210 HD
ENDBRANCH  10   1
BRANCH  12  18
ATOM     18  C   UNL     1      -5.782   2.110  25.233  0.00  0.00    +0.077 C 
ATOM     21  C   UNL     1      -7.034   2.337  24.392  0.00  0.00    +0.017 C 
BRANCH  18  20
ATOM      2  O   UNL     1      -5.318   4.454  24.818  0.00  0.00    -0.276 OA
ATOM      5  N   UNL     1      -3.851   3.246  26.145  0.00  0.00    -0.312 N 
ATOM     20  C   UNL     1      -4.984   3.402  25.360  0.00  0.00    +0.216 C 
ATOM     33  H   UNL     1      -3.640   2.342  26.557  0.00  0.00    +0.149 HD
BRANCH   5  22
ATOM     22  C   UNL     1      -2.938   4.323  26.405  0.00  0.00    +0.073 C 
ATOM     23  C   UNL     1      -1.467   4.175  26.145  0.00  0.00    +0.024 C 
ATOM     24  C   UNL     1      -2.295   5.082  25.282  0.00  0.00    +0.024 C 
ENDBRANCH   5  22
ENDBRANCH  18  20
ENDBRANCH  12  18
TORSDOF 6
ENDMDL
