MODEL 1
REMARK VINA RESULT:      -6.8      0.000      0.000
REMARK  Name = 26744691
REMARK  9 active torsions:
REMARK  status: ('A' for Active; 'I' for Inactive)
REMARK    1  A    between atoms: O_3  and  C_12
REMARK    2  A    between atoms: O_4  and  C_13
REMARK    3  A    between atoms: N_6  and  C_8
REMARK    4  A    between atoms: N_7  and  C_16
REMARK    5  A    between atoms: N_7  and  C_18
REMARK    6  A    between atoms: C_9  and  C_15
REMARK    7  A    between atoms: C_14  and  C_16
REMARK    8  A    between atoms: C_15  and  C_17
REMARK    9  A    between atoms: C_18  and  C_19
REMARK                            x       y       z     vdW  Elec       q    Type
REMARK                         _______ _______ _______ _____ _____    ______ ____
ROOT
ATOM      2  O   UNL     1      -0.535  -1.454  24.010  0.00  0.00    -0.366 OA
ATOM      9  C   UNL     1       0.100  -0.211  24.357  0.00  0.00    +0.158 C 
ATOM     12  C   UNL     1      -0.876   0.508  25.273  0.00  0.00    +0.175 C 
ATOM     13  C   UNL     1      -1.483  -0.650  26.039  0.00  0.00    +0.175 C 
ATOM     14  C   UNL     1      -1.593  -1.721  24.959  0.00  0.00    +0.163 C 
ENDROOT
BRANCH  12   3
ATOM      3  O   UNL     1      -0.228   1.449  26.103  0.00  0.00    -0.387 OA
ATOM     26  H   UNL     1      -0.850   2.182  26.252  0.00  0.00    +0.210 HD
ENDBRANCH  12   3
BRANCH  13   4
ATOM      4  O   UNL     1      -0.572  -1.117  27.034  0.00  0.00    -0.387 OA
ATOM     27  H   UNL     1      -0.260  -1.994  26.752  0.00  0.00    +0.210 HD
ENDBRANCH  13   4
BRANCH   9  15
ATOM     15  C   UNL     1       0.426   0.567  23.095  0.00  0.00    +0.130 C 
BRANCH  15  17
ATOM      5  O   UNL     1       1.839  -0.466  21.423  0.00  0.00    -0.276 OA
ATOM      6  N   UNL     1       2.825   0.554  23.260  0.00  0.00    -0.312 N 
ATOM     17  C   UNL     1       1.750   0.151  22.481  0.00  0.00    +0.216 C 
ATOM     25  H   UNL     1       2.659   1.057  24.128  0.00  0.00    +0.149 HD
BRANCH   6   8
ATOM      8  C   UNL     1       4.185   0.282  22.896  0.00  0.00    +0.073 C 
ATOM     10  C   UNL     1       5.325   0.710  23.774  0.00  0.00    +0.024 C 
ATOM     11  C   UNL     1       4.996  -0.747  23.630  0.00  0.00    +0.024 C 
ENDBRANCH   6   8
ENDBRANCH  15  17
ENDBRANCH   9  15
BRANCH  14  16
ATOM     16  C   UNL     1      -2.917  -1.674  24.208  0.00  0.00    +0.115 C 
BRANCH  16   7
ATOM      7  N   UNL     1      -3.925  -0.945  24.965  0.00  0.00    -0.309 NA
ATOM     28  H   UNL     1      -4.579  -1.609  25.380  0.00  0.00    +0.122 HD
BRANCH   7  18
ATOM     18  C   UNL     1      -4.643  -0.009  24.112  0.00  0.00    +0.116 C 
BRANCH  18  19
ATOM      1 CL   UNL     1      -1.878   4.312  25.027  0.00  0.00    -0.084 Cl
ATOM     19  C   UNL     1      -4.589   1.395  24.651  0.00  0.00    -0.032 A 
ATOM     20  C   UNL     1      -3.399   2.119  24.595  0.00  0.00    +0.025 A 
ATOM     21  C   UNL     1      -5.731   1.973  25.206  0.00  0.00    +0.005 A 
ATOM     22  C   UNL     1      -3.349   3.420  25.094  0.00  0.00    +0.041 A 
ATOM     23  C   UNL     1      -5.681   3.274  25.705  0.00  0.00    +0.002 A 
ATOM     24  C   UNL     1      -4.491   3.999  25.649  0.00  0.00    +0.020 A 
ENDBRANCH  18  19
ENDBRANCH   7  18
ENDBRANCH  16   7
ENDBRANCH  14  16
TORSDOF 9
ENDMDL
MODEL 2
REMARK VINA RESULT:      -5.7      2.042      3.210
REMARK  Name = 26744691
REMARK  9 active torsions:
REMARK  status: ('A' for Active; 'I' for Inactive)
REMARK    1  A    between atoms: O_3  and  C_12
REMARK    2  A    between atoms: O_4  and  C_13
REMARK    3  A    between atoms: N_6  and  C_8
REMARK    4  A    between atoms: N_7  and  C_16
REMARK    5  A    between atoms: N_7  and  C_18
REMARK    6  A    between atoms: C_9  and  C_15
REMARK    7  A    between atoms: C_14  and  C_16
REMARK    8  A    between atoms: C_15  and  C_17
REMARK    9  A    between atoms: C_18  and  C_19
REMARK                            x       y       z     vdW  Elec       q    Type
REMARK                         _______ _______ _______ _____ _____    ______ ____
ROOT
ATOM      2  O   UNL     1      -2.920   0.345  23.822  0.00  0.00    -0.366 OA
ATOM      9  C   UNL     1      -2.030  -0.731  24.169  0.00  0.00    +0.158 C 
ATOM     12  C   UNL     1      -2.810  -1.617  25.125  0.00  0.00    +0.175 C 
ATOM     13  C   UNL     1      -4.213  -1.509  24.565  0.00  0.00    +0.175 C 
ATOM     14  C   UNL     1      -4.274  -0.044  24.146  0.00  0.00    +0.163 C 
ENDROOT
BRANCH  12   3
ATOM      3  O   UNL     1      -2.316  -2.940  25.144  0.00  0.00    -0.387 OA
ATOM     26  H   UNL     1      -1.827  -3.056  25.977  0.00  0.00    +0.210 HD
ENDBRANCH  12   3
BRANCH  13   4
ATOM      4  O   UNL     1      -4.340  -2.311  23.391  0.00  0.00    -0.387 OA
ATOM     27  H   UNL     1      -3.669  -2.006  22.757  0.00  0.00    +0.210 HD
ENDBRANCH  13   4
BRANCH   9  15
ATOM     15  C   UNL     1      -0.757  -0.168  24.772  0.00  0.00    +0.130 C 
BRANCH  15  17
ATOM      5  O   UNL     1      -0.097   1.559  23.209  0.00  0.00    -0.276 OA
ATOM      6  N   UNL     1       1.255  -0.311  23.462  0.00  0.00    -0.312 N 
ATOM     17  C   UNL     1       0.145   0.475  23.734  0.00  0.00    +0.216 C 
ATOM     25  H   UNL     1       1.373  -1.200  23.941  0.00  0.00    +0.149 HD
BRANCH   6   8
ATOM      8  C   UNL     1       2.261   0.077  22.516  0.00  0.00    +0.073 C 
ATOM     10  C   UNL     1       3.272   1.135  22.846  0.00  0.00    +0.024 C 
ATOM     11  C   UNL     1       3.701  -0.297  22.715  0.00  0.00    +0.024 C 
ENDBRANCH   6   8
ENDBRANCH  15  17
ENDBRANCH   9  15
BRANCH  14  16
ATOM     16  C   UNL     1      -4.771   0.872  25.256  0.00  0.00    +0.115 C 
BRANCH  16   7
ATOM      7  N   UNL     1      -5.103   2.192  24.737  0.00  0.00    -0.309 NA
ATOM     28  H   UNL     1      -4.615   2.338  23.853  0.00  0.00    +0.122 HD
BRANCH   7  18
ATOM     18  C   UNL     1      -4.732   3.234  25.685  0.00  0.00    +0.116 C 
BRANCH  18  19
ATOM      1 CL   UNL     1       0.350   2.533  26.599  0.00  0.00    -0.084 Cl
ATOM     19  C   UNL     1      -3.312   3.693  25.486  0.00  0.00    -0.032 A 
ATOM     20  C   UNL     1      -2.262   2.983  26.066  0.00  0.00    +0.025 A 
ATOM     21  C   UNL     1      -3.048   4.830  24.722  0.00  0.00    +0.005 A 
ATOM     22  C   UNL     1      -0.947   3.408  25.882  0.00  0.00    +0.041 A 
ATOM     23  C   UNL     1      -1.733   5.255  24.538  0.00  0.00    +0.002 A 
ATOM     24  C   UNL     1      -0.681   4.545  25.117  0.00  0.00    +0.020 A 
ENDBRANCH  18  19
ENDBRANCH   7  18
ENDBRANCH  16   7
ENDBRANCH  14  16
TORSDOF 9
ENDMDL
MODEL 3
REMARK VINA RESULT:      -5.7      2.360      4.316
REMARK  Name = 26744691
REMARK  9 active torsions:
REMARK  status: ('A' for Active; 'I' for Inactive)
REMARK    1  A    between atoms: O_3  and  C_12
REMARK    2  A    between atoms: O_4  and  C_13
REMARK    3  A    between atoms: N_6  and  C_8
REMARK    4  A    between atoms: N_7  and  C_16
REMARK    5  A    between atoms: N_7  and  C_18
REMARK    6  A    between atoms: C_9  and  C_15
REMARK    7  A    between atoms: C_14  and  C_16
REMARK    8  A    between atoms: C_15  and  C_17
REMARK    9  A    between atoms: C_18  and  C_19
REMARK                            x       y       z     vdW  Elec       q    Type
REMARK                         _______ _______ _______ _____ _____    ______ ____
ROOT
ATOM      2  O   UNL     1      -1.798   3.163  26.452  0.00  0.00    -0.366 OA
ATOM      9  C   UNL     1      -0.659   3.033  25.582  0.00  0.00    +0.158 C 
ATOM     12  C   UNL     1      -1.104   3.587  24.238  0.00  0.00    +0.175 C 
ATOM     13  C   UNL     1      -2.021   4.715  24.662  0.00  0.00    +0.175 C 
ATOM     14  C   UNL     1      -2.722   4.114  25.876  0.00  0.00    +0.163 C 
ENDROOT
BRANCH  12   3
ATOM      3  O   UNL     1      -0.012   4.019  23.455  0.00  0.00    -0.387 OA
ATOM     26  H   UNL     1       0.684   4.319  24.066  0.00  0.00    +0.210 HD
ENDBRANCH  12   3
BRANCH  13   4
ATOM      4  O   UNL     1      -1.255   5.836  25.103  0.00  0.00    -0.387 OA
ATOM     27  H   UNL     1      -1.057   6.378  24.319  0.00  0.00    +0.210 HD
ENDBRANCH  13   4
BRANCH   9  15
ATOM     15  C   UNL     1      -0.224   1.581  25.520  0.00  0.00    +0.130 C 
BRANCH  15  17
ATOM      5  O   UNL     1      -0.488   0.825  23.236  0.00  0.00    -0.276 OA
ATOM      6  N   UNL     1       1.645   1.258  24.042  0.00  0.00    -0.312 N 
ATOM     17  C   UNL     1       0.263   1.178  24.141  0.00  0.00    +0.216 C 
ATOM     25  H   UNL     1       2.192   1.555  24.846  0.00  0.00    +0.149 HD
BRANCH   6   8
ATOM      8  C   UNL     1       2.352   0.929  22.838  0.00  0.00    +0.073 C 
ATOM     10  C   UNL     1       3.847   1.029  22.764  0.00  0.00    +0.024 C 
ATOM     11  C   UNL     1       3.184  -0.317  22.741  0.00  0.00    +0.024 C 
ENDBRANCH   6   8
ENDBRANCH  15  17
ENDBRANCH   9  15
BRANCH  14  16
ATOM     16  C   UNL     1      -3.999   3.366  25.517  0.00  0.00    +0.115 C 
BRANCH  16   7
ATOM      7  N   UNL     1      -3.708   2.193  24.705  0.00  0.00    -0.309 NA
ATOM     28  H   UNL     1      -3.829   2.427  23.720  0.00  0.00    +0.122 HD
BRANCH   7  18
ATOM     18  C   UNL     1      -4.581   1.083  25.062  0.00  0.00    +0.116 C 
BRANCH  18  19
ATOM      1 CL   UNL     1      -0.429  -2.019  25.607  0.00  0.00    -0.084 Cl
ATOM     19  C   UNL     1      -3.926  -0.249  24.809  0.00  0.00    -0.032 A 
ATOM     20  C   UNL     1      -2.633  -0.489  25.271  0.00  0.00    +0.025 A 
ATOM     21  C   UNL     1      -4.614  -1.242  24.112  0.00  0.00    +0.005 A 
ATOM     22  C   UNL     1      -2.027  -1.723  25.037  0.00  0.00    +0.041 A 
ATOM     23  C   UNL     1      -4.007  -2.476  23.877  0.00  0.00    +0.002 A 
ATOM     24  C   UNL     1      -2.714  -2.718  24.340  0.00  0.00    +0.020 A 
ENDBRANCH  18  19
ENDBRANCH   7  18
ENDBRANCH  16   7
ENDBRANCH  14  16
TORSDOF 9
ENDMDL
MODEL 4
REMARK VINA RESULT:      -5.4      3.256      6.358
REMARK  Name = 26744691
REMARK  9 active torsions:
REMARK  status: ('A' for Active; 'I' for Inactive)
REMARK    1  A    between atoms: O_3  and  C_12
REMARK    2  A    between atoms: O_4  and  C_13
REMARK    3  A    between atoms: N_6  and  C_8
REMARK    4  A    between atoms: N_7  and  C_16
REMARK    5  A    between atoms: N_7  and  C_18
REMARK    6  A    between atoms: C_9  and  C_15
REMARK    7  A    between atoms: C_14  and  C_16
REMARK    8  A    between atoms: C_15  and  C_17
REMARK    9  A    between atoms: C_18  and  C_19
REMARK                            x       y       z     vdW  Elec       q    Type
REMARK                         _______ _______ _______ _____ _____    ______ ____
ROOT
ATOM      2  O   UNL     1      -3.606   3.559  24.098  0.00  0.00    -0.366 OA
ATOM      9  C   UNL     1      -4.593   2.514  24.044  0.00  0.00    +0.158 C 
ATOM     12  C   UNL     1      -5.042   2.298  25.479  0.00  0.00    +0.175 C 
ATOM     13  C   UNL     1      -4.986   3.708  26.031  0.00  0.00    +0.175 C 
ATOM     14  C   UNL     1      -3.736   4.262  25.355  0.00  0.00    +0.163 C 
ENDROOT
BRANCH  12   3
ATOM      3  O   UNL     1      -6.329   1.721  25.551  0.00  0.00    -0.387 OA
ATOM     26  H   UNL     1      -6.248   0.793  25.270  0.00  0.00    +0.210 HD
ENDBRANCH  12   3
BRANCH  13   4
ATOM      4  O   UNL     1      -6.108   4.463  25.576  0.00  0.00    -0.387 OA
ATOM     27  H   UNL     1      -6.898   3.907  25.691  0.00  0.00    +0.210 HD
ENDBRANCH  13   4
BRANCH   9  15
ATOM     15  C   UNL     1      -3.992   1.274  23.409  0.00  0.00    +0.130 C 
BRANCH  15  17
ATOM      5  O   UNL     1      -4.267   0.106  25.512  0.00  0.00    -0.276 OA
ATOM      6  N   UNL     1      -4.042  -1.126  23.557  0.00  0.00    -0.312 N 
ATOM     17  C   UNL     1      -4.117   0.048  24.294  0.00  0.00    +0.216 C 
ATOM     25  H   UNL     1      -3.910  -1.082  22.550  0.00  0.00    +0.149 HD
BRANCH   6   8
ATOM      8  C   UNL     1      -4.134  -2.423  24.162  0.00  0.00    +0.073 C 
ATOM     10  C   UNL     1      -2.995  -3.397  24.089  0.00  0.00    +0.024 C 
ATOM     11  C   UNL     1      -3.354  -2.761  25.400  0.00  0.00    +0.024 C 
ENDBRANCH   6   8
ENDBRANCH  15  17
ENDBRANCH   9  15
BRANCH  14  16
ATOM     16  C   UNL     1      -2.467   4.020  26.159  0.00  0.00    +0.115 C 
BRANCH  16   7
ATOM      7  N   UNL     1      -1.314   3.857  25.284  0.00  0.00    -0.309 NA
ATOM     28  H   UNL     1      -1.617   3.437  24.405  0.00  0.00    +0.122 HD
BRANCH   7  18
ATOM     18  C   UNL     1      -0.299   3.020  25.909  0.00  0.00    +0.116 C 
BRANCH  18  19
ATOM      1 CL   UNL     1       1.364  -0.092  22.073  0.00  0.00    -0.084 Cl
ATOM     19  C   UNL     1      -0.250   1.646  25.294  0.00  0.00    -0.032 A 
ATOM     20  C   UNL     1       0.453   1.437  24.108  0.00  0.00    +0.025 A 
ATOM     21  C   UNL     1      -0.907   0.582  25.913  0.00  0.00    +0.005 A 
ATOM     22  C   UNL     1       0.499   0.165  23.539  0.00  0.00    +0.041 A 
ATOM     23  C   UNL     1      -0.861  -0.690  25.344  0.00  0.00    +0.002 A 
ATOM     24  C   UNL     1      -0.158  -0.900  24.157  0.00  0.00    +0.020 A 
ENDBRANCH  18  19
ENDBRANCH   7  18
ENDBRANCH  16   7
ENDBRANCH  14  16
TORSDOF 9
ENDMDL
MODEL 5
REMARK VINA RESULT:      -5.4      3.243      6.202
REMARK  Name = 26744691
REMARK  9 active torsions:
REMARK  status: ('A' for Active; 'I' for Inactive)
REMARK    1  A    between atoms: O_3  and  C_12
REMARK    2  A    between atoms: O_4  and  C_13
REMARK    3  A    between atoms: N_6  and  C_8
REMARK    4  A    between atoms: N_7  and  C_16
REMARK    5  A    between atoms: N_7  and  C_18
REMARK    6  A    between atoms: C_9  and  C_15
REMARK    7  A    between atoms: C_14  and  C_16
REMARK    8  A    between atoms: C_15  and  C_17
REMARK    9  A    between atoms: C_18  and  C_19
REMARK                            x       y       z     vdW  Elec       q    Type
REMARK                         _______ _______ _______ _____ _____    ______ ____
ROOT
ATOM      2  O   UNL     1      -0.345   3.384  23.999  0.00  0.00    -0.366 OA
ATOM      9  C   UNL     1      -1.143   4.016  25.016  0.00  0.00    +0.158 C 
ATOM     12  C   UNL     1      -1.504   2.914  25.999  0.00  0.00    +0.175 C 
ATOM     13  C   UNL     1      -0.250   2.065  25.978  0.00  0.00    +0.175 C 
ATOM     14  C   UNL     1       0.147   2.122  24.506  0.00  0.00    +0.163 C 
ENDROOT
BRANCH  12   3
ATOM      3  O   UNL     1      -1.812   3.426  27.278  0.00  0.00    -0.387 OA
ATOM     26  H   UNL     1      -2.313   4.250  27.150  0.00  0.00    +0.210 HD
ENDBRANCH  12   3
BRANCH  13   4
ATOM      4  O   UNL     1       0.784   2.690  26.739  0.00  0.00    -0.387 OA
ATOM     27  H   UNL     1       1.407   3.089  26.108  0.00  0.00    +0.210 HD
ENDBRANCH  13   4
BRANCH   9  15
ATOM     15  C   UNL     1      -2.353   4.675  24.380  0.00  0.00    +0.130 C 
BRANCH  15  17
ATOM      5  O   UNL     1      -3.540   2.994  23.104  0.00  0.00    -0.276 OA
ATOM      6  N   UNL     1      -4.410   3.688  25.141  0.00  0.00    -0.312 N 
ATOM     17  C   UNL     1      -3.478   3.692  24.113  0.00  0.00    +0.216 C 
ATOM     25  H   UNL     1      -4.284   4.305  25.939  0.00  0.00    +0.149 HD
BRANCH   6   8
ATOM      8  C   UNL     1      -5.570   2.844  25.127  0.00  0.00    +0.073 C 
ATOM     10  C   UNL     1      -5.443   1.349  25.160  0.00  0.00    +0.024 C 
ATOM     11  C   UNL     1      -5.991   2.081  26.350  0.00  0.00    +0.024 C 
ENDBRANCH   6   8
ENDBRANCH  15  17
ENDBRANCH   9  15
BRANCH  14  16
ATOM     16  C   UNL     1      -0.481   1.010  23.677  0.00  0.00    +0.115 C 
BRANCH  16   7
ATOM      7  N   UNL     1       0.488  -0.037  23.385  0.00  0.00    -0.309 NA
ATOM     28  H   UNL     1       0.338  -0.378  22.435  0.00  0.00    +0.122 HD
BRANCH   7  18
ATOM     18  C   UNL     1       0.369  -1.138  24.332  0.00  0.00    +0.116 C 
BRANCH  18  19
ATOM      1 CL   UNL     1      -4.428  -2.934  23.374  0.00  0.00    -0.084 Cl
ATOM     19  C   UNL     1      -1.051  -1.328  24.794  0.00  0.00    -0.032 A 
ATOM     20  C   UNL     1      -1.974  -1.968  23.967  0.00  0.00    +0.025 A 
ATOM     21  C   UNL     1      -1.444  -0.863  26.049  0.00  0.00    +0.005 A 
ATOM     22  C   UNL     1      -3.289  -2.145  24.395  0.00  0.00    +0.041 A 
ATOM     23  C   UNL     1      -2.759  -1.040  26.477  0.00  0.00    +0.002 A 
ATOM     24  C   UNL     1      -3.683  -1.681  25.651  0.00  0.00    +0.020 A 
ENDBRANCH  18  19
ENDBRANCH   7  18
ENDBRANCH  16   7
ENDBRANCH  14  16
TORSDOF 9
ENDMDL
MODEL 6
REMARK VINA RESULT:      -4.9      2.886      5.239
REMARK  Name = 26744691
REMARK  9 active torsions:
REMARK  status: ('A' for Active; 'I' for Inactive)
REMARK    1  A    between atoms: O_3  and  C_12
REMARK    2  A    between atoms: O_4  and  C_13
REMARK    3  A    between atoms: N_6  and  C_8
REMARK    4  A    between atoms: N_7  and  C_16
REMARK    5  A    between atoms: N_7  and  C_18
REMARK    6  A    between atoms: C_9  and  C_15
REMARK    7  A    between atoms: C_14  and  C_16
REMARK    8  A    between atoms: C_15  and  C_17
REMARK    9  A    between atoms: C_18  and  C_19
REMARK                            x       y       z     vdW  Elec       q    Type
REMARK                         _______ _______ _______ _____ _____    ______ ____
ROOT
ATOM      2  O   UNL     1      -2.177  -0.923  26.116  0.00  0.00    -0.366 OA
ATOM      9  C   UNL     1      -3.539  -1.103  25.688  0.00  0.00    +0.158 C 
ATOM     12  C   UNL     1      -3.465  -1.409  24.201  0.00  0.00    +0.175 C 
ATOM     13  C   UNL     1      -2.188  -2.220  24.120  0.00  0.00    +0.175 C 
ATOM     14  C   UNL     1      -1.295  -1.504  25.128  0.00  0.00    +0.163 C 
ENDROOT
BRANCH  12   3
ATOM      3  O   UNL     1      -4.603  -2.112  23.749  0.00  0.00    -0.387 OA
ATOM     26  H   UNL     1      -4.921  -1.665  22.945  0.00  0.00    +0.210 HD
ENDBRANCH  12   3
BRANCH  13   4
ATOM      4  O   UNL     1      -2.414  -3.548  24.593  0.00  0.00    -0.387 OA
ATOM     27  H   UNL     1      -1.635  -3.805  25.116  0.00  0.00    +0.210 HD
ENDBRANCH  13   4
BRANCH   9  15
ATOM     15  C   UNL     1      -4.344   0.143  26.006  0.00  0.00    +0.130 C 
BRANCH  15  17
ATOM      5  O   UNL     1      -5.738   1.509  24.574  0.00  0.00    -0.276 OA
ATOM      6  N   UNL     1      -3.568   1.025  23.908  0.00  0.00    -0.312 N 
ATOM     17  C   UNL     1      -4.654   0.968  24.770  0.00  0.00    +0.216 C 
ATOM     25  H   UNL     1      -2.707   0.540  24.147  0.00  0.00    +0.149 HD
BRANCH   6   8
ATOM      8  C   UNL     1      -3.607   1.744  22.667  0.00  0.00    +0.073 C 
ATOM     10  C   UNL     1      -3.456   3.237  22.630  0.00  0.00    +0.024 C 
ATOM     11  C   UNL     1      -2.366   2.360  22.087  0.00  0.00    +0.024 C 
ENDBRANCH   6   8
ENDBRANCH  15  17
ENDBRANCH   9  15
BRANCH  14  16
ATOM     16  C   UNL     1      -0.482  -0.376  24.507  0.00  0.00    +0.115 C 
BRANCH  16   7
ATOM      7  N   UNL     1      -0.210   0.671  25.481  0.00  0.00    -0.309 NA
ATOM     28  H   UNL     1      -1.075   0.914  25.964  0.00  0.00    +0.122 HD
BRANCH   7  18
ATOM     18  C   UNL     1       0.346   1.853  24.835  0.00  0.00    +0.116 C 
BRANCH  18  19
ATOM      1 CL   UNL     1      -4.026   3.926  26.771  0.00  0.00    -0.084 Cl
ATOM     19  C   UNL     1      -0.529   3.062  25.032  0.00  0.00    -0.032 A 
ATOM     20  C   UNL     1      -1.731   2.948  25.729  0.00  0.00    +0.025 A 
ATOM     21  C   UNL     1      -0.136   4.297  24.517  0.00  0.00    +0.005 A 
ATOM     22  C   UNL     1      -2.541   4.068  25.912  0.00  0.00    +0.041 A 
ATOM     23  C   UNL     1      -0.946   5.418  24.699  0.00  0.00    +0.002 A 
ATOM     24  C   UNL     1      -2.149   5.304  25.397  0.00  0.00    +0.020 A 
ENDBRANCH  18  19
ENDBRANCH   7  18
ENDBRANCH  16   7
ENDBRANCH  14  16
TORSDOF 9
ENDMDL
MODEL 7
REMARK VINA RESULT:      -4.8      1.653      2.089
REMARK  Name = 26744691
REMARK  9 active torsions:
REMARK  status: ('A' for Active; 'I' for Inactive)
REMARK    1  A    between atoms: O_3  and  C_12
REMARK    2  A    between atoms: O_4  and  C_13
REMARK    3  A    between atoms: N_6  and  C_8
REMARK    4  A    between atoms: N_7  and  C_16
REMARK    5  A    between atoms: N_7  and  C_18
REMARK    6  A    between atoms: C_9  and  C_15
REMARK    7  A    between atoms: C_14  and  C_16
REMARK    8  A    between atoms: C_15  and  C_17
REMARK    9  A    between atoms: C_18  and  C_19
REMARK                            x       y       z     vdW  Elec       q    Type
REMARK                         _______ _______ _______ _____ _____    ______ ____
ROOT
ATOM      2  O   UNL     1      -0.284  -0.571  25.153  0.00  0.00    -0.366 OA
ATOM      9  C   UNL     1       0.455   0.326  24.305  0.00  0.00    +0.158 C 
ATOM     12  C   UNL     1      -0.297   1.645  24.347  0.00  0.00    +0.175 C 
ATOM     13  C   UNL     1      -0.791   1.668  25.779  0.00  0.00    +0.175 C 
ATOM     14  C   UNL     1      -1.150   0.204  26.014  0.00  0.00    +0.163 C 
ENDROOT
BRANCH  12   3
ATOM      3  O   UNL     1       0.534   2.740  24.026  0.00  0.00    -0.387 OA
ATOM     26  H   UNL     1      -0.043   3.506  23.861  0.00  0.00    +0.210 HD
ENDBRANCH  12   3
BRANCH  13   4
ATOM      4  O   UNL     1       0.274   2.011  26.665  0.00  0.00    -0.387 OA
ATOM     27  H   UNL     1       0.977   2.417  26.129  0.00  0.00    +0.210 HD
ENDBRANCH  13   4
BRANCH   9  15
ATOM     15  C   UNL     1       0.563  -0.261  22.910  0.00  0.00    +0.130 C 
BRANCH  15  17
ATOM      5  O   UNL     1       2.299  -0.078  21.233  0.00  0.00    -0.276 OA
ATOM      6  N   UNL     1       2.890  -0.600  23.416  0.00  0.00    -0.312 N 
ATOM     17  C   UNL     1       1.993  -0.295  22.402  0.00  0.00    +0.216 C 
ATOM     25  H   UNL     1       2.547  -0.772  24.358  0.00  0.00    +0.149 HD
BRANCH   6   8
ATOM      8  C   UNL     1       4.304  -0.692  23.192  0.00  0.00    +0.073 C 
ATOM     10  C   UNL     1       5.173   0.530  23.206  0.00  0.00    +0.024 C 
ATOM     11  C   UNL     1       5.283  -0.480  24.310  0.00  0.00    +0.024 C 
ENDBRANCH   6   8
ENDBRANCH  15  17
ENDBRANCH   9  15
BRANCH  14  16
ATOM     16  C   UNL     1      -2.590  -0.123  25.644  0.00  0.00    +0.115 C 
BRANCH  16   7
ATOM      7  N   UNL     1      -2.672  -0.688  24.304  0.00  0.00    -0.309 NA
ATOM     28  H   UNL     1      -1.736  -0.943  23.989  0.00  0.00    +0.122 HD
BRANCH   7  18
ATOM     18  C   UNL     1      -3.266   0.262  23.373  0.00  0.00    +0.116 C 
BRANCH  18  19
ATOM      1 CL   UNL     1      -6.834   1.742  26.870  0.00  0.00    -0.084 Cl
ATOM     19  C   UNL     1      -3.983   1.375  24.089  0.00  0.00    -0.032 A 
ATOM     20  C   UNL     1      -4.961   1.078  25.037  0.00  0.00    +0.025 A 
ATOM     21  C   UNL     1      -3.669   2.704  23.803  0.00  0.00    +0.005 A 
ATOM     22  C   UNL     1      -5.625   2.109  25.700  0.00  0.00    +0.041 A 
ATOM     23  C   UNL     1      -4.333   3.735  24.466  0.00  0.00    +0.002 A 
ATOM     24  C   UNL     1      -5.311   3.439  25.416  0.00  0.00    +0.020 A 
ENDBRANCH  18  19
ENDBRANCH   7  18
ENDBRANCH  16   7
ENDBRANCH  14  16
TORSDOF 9
ENDMDL
MODEL 8
REMARK VINA RESULT:      -4.7      2.650      5.158
REMARK  Name = 26744691
REMARK  9 active torsions:
REMARK  status: ('A' for Active; 'I' for Inactive)
REMARK    1  A    between atoms: O_3  and  C_12
REMARK    2  A    between atoms: O_4  and  C_13
REMARK    3  A    between atoms: N_6  and  C_8
REMARK    4  A    between atoms: N_7  and  C_16
REMARK    5  A    between atoms: N_7  and  C_18
REMARK    6  A    between atoms: C_9  and  C_15
REMARK    7  A    between atoms: C_14  and  C_16
REMARK    8  A    between atoms: C_15  and  C_17
REMARK    9  A    between atoms: C_18  and  C_19
REMARK                            x       y       z     vdW  Elec       q    Type
REMARK                         _______ _______ _______ _____ _____    ______ ____
ROOT
ATOM      2  O   UNL     1       0.038   2.363  25.829  0.00  0.00    -0.366 OA
ATOM      9  C   UNL     1      -0.164   0.992  25.442  0.00  0.00    +0.158 C 
ATOM     12  C   UNL     1      -0.256   1.002  23.925  0.00  0.00    +0.175 C 
ATOM     13  C   UNL     1       0.730   2.095  23.568  0.00  0.00    +0.175 C 
ATOM     14  C   UNL     1       0.491   3.113  24.679  0.00  0.00    +0.163 C 
ENDROOT
BRANCH  12   3
ATOM      3  O   UNL     1       0.073  -0.252  23.366  0.00  0.00    -0.387 OA
ATOM     26  H   UNL     1       0.844  -0.119  22.787  0.00  0.00    +0.210 HD
ENDBRANCH  12   3
BRANCH  13   4
ATOM      4  O   UNL     1       2.069   1.614  23.690  0.00  0.00    -0.387 OA
ATOM     27  H   UNL     1       2.249   1.061  22.910  0.00  0.00    +0.210 HD
ENDBRANCH  13   4
BRANCH   9  15
ATOM     15  C   UNL     1      -1.409   0.447  26.117  0.00  0.00    +0.130 C 
BRANCH  15  17
ATOM      5  O   UNL     1      -0.844  -1.853  25.614  0.00  0.00    -0.276 OA
ATOM      6  N   UNL     1      -3.062  -1.181  25.484  0.00  0.00    -0.312 N 
ATOM     17  C   UNL     1      -1.708  -0.986  25.716  0.00  0.00    +0.216 C 
ATOM     25  H   UNL     1      -3.709  -0.403  25.586  0.00  0.00    +0.149 HD
BRANCH   6   8
ATOM      8  C   UNL     1      -3.602  -2.451  25.093  0.00  0.00    +0.073 C 
ATOM     10  C   UNL     1      -4.471  -2.583  23.877  0.00  0.00    +0.024 C 
ATOM     11  C   UNL     1      -3.091  -3.172  23.880  0.00  0.00    +0.024 C 
ENDBRANCH   6   8
ENDBRANCH  15  17
ENDBRANCH   9  15
BRANCH  14  16
ATOM     16  C   UNL     1      -0.587   4.131  24.332  0.00  0.00    +0.115 C 
BRANCH  16   7
ATOM      7  N   UNL     1      -1.454   4.387  25.473  0.00  0.00    -0.309 NA
ATOM     28  H   UNL     1      -1.466   3.564  26.077  0.00  0.00    +0.122 HD
BRANCH   7  18
ATOM     18  C   UNL     1      -2.808   4.703  25.039  0.00  0.00    +0.116 C 
BRANCH  18  19
ATOM      1 CL   UNL     1      -6.728   1.777  26.835  0.00  0.00    -0.084 Cl
ATOM     19  C   UNL     1      -3.658   3.467  24.908  0.00  0.00    -0.032 A 
ATOM     20  C   UNL     1      -4.680   3.223  25.824  0.00  0.00    +0.025 A 
ATOM     21  C   UNL     1      -3.421   2.566  23.870  0.00  0.00    +0.005 A 
ATOM     22  C   UNL     1      -5.467   2.079  25.703  0.00  0.00    +0.041 A 
ATOM     23  C   UNL     1      -4.208   1.421  23.749  0.00  0.00    +0.002 A 
ATOM     24  C   UNL     1      -5.232   1.177  24.664  0.00  0.00    +0.020 A 
ENDBRANCH  18  19
ENDBRANCH   7  18
ENDBRANCH  16   7
ENDBRANCH  14  16
TORSDOF 9
ENDMDL
MODEL 9
REMARK VINA RESULT:      -4.6      2.309      3.509
REMARK  Name = 26744691
REMARK  9 active torsions:
REMARK  status: ('A' for Active; 'I' for Inactive)
REMARK    1  A    between atoms: O_3  and  C_12
REMARK    2  A    between atoms: O_4  and  C_13
REMARK    3  A    between atoms: N_6  and  C_8
REMARK    4  A    between atoms: N_7  and  C_16
REMARK    5  A    between atoms: N_7  and  C_18
REMARK    6  A    between atoms: C_9  and  C_15
REMARK    7  A    between atoms: C_14  and  C_16
REMARK    8  A    between atoms: C_15  and  C_17
REMARK    9  A    between atoms: C_18  and  C_19
REMARK                            x       y       z     vdW  Elec       q    Type
REMARK                         _______ _______ _______ _____ _____    ______ ____
ROOT
ATOM      2  O   UNL     1      -1.070   0.443  24.719  0.00  0.00    -0.366 OA
ATOM      9  C   UNL     1       0.250   0.510  24.150  0.00  0.00    +0.158 C 
ATOM     12  C   UNL     1       0.515   1.985  23.900  0.00  0.00    +0.175 C 
ATOM     13  C   UNL     1      -0.191   2.626  25.078  0.00  0.00    +0.175 C 
ATOM     14  C   UNL     1      -1.435   1.752  25.213  0.00  0.00    +0.163 C 
ENDROOT
BRANCH  12   3
ATOM      3  O   UNL     1       1.896   2.275  23.853  0.00  0.00    -0.387 OA
ATOM     26  H   UNL     1       2.062   3.005  24.474  0.00  0.00    +0.210 HD
ENDBRANCH  12   3
BRANCH  13   4
ATOM      4  O   UNL     1       0.588   2.474  26.264  0.00  0.00    -0.387 OA
ATOM     27  H   UNL     1       1.076   3.305  26.398  0.00  0.00    +0.210 HD
ENDBRANCH  13   4
BRANCH   9  15
ATOM     15  C   UNL     1       0.308  -0.333  22.890  0.00  0.00    +0.130 C 
BRANCH  15  17
ATOM      5  O   UNL     1       1.879  -0.345  21.048  0.00  0.00    -0.276 OA
ATOM      6  N   UNL     1       2.690  -0.358  23.223  0.00  0.00    -0.312 N 
ATOM     17  C   UNL     1       1.689  -0.346  22.261  0.00  0.00    +0.216 C 
ATOM     25  H   UNL     1       2.442  -0.364  24.209  0.00  0.00    +0.149 HD
BRANCH   6   8
ATOM      8  C   UNL     1       4.084  -0.371  22.885  0.00  0.00    +0.073 C 
ATOM     10  C   UNL     1       5.041   0.608  23.499  0.00  0.00    +0.024 C 
ATOM     11  C   UNL     1       5.117  -0.846  23.865  0.00  0.00    +0.024 C 
ENDBRANCH   6   8
ENDBRANCH  15  17
ENDBRANCH   9  15
BRANCH  14  16
ATOM     16  C   UNL     1      -2.608   2.254  24.384  0.00  0.00    +0.115 C 
BRANCH  16   7
ATOM      7  N   UNL     1      -3.806   2.396  25.201  0.00  0.00    -0.309 NA
ATOM     28  H   UNL     1      -3.560   2.264  26.182  0.00  0.00    +0.122 HD
BRANCH   7  18
ATOM     18  C   UNL     1      -4.822   1.429  24.810  0.00  0.00    +0.116 C 
BRANCH  18  19
ATOM      1 CL   UNL     1      -4.263  -3.346  22.798  0.00  0.00    -0.084 Cl
ATOM     19  C   UNL     1      -4.338   0.012  24.970  0.00  0.00    -0.032 A 
ATOM     20  C   UNL     1      -4.504  -0.904  23.931  0.00  0.00    +0.025 A 
ATOM     21  C   UNL     1      -3.724  -0.384  26.158  0.00  0.00    +0.005 A 
ATOM     22  C   UNL     1      -4.056  -2.216  24.080  0.00  0.00    +0.041 A 
ATOM     23  C   UNL     1      -3.276  -1.697  26.306  0.00  0.00    +0.002 A 
ATOM     24  C   UNL     1      -3.441  -2.613  25.268  0.00  0.00    +0.020 A 
ENDBRANCH  18  19
ENDBRANCH   7  18
ENDBRANCH  16   7
ENDBRANCH  14  16
TORSDOF 9
ENDMDL
MODEL 10
REMARK VINA RESULT:      -4.6      3.187      6.202
REMARK  Name = 26744691
REMARK  9 active torsions:
REMARK  status: ('A' for Active; 'I' for Inactive)
REMARK    1  A    between atoms: O_3  and  C_12
REMARK    2  A    between atoms: O_4  and  C_13
REMARK    3  A    between atoms: N_6  and  C_8
REMARK    4  A    between atoms: N_7  and  C_16
REMARK    5  A    between atoms: N_7  and  C_18
REMARK    6  A    between atoms: C_9  and  C_15
REMARK    7  A    between atoms: C_14  and  C_16
REMARK    8  A    between atoms: C_15  and  C_17
REMARK    9  A    between atoms: C_18  and  C_19
REMARK                            x       y       z     vdW  Elec       q    Type
REMARK                         _______ _______ _______ _____ _____    ______ ____
ROOT
ATOM      2  O   UNL     1      -1.091   3.581  23.681  0.00  0.00    -0.366 OA
ATOM      9  C   UNL     1      -0.800   3.598  25.090  0.00  0.00    +0.158 C 
ATOM     12  C   UNL     1      -0.711   2.140  25.509  0.00  0.00    +0.175 C 
ATOM     13  C   UNL     1      -0.088   1.507  24.281  0.00  0.00    +0.175 C 
ATOM     14  C   UNL     1      -0.767   2.275  23.151  0.00  0.00    +0.163 C 
ENDROOT
BRANCH  12   3
ATOM      3  O   UNL     1       0.062   1.971  26.678  0.00  0.00    -0.387 OA
ATOM     26  H   UNL     1       0.995   2.097  26.431  0.00  0.00    +0.210 HD
ENDBRANCH  12   3
BRANCH  13   4
ATOM      4  O   UNL     1       1.310   1.793  24.233  0.00  0.00    -0.387 OA
ATOM     27  H   UNL     1       1.775   1.026  24.609  0.00  0.00    +0.210 HD
ENDBRANCH  13   4
BRANCH   9  15
ATOM     15  C   UNL     1      -1.878   4.371  25.826  0.00  0.00    +0.130 C 
BRANCH  15  17
ATOM      5  O   UNL     1      -3.548   4.525  24.080  0.00  0.00    -0.276 OA
ATOM      6  N   UNL     1      -4.121   3.548  26.106  0.00  0.00    -0.312 N 
ATOM     17  C   UNL     1      -3.255   4.171  25.219  0.00  0.00    +0.216 C 
ATOM     25  H   UNL     1      -3.794   3.294  27.035  0.00  0.00    +0.149 HD
BRANCH   6   8
ATOM      8  C   UNL     1      -5.482   3.246  25.770  0.00  0.00    +0.073 C 
ATOM     10  C   UNL     1      -5.844   1.970  25.069  0.00  0.00    +0.024 C 
ATOM     11  C   UNL     1      -6.244   2.178  26.500  0.00  0.00    +0.024 C 
ENDBRANCH   6   8
ENDBRANCH  15  17
ENDBRANCH   9  15
BRANCH  14  16
ATOM     16  C   UNL     1      -2.063   1.626  22.686  0.00  0.00    +0.115 C 
BRANCH  16   7
ATOM      7  N   UNL     1      -3.059   1.622  23.748  0.00  0.00    -0.309 NA
ATOM     28  H   UNL     1      -2.593   1.486  24.645  0.00  0.00    +0.122 HD
BRANCH   7  18
ATOM     18  C   UNL     1      -4.044   0.570  23.537  0.00  0.00    +0.116 C 
BRANCH  18  19
ATOM      1 CL   UNL     1      -0.112  -2.314  25.375  0.00  0.00    -0.084 Cl
ATOM     19  C   UNL     1      -3.520  -0.779  23.952  0.00  0.00    -0.032 A 
ATOM     20  C   UNL     1      -2.212  -0.907  24.417  0.00  0.00    +0.025 A 
ATOM     21  C   UNL     1      -4.344  -1.902  23.869  0.00  0.00    +0.005 A 
ATOM     22  C   UNL     1      -1.727  -2.157  24.802  0.00  0.00    +0.041 A 
ATOM     23  C   UNL     1      -3.859  -3.151  24.254  0.00  0.00    +0.002 A 
ATOM     24  C   UNL     1      -2.551  -3.280  24.721  0.00  0.00    +0.020 A 
ENDBRANCH  18  19
ENDBRANCH   7  18
ENDBRANCH  16   7
ENDBRANCH  14  16
TORSDOF 9
ENDMDL
