MODEL 1
REMARK VINA RESULT:      -1.4      0.000      0.000
REMARK  Name = 75537043
REMARK  4 active torsions:
REMARK  status: ('A' for Active; 'I' for Inactive)
REMARK    1  A    between atoms: O_5  and  C_23
REMARK    2  A    between atoms: O_5  and  C_28
REMARK    3  A    between atoms: N_7  and  C_16
REMARK    4  A    between atoms: C_16  and  C_18
REMARK                            x       y       z     vdW  Elec       q    Type
REMARK                         _______ _______ _______ _____ _____    ______ ____
ROOT
ATOM      4  O   UNL     1      -0.311  -2.274  22.843  0.00  0.00    -0.252 OA
ATOM      6  N   UNL     1      -1.735  -1.160  24.314  0.00  0.00    -0.278 N 
ATOM      7  N   UNL     1      -4.136  -0.209  25.430  0.00  0.00    -0.295 NA
ATOM      8  N   UNL     1       0.218  -0.142  23.792  0.00  0.00    -0.238 N 
ATOM      9  N   UNL     1       2.071  -0.734  22.409  0.00  0.00    -0.240 NA
ATOM     10  C   UNL     1      -1.700   0.002  25.166  0.00  0.00    +0.109 C 
ATOM     11  C   UNL     1      -3.040   0.735  25.133  0.00  0.00    +0.109 C 
ATOM     12  C   UNL     1      -0.517   0.800  24.630  0.00  0.00    +0.140 C 
ATOM     13  C   UNL     1      -2.851  -2.078  24.417  0.00  0.00    +0.125 C 
ATOM     14  C   UNL     1      -4.171  -1.303  24.439  0.00  0.00    +0.104 C 
ATOM     15  C   UNL     1      -0.561  -1.314  23.559  0.00  0.00    +0.311 C 
ATOM     17  C   UNL     1       1.499   0.161  23.245  0.00  0.00    +0.129 A 
ATOM     19  C   UNL     1       2.080   1.365  23.608  0.00  0.00    +0.044 A 
ATOM     22  C   UNL     1       3.329   1.670  23.079  0.00  0.00    +0.005 A 
ATOM     25  C   UNL     1       3.285  -0.403  21.915  0.00  0.00    +0.113 A 
ATOM     27  C   UNL     1       3.950   0.775  22.215  0.00  0.00    +0.020 A 
ENDROOT
BRANCH   7  16
ATOM     16  C   UNL     1      -5.419   0.494  25.459  0.00  0.00    +0.119 C 
BRANCH  16  18
ATOM     18  C   UNL     1      -5.244   1.985  25.363  0.00  0.00    -0.030 A 
ATOM     20  C   UNL     1      -4.065   2.517  24.840  0.00  0.00    +0.051 A 
ATOM     21  C   UNL     1      -6.261   2.836  25.797  0.00  0.00    +0.005 A 
ATOM     23  C   UNL     1      -3.902   3.899  24.752  0.00  0.00    +0.130 A 
ATOM     24  C   UNL     1      -6.097   4.219  25.708  0.00  0.00    +0.004 A 
ATOM     26  C   UNL     1      -4.918   4.750  25.186  0.00  0.00    +0.046 A 
BRANCH  23   5
ATOM      5  O   UNL     1      -2.751   4.418  24.243  0.00  0.00    -0.406 OA
BRANCH   5  28
ATOM      1  F   UNL     1      -1.443   5.885  25.353  0.00  0.00    -0.133 F 
ATOM      2  F   UNL     1      -0.510   4.077  24.555  0.00  0.00    -0.133 F 
ATOM      3  F   UNL     1      -1.862   3.962  26.300  0.00  0.00    -0.133 F 
ATOM     28  C   UNL     1      -1.636   4.568  25.115  0.00  0.00    +0.575 C 
ENDBRANCH   5  28
ENDBRANCH  23   5
ENDBRANCH  16  18
ENDBRANCH   7  16
TORSDOF 4
ENDMDL
MODEL 2
REMARK VINA RESULT:      -0.1      1.893      2.700
REMARK  Name = 75537043
REMARK  4 active torsions:
REMARK  status: ('A' for Active; 'I' for Inactive)
REMARK    1  A    between atoms: O_5  and  C_23
REMARK    2  A    between atoms: O_5  and  C_28
REMARK    3  A    between atoms: N_7  and  C_16
REMARK    4  A    between atoms: C_16  and  C_18
REMARK                            x       y       z     vdW  Elec       q    Type
REMARK                         _______ _______ _______ _____ _____    ______ ____
ROOT
ATOM      4  O   UNL     1       1.925   2.219  22.958  0.00  0.00    -0.252 OA
ATOM      6  N   UNL     1       0.091   0.796  23.169  0.00  0.00    -0.278 N 
ATOM      7  N   UNL     1      -2.488  -0.077  23.874  0.00  0.00    -0.295 NA
ATOM      8  N   UNL     1       2.146  -0.111  23.459  0.00  0.00    -0.238 N 
ATOM      9  N   UNL     1       4.364   0.763  23.362  0.00  0.00    -0.240 NA
ATOM     10  C   UNL     1      -0.158  -0.618  23.303  0.00  0.00    +0.109 C 
ATOM     11  C   UNL     1      -1.309  -0.871  24.276  0.00  0.00    +0.109 C 
ATOM     12  C   UNL     1       1.190  -1.176  23.746  0.00  0.00    +0.140 C 
ATOM     13  C   UNL     1      -1.022   1.689  22.924  0.00  0.00    +0.125 C 
ATOM     14  C   UNL     1      -2.176   1.366  23.877  0.00  0.00    +0.104 C 
ATOM     15  C   UNL     1       1.462   1.106  23.163  0.00  0.00    +0.311 C 
ATOM     17  C   UNL     1       3.554  -0.301  23.561  0.00  0.00    +0.129 A 
ATOM     19  C   UNL     1       4.007  -1.576  23.860  0.00  0.00    +0.044 A 
ATOM     22  C   UNL     1       5.380  -1.771  23.962  0.00  0.00    +0.005 A 
ATOM     25  C   UNL     1       5.693   0.534  23.469  0.00  0.00    +0.113 A 
ATOM     27  C   UNL     1       6.246  -0.701  23.765  0.00  0.00    +0.020 A 
ENDROOT
BRANCH   7  16
ATOM     16  C   UNL     1      -3.616  -0.356  24.763  0.00  0.00    +0.119 C 
BRANCH  16  18
ATOM     18  C   UNL     1      -4.355   0.898  25.143  0.00  0.00    -0.030 A 
ATOM     20  C   UNL     1      -3.646   2.047  25.492  0.00  0.00    +0.051 A 
ATOM     21  C   UNL     1      -5.750   0.911  25.148  0.00  0.00    +0.005 A 
ATOM     23  C   UNL     1      -4.331   3.210  25.846  0.00  0.00    +0.130 A 
ATOM     24  C   UNL     1      -6.435   2.074  25.502  0.00  0.00    +0.004 A 
ATOM     26  C   UNL     1      -5.726   3.223  25.851  0.00  0.00    +0.046 A 
BRANCH  23   5
ATOM      5  O   UNL     1      -3.638   4.330  26.187  0.00  0.00    -0.406 OA
BRANCH   5  28
ATOM      1  F   UNL     1      -2.561   4.382  24.204  0.00  0.00    -0.133 F 
ATOM      2  F   UNL     1      -1.438   3.744  25.967  0.00  0.00    -0.133 F 
ATOM      3  F   UNL     1      -2.010   5.864  25.712  0.00  0.00    -0.133 F 
ATOM     28  C   UNL     1      -2.401   4.584  25.532  0.00  0.00    +0.575 C 
ENDBRANCH   5  28
ENDBRANCH  23   5
ENDBRANCH  16  18
ENDBRANCH   7  16
TORSDOF 4
ENDMDL
