MODEL 1
REMARK VINA RESULT:       0.5      0.000      0.000
REMARK  Name = 7134606
REMARK  15 active torsions:
REMARK  status: ('A' for Active; 'I' for Inactive)
REMARK    1  A    between atoms: S_1  and  C_25
REMARK    2  A    between atoms: S_1  and  C_34
REMARK    3  A    between atoms: O_6  and  C_28
REMARK    4  A    between atoms: O_8  and  C_33
REMARK    5  A    between atoms: O_8  and  C_35
REMARK    6  A    between atoms: N_10  and  C_13
REMARK    7  A    between atoms: N_11  and  C_21
REMARK    8  A    between atoms: C_14  and  C_18
REMARK    9  A    between atoms: C_19  and  C_20
REMARK   10  A    between atoms: C_20  and  C_24
REMARK   11  A    between atoms: C_21  and  C_23
REMARK   12  A    between atoms: C_21  and  C_26
REMARK   13  A    between atoms: C_22  and  C_25
REMARK   14  A    between atoms: C_23  and  C_27
REMARK   15  A    between atoms: C_24  and  C_28
REMARK                            x       y       z     vdW  Elec       q    Type
REMARK                         _______ _______ _______ _____ _____    ______ ____
ROOT
ATOM      3  O   UNL     1      -2.860   4.569  26.819  0.00  0.00    -0.276 OA
ATOM      9  N   UNL     1      -1.975   3.248  25.117  0.00  0.00    -0.290 N 
ATOM     13  C   UNL     1       0.189   1.530  24.172  0.00  0.00    +0.077 C 
ATOM     14  C   UNL     1      -1.982   2.804  23.713  0.00  0.00    +0.164 C 
ATOM     15  C   UNL     1      -0.595   2.415  23.198  0.00  0.00    +0.054 C 
ATOM     16  C   UNL     1       0.212   2.165  25.562  0.00  0.00    +0.041 C 
ATOM     17  C   UNL     1      -1.203   2.431  26.060  0.00  0.00    +0.110 C 
ATOM     19  C   UNL     1      -2.767   4.287  25.620  0.00  0.00    +0.217 C 
ENDROOT
BRANCH  14  18
ATOM      2  O   UNL     1      -2.879   0.817  22.736  0.00  0.00    -0.274 OA
ATOM     11  N   UNL     1      -3.926   1.724  24.606  0.00  0.00    -0.302 N 
ATOM     18  C   UNL     1      -2.958   1.667  23.619  0.00  0.00    +0.234 C 
ATOM     37  H   UNL     1      -3.887   2.456  25.309  0.00  0.00    +0.150 HD
BRANCH  11  21
ATOM     21  C   UNL     1      -4.996   0.759  24.723  0.00  0.00    +0.163 C 
BRANCH  21  26
ATOM      5  O   UNL     1      -7.011   2.020  24.219  0.00  0.00    -0.274 OA
ATOM     12  N   UNL     1      -6.507   1.586  26.418  0.00  0.00    -0.328 N 
ATOM     26  C   UNL     1      -6.261   1.533  25.062  0.00  0.00    +0.231 C 
ATOM     38  H   UNL     1      -5.881   1.176  27.103  0.00  0.00    +0.145 HD
ATOM     39  H   UNL     1      -7.328   2.059  26.780  0.00  0.00    +0.145 HD
ENDBRANCH  21  26
BRANCH  21  23
ATOM     23  C   UNL     1      -4.711  -0.296  25.796  0.00  0.00    +0.067 C 
BRANCH  23  27
ATOM     27  C   UNL     1      -3.443  -1.070  25.533  0.00  0.00    -0.045 A 
ATOM     29  C   UNL     1      -2.241  -0.657  26.108  0.00  0.00    +0.007 A 
ATOM     30  C   UNL     1      -3.472  -2.200  24.714  0.00  0.00    +0.007 A 
ATOM     31  C   UNL     1      -1.069  -1.372  25.864  0.00  0.00    +0.046 A 
ATOM     32  C   UNL     1      -2.299  -2.915  24.470  0.00  0.00    +0.046 A 
ATOM     33  C   UNL     1      -1.098  -2.501  25.045  0.00  0.00    +0.120 A 
BRANCH  33   8
ATOM      8  O   UNL     1       0.046  -3.199  24.806  0.00  0.00    -0.495 OA
ATOM     35  C   UNL     1       1.261  -2.647  25.310  0.00  0.00    +0.277 C 
ENDBRANCH  33   8
ENDBRANCH  23  27
ENDBRANCH  21  23
ENDBRANCH  11  21
ENDBRANCH  14  18
BRANCH  13  10
ATOM      4  O   UNL     1       1.067  -0.505  22.313  0.00  0.00    -0.275 OA
ATOM     10  N   UNL     1       1.532   1.304  23.695  0.00  0.00    -0.312 N 
ATOM     22  C   UNL     1       1.861   0.299  22.799  0.00  0.00    +0.223 C 
ATOM     36  H   UNL     1       2.253   1.954  23.995  0.00  0.00    +0.149 HD
BRANCH  22  25
ATOM     25  C   UNL     1       3.334   0.260  22.470  0.00  0.00    +0.164 C 
BRANCH  25   1
ATOM      1  S   UNL     1       4.156  -0.897  23.592  0.00  0.00    -0.155 S 
ATOM     34  C   UNL     1       5.626   0.087  23.964  0.00  0.00    +0.085 C 
ENDBRANCH  25   1
ENDBRANCH  22  25
ENDBRANCH  13  10
BRANCH  19  20
ATOM     20  C   UNL     1      -3.534   5.107  24.613  0.00  0.00    +0.107 C 
BRANCH  20  24
ATOM     24  C   UNL     1      -4.878   4.460  24.342  0.00  0.00    +0.129 C 
BRANCH  24  28
ATOM      7  O   UNL     1      -6.629   5.733  25.417  0.00  0.00    -0.251 OA
ATOM     28  C   UNL     1      -5.866   4.775  25.438  0.00  0.00    +0.305 C 
BRANCH  28   6
ATOM      6  O   UNL     1      -5.801   3.895  26.468  0.00  0.00    -0.481 OA
ATOM     40  H   UNL     1      -6.307   4.208  27.248  0.00  0.00    +0.295 HD
ENDBRANCH  28   6
ENDBRANCH  24  28
ENDBRANCH  20  24
ENDBRANCH  19  20
TORSDOF 13
ENDMDL
MODEL 2
REMARK VINA RESULT:       0.8      1.506      2.187
REMARK  Name = 7134606
REMARK  15 active torsions:
REMARK  status: ('A' for Active; 'I' for Inactive)
REMARK    1  A    between atoms: S_1  and  C_25
REMARK    2  A    between atoms: S_1  and  C_34
REMARK    3  A    between atoms: O_6  and  C_28
REMARK    4  A    between atoms: O_8  and  C_33
REMARK    5  A    between atoms: O_8  and  C_35
REMARK    6  A    between atoms: N_10  and  C_13
REMARK    7  A    between atoms: N_11  and  C_21
REMARK    8  A    between atoms: C_14  and  C_18
REMARK    9  A    between atoms: C_19  and  C_20
REMARK   10  A    between atoms: C_20  and  C_24
REMARK   11  A    between atoms: C_21  and  C_23
REMARK   12  A    between atoms: C_21  and  C_26
REMARK   13  A    between atoms: C_22  and  C_25
REMARK   14  A    between atoms: C_23  and  C_27
REMARK   15  A    between atoms: C_24  and  C_28
REMARK                            x       y       z     vdW  Elec       q    Type
REMARK                         _______ _______ _______ _____ _____    ______ ____
ROOT
ATOM      3  O   UNL     1      -2.379   3.788  27.084  0.00  0.00    -0.276 OA
ATOM      9  N   UNL     1      -1.880   2.607  25.140  0.00  0.00    -0.290 N 
ATOM     13  C   UNL     1      -0.323   0.509  23.836  0.00  0.00    +0.077 C 
ATOM     14  C   UNL     1      -1.964   2.466  23.677  0.00  0.00    +0.164 C 
ATOM     15  C   UNL     1      -0.747   1.765  23.069  0.00  0.00    +0.054 C 
ATOM     16  C   UNL     1      -0.163   0.826  25.322  0.00  0.00    +0.041 C 
ATOM     17  C   UNL     1      -1.444   1.424  25.890  0.00  0.00    +0.110 C 
ATOM     19  C   UNL     1      -2.327   3.726  25.852  0.00  0.00    +0.217 C 
ENDROOT
BRANCH  14  18
ATOM      2  O   UNL     1      -3.468   1.245  22.278  0.00  0.00    -0.274 OA
ATOM     11  N   UNL     1      -4.098   1.716  24.469  0.00  0.00    -0.302 N 
ATOM     18  C   UNL     1      -3.242   1.736  23.382  0.00  0.00    +0.234 C 
ATOM     37  H   UNL     1      -3.804   2.129  25.349  0.00  0.00    +0.150 HD
BRANCH  11  21
ATOM     21  C   UNL     1      -5.403   1.095  24.438  0.00  0.00    +0.163 C 
BRANCH  21  26
ATOM      5  O   UNL     1      -7.571   2.171  24.656  0.00  0.00    -0.274 OA
ATOM     12  N   UNL     1      -5.840   2.908  25.974  0.00  0.00    -0.328 N 
ATOM     26  C   UNL     1      -6.393   2.105  24.999  0.00  0.00    +0.231 C 
ATOM     38  H   UNL     1      -4.867   2.841  26.251  0.00  0.00    +0.145 HD
ATOM     39  H   UNL     1      -6.397   3.616  26.442  0.00  0.00    +0.145 HD
ENDBRANCH  21  26
BRANCH  21  23
ATOM     23  C   UNL     1      -5.447  -0.204  25.250  0.00  0.00    +0.067 C 
BRANCH  23  27
ATOM     27  C   UNL     1      -4.174  -1.007  25.138  0.00  0.00    -0.045 A 
ATOM     29  C   UNL     1      -3.253  -1.004  26.185  0.00  0.00    +0.007 A 
ATOM     30  C   UNL     1      -3.918  -1.752  23.986  0.00  0.00    +0.007 A 
ATOM     31  C   UNL     1      -2.076  -1.746  26.081  0.00  0.00    +0.046 A 
ATOM     32  C   UNL     1      -2.742  -2.494  23.882  0.00  0.00    +0.046 A 
ATOM     33  C   UNL     1      -1.821  -2.491  24.929  0.00  0.00    +0.120 A 
BRANCH  33   8
ATOM      8  O   UNL     1      -0.672  -3.214  24.827  0.00  0.00    -0.495 OA
ATOM     35  C   UNL     1       0.447  -2.766  25.590  0.00  0.00    +0.277 C 
ENDBRANCH  33   8
ENDBRANCH  23  27
ENDBRANCH  21  23
ENDBRANCH  11  21
ENDBRANCH  14  18
BRANCH  13  10
ATOM      4  O   UNL     1       2.212   1.871  23.533  0.00  0.00    -0.275 OA
ATOM     10  N   UNL     1       0.900  -0.033  23.297  0.00  0.00    -0.312 N 
ATOM     22  C   UNL     1       2.073   0.698  23.189  0.00  0.00    +0.223 C 
ATOM     36  H   UNL     1       0.905  -1.015  23.036  0.00  0.00    +0.149 HD
BRANCH  22  25
ATOM     25  C   UNL     1       3.206  -0.090  22.577  0.00  0.00    +0.164 C 
BRANCH  25   1
ATOM      1  S   UNL     1       4.777   0.642  23.095  0.00  0.00    -0.155 S 
ATOM     34  C   UNL     1       5.381  -0.717  24.123  0.00  0.00    +0.085 C 
ENDBRANCH  25   1
ENDBRANCH  22  25
ENDBRANCH  13  10
BRANCH  19  20
ATOM     20  C   UNL     1      -2.755   4.923  25.040  0.00  0.00    +0.107 C 
BRANCH  20  24
ATOM     24  C   UNL     1      -1.589   5.878  24.880  0.00  0.00    +0.129 C 
BRANCH  24  28
ATOM      7  O   UNL     1       0.069   5.143  23.282  0.00  0.00    -0.251 OA
ATOM     28  C   UNL     1      -0.345   5.149  24.435  0.00  0.00    +0.305 C 
BRANCH  28   6
ATOM      6  O   UNL     1       0.257   4.477  25.448  0.00  0.00    -0.481 OA
ATOM     40  H   UNL     1      -0.336   3.803  25.842  0.00  0.00    +0.295 HD
ENDBRANCH  28   6
ENDBRANCH  24  28
ENDBRANCH  20  24
ENDBRANCH  19  20
TORSDOF 13
ENDMDL
MODEL 3
REMARK VINA RESULT:       1.4      2.662      7.321
REMARK  Name = 7134606
REMARK  15 active torsions:
REMARK  status: ('A' for Active; 'I' for Inactive)
REMARK    1  A    between atoms: S_1  and  C_25
REMARK    2  A    between atoms: S_1  and  C_34
REMARK    3  A    between atoms: O_6  and  C_28
REMARK    4  A    between atoms: O_8  and  C_33
REMARK    5  A    between atoms: O_8  and  C_35
REMARK    6  A    between atoms: N_10  and  C_13
REMARK    7  A    between atoms: N_11  and  C_21
REMARK    8  A    between atoms: C_14  and  C_18
REMARK    9  A    between atoms: C_19  and  C_20
REMARK   10  A    between atoms: C_20  and  C_24
REMARK   11  A    between atoms: C_21  and  C_23
REMARK   12  A    between atoms: C_21  and  C_26
REMARK   13  A    between atoms: C_22  and  C_25
REMARK   14  A    between atoms: C_23  and  C_27
REMARK   15  A    between atoms: C_24  and  C_28
REMARK                            x       y       z     vdW  Elec       q    Type
REMARK                         _______ _______ _______ _____ _____    ______ ____
ROOT
ATOM      3  O   UNL     1       3.445  -1.700  23.486  0.00  0.00    -0.276 OA
ATOM      9  N   UNL     1       1.466  -0.474  23.480  0.00  0.00    -0.290 N 
ATOM     13  C   UNL     1      -1.390  -0.359  24.080  0.00  0.00    +0.077 C 
ATOM     14  C   UNL     1       0.693   0.698  23.036  0.00  0.00    +0.164 C 
ATOM     15  C   UNL     1      -0.804   0.414  22.895  0.00  0.00    +0.054 C 
ATOM     16  C   UNL     1      -0.557  -1.609  24.359  0.00  0.00    +0.041 C 
ATOM     17  C   UNL     1       0.904  -1.247  24.593  0.00  0.00    +0.110 C 
ATOM     19  C   UNL     1       2.747  -0.797  23.017  0.00  0.00    +0.217 C 
ENDROOT
BRANCH  14  18
ATOM      2  O   UNL     1       2.070   1.937  24.544  0.00  0.00    -0.274 OA
ATOM     11  N   UNL     1      -0.145   2.587  24.249  0.00  0.00    -0.302 N 
ATOM     18  C   UNL     1       0.969   1.800  24.017  0.00  0.00    +0.234 C 
ATOM     37  H   UNL     1      -1.004   2.406  23.740  0.00  0.00    +0.150 HD
BRANCH  11  21
ATOM     21  C   UNL     1      -0.149   3.701  25.170  0.00  0.00    +0.163 C 
BRANCH  21  26
ATOM      5  O   UNL     1      -1.274   3.020  27.213  0.00  0.00    -0.274 OA
ATOM     12  N   UNL     1       0.990   2.671  27.036  0.00  0.00    -0.328 N 
ATOM     26  C   UNL     1      -0.229   3.121  26.574  0.00  0.00    +0.231 C 
ATOM     38  H   UNL     1       1.844   2.758  26.497  0.00  0.00    +0.145 HD
ATOM     39  H   UNL     1       1.074   2.247  27.954  0.00  0.00    +0.145 HD
ENDBRANCH  21  26
BRANCH  21  23
ATOM     23  C   UNL     1      -1.321   4.657  24.918  0.00  0.00    +0.067 C 
BRANCH  23  27
ATOM     27  C   UNL     1      -2.660   3.962  24.957  0.00  0.00    -0.045 A 
ATOM     29  C   UNL     1      -3.490   4.111  26.067  0.00  0.00    +0.007 A 
ATOM     30  C   UNL     1      -3.067   3.171  23.882  0.00  0.00    +0.007 A 
ATOM     31  C   UNL     1      -4.728   3.469  26.104  0.00  0.00    +0.046 A 
ATOM     32  C   UNL     1      -4.305   2.529  23.918  0.00  0.00    +0.046 A 
ATOM     33  C   UNL     1      -5.135   2.678  25.029  0.00  0.00    +0.120 A 
BRANCH  33   8
ATOM      8  O   UNL     1      -6.342   2.050  25.064  0.00  0.00    -0.495 OA
ATOM     35  C   UNL     1      -6.776   1.546  26.326  0.00  0.00    +0.277 C 
ENDBRANCH  33   8
ENDBRANCH  23  27
ENDBRANCH  21  23
ENDBRANCH  11  21
ENDBRANCH  14  18
BRANCH  13  10
ATOM      4  O   UNL     1      -3.536  -0.496  26.015  0.00  0.00    -0.275 OA
ATOM     10  N   UNL     1      -2.767  -0.710  23.833  0.00  0.00    -0.312 N 
ATOM     22  C   UNL     1      -3.731  -0.750  24.828  0.00  0.00    +0.223 C 
ATOM     36  H   UNL     1      -3.044  -0.882  22.870  0.00  0.00    +0.149 HD
BRANCH  22  25
ATOM     25  C   UNL     1      -5.091  -1.163  24.317  0.00  0.00    +0.164 C 
BRANCH  25   1
ATOM      1  S   UNL     1      -4.941  -2.752  23.466  0.00  0.00    -0.155 S 
ATOM     34  C   UNL     1      -3.578  -3.446  24.430  0.00  0.00    +0.085 C 
ENDBRANCH  25   1
ENDBRANCH  22  25
ENDBRANCH  13  10
BRANCH  19  20
ATOM     20  C   UNL     1       3.279   0.017  21.864  0.00  0.00    +0.107 C 
BRANCH  20  24
ATOM     24  C   UNL     1       4.267   1.046  22.375  0.00  0.00    +0.129 C 
BRANCH  24  28
ATOM      7  O   UNL     1       6.232  -0.252  22.922  0.00  0.00    -0.251 OA
ATOM     28  C   UNL     1       5.279   0.417  23.301  0.00  0.00    +0.305 C 
BRANCH  28   6
ATOM      6  O   UNL     1       5.005   0.652  24.609  0.00  0.00    -0.481 OA
ATOM     40  H   UNL     1       4.880  -0.181  25.111  0.00  0.00    +0.295 HD
ENDBRANCH  28   6
ENDBRANCH  24  28
ENDBRANCH  20  24
ENDBRANCH  19  20
TORSDOF 13
ENDMDL
MODEL 4
REMARK VINA RESULT:       2.0      2.542      6.983
REMARK  Name = 7134606
REMARK  15 active torsions:
REMARK  status: ('A' for Active; 'I' for Inactive)
REMARK    1  A    between atoms: S_1  and  C_25
REMARK    2  A    between atoms: S_1  and  C_34
REMARK    3  A    between atoms: O_6  and  C_28
REMARK    4  A    between atoms: O_8  and  C_33
REMARK    5  A    between atoms: O_8  and  C_35
REMARK    6  A    between atoms: N_10  and  C_13
REMARK    7  A    between atoms: N_11  and  C_21
REMARK    8  A    between atoms: C_14  and  C_18
REMARK    9  A    between atoms: C_19  and  C_20
REMARK   10  A    between atoms: C_20  and  C_24
REMARK   11  A    between atoms: C_21  and  C_23
REMARK   12  A    between atoms: C_21  and  C_26
REMARK   13  A    between atoms: C_22  and  C_25
REMARK   14  A    between atoms: C_23  and  C_27
REMARK   15  A    between atoms: C_24  and  C_28
REMARK                            x       y       z     vdW  Elec       q    Type
REMARK                         _______ _______ _______ _____ _____    ______ ____
ROOT
ATOM      3  O   UNL     1       1.224  -0.423  21.285  0.00  0.00    -0.276 OA
ATOM      9  N   UNL     1       0.211   0.479  23.178  0.00  0.00    -0.290 N 
ATOM     13  C   UNL     1      -1.598   2.465  24.322  0.00  0.00    +0.077 C 
ATOM     14  C   UNL     1       0.127   0.602  24.642  0.00  0.00    +0.164 C 
ATOM     15  C   UNL     1      -0.376   1.972  25.103  0.00  0.00    +0.054 C 
ATOM     16  C   UNL     1      -1.332   2.389  22.820  0.00  0.00    +0.041 C 
ATOM     17  C   UNL     1      -0.936   0.976  22.410  0.00  0.00    +0.110 C 
ATOM     19  C   UNL     1       1.227  -0.206  22.500  0.00  0.00    +0.217 C 
ENDROOT
BRANCH  14  18
ATOM      2  O   UNL     1      -0.340  -1.378  25.893  0.00  0.00    -0.274 OA
ATOM     11  N   UNL     1      -2.026  -0.447  24.588  0.00  0.00    -0.302 N 
ATOM     18  C   UNL     1      -0.753  -0.514  25.125  0.00  0.00    +0.234 C 
ATOM     37  H   UNL     1      -2.277   0.326  23.980  0.00  0.00    +0.150 HD
BRANCH  11  21
ATOM     21  C   UNL     1      -3.058  -1.418  24.876  0.00  0.00    +0.163 C 
BRANCH  21  26
ATOM      5  O   UNL     1      -1.479  -2.944  23.836  0.00  0.00    -0.274 OA
ATOM     12  N   UNL     1      -3.589  -3.710  24.323  0.00  0.00    -0.328 N 
ATOM     26  C   UNL     1      -2.609  -2.741  24.275  0.00  0.00    +0.231 C 
ATOM     38  H   UNL     1      -4.517  -3.530  24.692  0.00  0.00    +0.145 HD
ATOM     39  H   UNL     1      -3.415  -4.645  23.969  0.00  0.00    +0.145 HD
ENDBRANCH  21  26
BRANCH  21  23
ATOM     23  C   UNL     1      -4.418  -1.005  24.302  0.00  0.00    +0.067 C 
BRANCH  23  27
ATOM     27  C   UNL     1      -4.859   0.361  24.767  0.00  0.00    -0.045 A 
ATOM     29  C   UNL     1      -5.450   0.514  26.021  0.00  0.00    +0.007 A 
ATOM     30  C   UNL     1      -4.675   1.472  23.943  0.00  0.00    +0.007 A 
ATOM     31  C   UNL     1      -5.858   1.776  26.451  0.00  0.00    +0.046 A 
ATOM     32  C   UNL     1      -5.083   2.734  24.373  0.00  0.00    +0.046 A 
ATOM     33  C   UNL     1      -5.674   2.887  25.627  0.00  0.00    +0.120 A 
BRANCH  33   8
ATOM      8  O   UNL     1      -6.073   4.119  26.046  0.00  0.00    -0.495 OA
ATOM     35  C   UNL     1      -6.035   5.175  25.088  0.00  0.00    +0.277 C 
ENDBRANCH  33   8
ENDBRANCH  23  27
ENDBRANCH  21  23
ENDBRANCH  11  21
ENDBRANCH  14  18
BRANCH  13  10
ATOM      4  O   UNL     1      -2.686   3.332  26.859  0.00  0.00    -0.275 OA
ATOM     10  N   UNL     1      -1.946   3.810  24.709  0.00  0.00    -0.312 N 
ATOM     22  C   UNL     1      -2.465   4.133  25.953  0.00  0.00    +0.223 C 
ATOM     36  H   UNL     1      -1.747   4.556  24.049  0.00  0.00    +0.149 HD
BRANCH  22  25
ATOM     25  C   UNL     1      -2.763   5.606  26.105  0.00  0.00    +0.164 C 
BRANCH  25   1
ATOM      1  S   UNL     1      -2.045   6.497  24.704  0.00  0.00    -0.155 S 
ATOM     34  C   UNL     1      -0.420   5.705  24.685  0.00  0.00    +0.085 C 
ENDBRANCH  25   1
ENDBRANCH  22  25
ENDBRANCH  13  10
BRANCH  19  20
ATOM     20  C   UNL     1       2.392  -0.688  23.328  0.00  0.00    +0.107 C 
BRANCH  20  24
ATOM     24  C   UNL     1       3.686  -0.142  22.760  0.00  0.00    +0.129 C 
BRANCH  24  28
ATOM      7  O   UNL     1       5.445   0.772  24.143  0.00  0.00    -0.251 OA
ATOM     28  C   UNL     1       4.797  -0.202  23.779  0.00  0.00    +0.305 C 
BRANCH  28   6
ATOM      6  O   UNL     1       5.021  -1.460  24.233  0.00  0.00    -0.481 OA
ATOM     40  H   UNL     1       4.496  -1.657  25.038  0.00  0.00    +0.295 HD
ENDBRANCH  28   6
ENDBRANCH  24  28
ENDBRANCH  20  24
ENDBRANCH  19  20
TORSDOF 13
ENDMDL
MODEL 5
REMARK VINA RESULT:       2.4      2.104      5.543
REMARK  Name = 7134606
REMARK  15 active torsions:
REMARK  status: ('A' for Active; 'I' for Inactive)
REMARK    1  A    between atoms: S_1  and  C_25
REMARK    2  A    between atoms: S_1  and  C_34
REMARK    3  A    between atoms: O_6  and  C_28
REMARK    4  A    between atoms: O_8  and  C_33
REMARK    5  A    between atoms: O_8  and  C_35
REMARK    6  A    between atoms: N_10  and  C_13
REMARK    7  A    between atoms: N_11  and  C_21
REMARK    8  A    between atoms: C_14  and  C_18
REMARK    9  A    between atoms: C_19  and  C_20
REMARK   10  A    between atoms: C_20  and  C_24
REMARK   11  A    between atoms: C_21  and  C_23
REMARK   12  A    between atoms: C_21  and  C_26
REMARK   13  A    between atoms: C_22  and  C_25
REMARK   14  A    between atoms: C_23  and  C_27
REMARK   15  A    between atoms: C_24  and  C_28
REMARK                            x       y       z     vdW  Elec       q    Type
REMARK                         _______ _______ _______ _____ _____    ______ ____
ROOT
ATOM      3  O   UNL     1      -4.031  -0.301  23.494  0.00  0.00    -0.276 OA
ATOM      9  N   UNL     1      -1.863   0.369  24.019  0.00  0.00    -0.290 N 
ATOM     13  C   UNL     1       0.919   0.663  23.183  0.00  0.00    +0.077 C 
ATOM     14  C   UNL     1      -0.861   0.777  25.017  0.00  0.00    +0.164 C 
ATOM     15  C   UNL     1       0.564   0.365  24.642  0.00  0.00    +0.054 C 
ATOM     16  C   UNL     1      -0.145   0.086  22.251  0.00  0.00    +0.041 C 
ATOM     17  C   UNL     1      -1.527   0.616  22.612  0.00  0.00    +0.110 C 
ATOM     19  C   UNL     1      -3.149  -0.087  24.331  0.00  0.00    +0.217 C 
ENDROOT
BRANCH  14  18
ATOM      2  O   UNL     1      -0.751   2.817  26.256  0.00  0.00    -0.274 OA
ATOM     11  N   UNL     1      -1.427   2.886  24.030  0.00  0.00    -0.302 N 
ATOM     18  C   UNL     1      -0.993   2.263  25.186  0.00  0.00    +0.234 C 
ATOM     37  H   UNL     1      -1.573   2.339  23.187  0.00  0.00    +0.150 HD
BRANCH  11  21
ATOM     21  C   UNL     1      -1.656   4.310  23.936  0.00  0.00    +0.163 C 
BRANCH  21  26
ATOM      5  O   UNL     1       0.084   5.730  24.865  0.00  0.00    -0.274 OA
ATOM     12  N   UNL     1       0.500   4.632  22.892  0.00  0.00    -0.328 N 
ATOM     26  C   UNL     1      -0.292   4.985  23.963  0.00  0.00    +0.231 C 
ATOM     38  H   UNL     1       0.179   4.012  22.155  0.00  0.00    +0.145 HD
ATOM     39  H   UNL     1       1.441   4.999  22.796  0.00  0.00    +0.145 HD
ENDBRANCH  21  26
BRANCH  21  23
ATOM     23  C   UNL     1      -2.534   4.833  25.078  0.00  0.00    +0.067 C 
BRANCH  23  27
ATOM     27  C   UNL     1      -3.714   3.937  25.365  0.00  0.00    -0.045 A 
ATOM     29  C   UNL     1      -4.124   3.724  26.680  0.00  0.00    +0.007 A 
ATOM     30  C   UNL     1      -4.394   3.322  24.313  0.00  0.00    +0.007 A 
ATOM     31  C   UNL     1      -5.215   2.896  26.946  0.00  0.00    +0.046 A 
ATOM     32  C   UNL     1      -5.485   2.494  24.579  0.00  0.00    +0.046 A 
ATOM     33  C   UNL     1      -5.895   2.281  25.894  0.00  0.00    +0.120 A 
BRANCH  33   8
ATOM      8  O   UNL     1      -6.959   1.472  26.153  0.00  0.00    -0.495 OA
ATOM     35  C   UNL     1      -7.165   1.083  27.510  0.00  0.00    +0.277 C 
ENDBRANCH  33   8
ENDBRANCH  23  27
ENDBRANCH  21  23
ENDBRANCH  11  21
ENDBRANCH  14  18
BRANCH  13  10
ATOM      4  O   UNL     1       3.386   2.147  22.894  0.00  0.00    -0.275 OA
ATOM     10  N   UNL     1       2.222   0.137  22.854  0.00  0.00    -0.312 N 
ATOM     22  C   UNL     1       3.354   0.928  22.735  0.00  0.00    +0.223 C 
ATOM     36  H   UNL     1       2.312  -0.871  22.759  0.00  0.00    +0.149 HD
BRANCH  22  25
ATOM     25  C   UNL     1       4.589   0.142  22.366  0.00  0.00    +0.164 C 
BRANCH  25   1
ATOM      1  S   UNL     1       5.473  -0.307  23.879  0.00  0.00    -0.155 S 
ATOM     34  C   UNL     1       4.819  -1.979  24.088  0.00  0.00    +0.085 C 
ENDBRANCH  25   1
ENDBRANCH  22  25
ENDBRANCH  13  10
BRANCH  19  20
ATOM     20  C   UNL     1      -3.445  -0.339  25.789  0.00  0.00    +0.107 C 
BRANCH  20  24
ATOM     24  C   UNL     1      -3.252  -1.808  26.106  0.00  0.00    +0.129 C 
BRANCH  24  28
ATOM      7  O   UNL     1      -1.677  -2.739  24.527  0.00  0.00    -0.251 OA
ATOM     28  C   UNL     1      -2.839  -2.581  24.878  0.00  0.00    +0.305 C 
BRANCH  28   6
ATOM      6  O   UNL     1      -3.900  -3.065  24.185  0.00  0.00    -0.481 OA
ATOM     40  H   UNL     1      -4.601  -3.405  24.780  0.00  0.00    +0.295 HD
ENDBRANCH  28   6
ENDBRANCH  24  28
ENDBRANCH  20  24
ENDBRANCH  19  20
TORSDOF 13
ENDMDL
MODEL 6
REMARK VINA RESULT:       2.5      2.009      5.455
REMARK  Name = 7134606
REMARK  15 active torsions:
REMARK  status: ('A' for Active; 'I' for Inactive)
REMARK    1  A    between atoms: S_1  and  C_25
REMARK    2  A    between atoms: S_1  and  C_34
REMARK    3  A    between atoms: O_6  and  C_28
REMARK    4  A    between atoms: O_8  and  C_33
REMARK    5  A    between atoms: O_8  and  C_35
REMARK    6  A    between atoms: N_10  and  C_13
REMARK    7  A    between atoms: N_11  and  C_21
REMARK    8  A    between atoms: C_14  and  C_18
REMARK    9  A    between atoms: C_19  and  C_20
REMARK   10  A    between atoms: C_20  and  C_24
REMARK   11  A    between atoms: C_21  and  C_23
REMARK   12  A    between atoms: C_21  and  C_26
REMARK   13  A    between atoms: C_22  and  C_25
REMARK   14  A    between atoms: C_23  and  C_27
REMARK   15  A    between atoms: C_24  and  C_28
REMARK                            x       y       z     vdW  Elec       q    Type
REMARK                         _______ _______ _______ _____ _____    ______ ____
ROOT
ATOM      3  O   UNL     1      -1.385  -2.632  23.649  0.00  0.00    -0.276 OA
ATOM      9  N   UNL     1      -0.096  -0.696  23.774  0.00  0.00    -0.290 N 
ATOM     13  C   UNL     1       2.300   0.753  22.948  0.00  0.00    +0.077 C 
ATOM     14  C   UNL     1       0.216   0.588  24.423  0.00  0.00    +0.164 C 
ATOM     15  C   UNL     1       1.698   0.959  24.341  0.00  0.00    +0.054 C 
ATOM     16  C   UNL     1       1.998  -0.657  22.444  0.00  0.00    +0.041 C 
ATOM     17  C   UNL     1       0.498  -0.926  22.452  0.00  0.00    +0.110 C 
ATOM     19  C   UNL     1      -1.027  -1.621  24.262  0.00  0.00    +0.217 C 
ENDROOT
BRANCH  14  18
ATOM      2  O   UNL     1      -1.245   1.415  22.723  0.00  0.00    -0.274 OA
ATOM     11  N   UNL     1      -0.698   2.801  24.511  0.00  0.00    -0.302 N 
ATOM     18  C   UNL     1      -0.661   1.625  23.784  0.00  0.00    +0.234 C 
ATOM     37  H   UNL     1      -0.199   2.865  25.393  0.00  0.00    +0.150 HD
BRANCH  11  21
ATOM     21  C   UNL     1      -1.452   3.964  24.098  0.00  0.00    +0.163 C 
BRANCH  21  26
ATOM      5  O   UNL     1      -2.073   5.910  25.414  0.00  0.00    -0.274 OA
ATOM     12  N   UNL     1      -2.040   3.855  26.440  0.00  0.00    -0.328 N 
ATOM     26  C   UNL     1      -1.867   4.700  25.364  0.00  0.00    +0.231 C 
ATOM     38  H   UNL     1      -1.870   2.857  26.384  0.00  0.00    +0.145 HD
ATOM     39  H   UNL     1      -2.332   4.215  27.343  0.00  0.00    +0.145 HD
ENDBRANCH  21  26
BRANCH  21  23
ATOM     23  C   UNL     1      -2.685   3.591  23.268  0.00  0.00    +0.067 C 
BRANCH  23  27
ATOM     27  C   UNL     1      -3.848   3.141  24.118  0.00  0.00    -0.045 A 
ATOM     29  C   UNL     1      -4.147   1.783  24.227  0.00  0.00    +0.007 A 
ATOM     30  C   UNL     1      -4.623   4.083  24.795  0.00  0.00    +0.007 A 
ATOM     31  C   UNL     1      -5.223   1.367  25.012  0.00  0.00    +0.046 A 
ATOM     32  C   UNL     1      -5.698   3.667  25.580  0.00  0.00    +0.046 A 
ATOM     33  C   UNL     1      -5.998   2.309  25.689  0.00  0.00    +0.120 A 
BRANCH  33   8
ATOM      8  O   UNL     1      -7.048   1.904  26.454  0.00  0.00    -0.495 OA
ATOM     35  C   UNL     1      -6.742   1.185  27.648  0.00  0.00    +0.277 C 
ENDBRANCH  33   8
ENDBRANCH  23  27
ENDBRANCH  21  23
ENDBRANCH  11  21
ENDBRANCH  14  18
BRANCH  13  10
ATOM      4  O   UNL     1       4.370  -1.042  23.881  0.00  0.00    -0.275 OA
ATOM     10  N   UNL     1       3.723   0.993  22.963  0.00  0.00    -0.312 N 
ATOM     22  C   UNL     1       4.645   0.070  23.432  0.00  0.00    +0.223 C 
ATOM     36  H   UNL     1       4.058   1.863  22.559  0.00  0.00    +0.149 HD
BRANCH  22  25
ATOM     25  C   UNL     1       6.069   0.567  23.358  0.00  0.00    +0.164 C 
BRANCH  25   1
ATOM      1  S   UNL     1       7.142  -0.800  22.855  0.00  0.00    -0.155 S 
ATOM     34  C   UNL     1       8.741  -0.009  23.146  0.00  0.00    +0.085 C 
ENDBRANCH  25   1
ENDBRANCH  22  25
ENDBRANCH  13  10
BRANCH  19  20
ATOM     20  C   UNL     1      -1.603  -1.350  25.629  0.00  0.00    +0.107 C 
BRANCH  20  24
ATOM     24  C   UNL     1      -3.081  -1.039  25.511  0.00  0.00    +0.129 C 
BRANCH  24  28
ATOM      7  O   UNL     1      -4.479  -1.859  23.718  0.00  0.00    -0.251 OA
ATOM     28  C   UNL     1      -3.798  -2.096  24.708  0.00  0.00    +0.305 C 
BRANCH  28   6
ATOM      6  O   UNL     1      -3.629  -3.342  25.216  0.00  0.00    -0.481 OA
ATOM     40  H   UNL     1      -3.527  -4.014  24.509  0.00  0.00    +0.295 HD
ENDBRANCH  28   6
ENDBRANCH  24  28
ENDBRANCH  20  24
ENDBRANCH  19  20
TORSDOF 13
ENDMDL
MODEL 7
REMARK VINA RESULT:       3.9      2.034      5.636
REMARK  Name = 7134606
REMARK  15 active torsions:
REMARK  status: ('A' for Active; 'I' for Inactive)
REMARK    1  A    between atoms: S_1  and  C_25
REMARK    2  A    between atoms: S_1  and  C_34
REMARK    3  A    between atoms: O_6  and  C_28
REMARK    4  A    between atoms: O_8  and  C_33
REMARK    5  A    between atoms: O_8  and  C_35
REMARK    6  A    between atoms: N_10  and  C_13
REMARK    7  A    between atoms: N_11  and  C_21
REMARK    8  A    between atoms: C_14  and  C_18
REMARK    9  A    between atoms: C_19  and  C_20
REMARK   10  A    between atoms: C_20  and  C_24
REMARK   11  A    between atoms: C_21  and  C_23
REMARK   12  A    between atoms: C_21  and  C_26
REMARK   13  A    between atoms: C_22  and  C_25
REMARK   14  A    between atoms: C_23  and  C_27
REMARK   15  A    between atoms: C_24  and  C_28
REMARK                            x       y       z     vdW  Elec       q    Type
REMARK                         _______ _______ _______ _____ _____    ______ ____
ROOT
ATOM      3  O   UNL     1      -4.314  -0.281  23.734  0.00  0.00    -0.276 OA
ATOM      9  N   UNL     1      -2.041  -0.130  24.220  0.00  0.00    -0.290 N 
ATOM     13  C   UNL     1       0.692   0.205  23.250  0.00  0.00    +0.077 C 
ATOM     14  C   UNL     1      -0.927  -0.296  25.167  0.00  0.00    +0.164 C 
ATOM     15  C   UNL     1       0.395  -0.652  24.483  0.00  0.00    +0.054 C 
ATOM     16  C   UNL     1      -0.505   0.198  22.300  0.00  0.00    +0.041 C 
ATOM     17  C   UNL     1      -1.768   0.662  23.015  0.00  0.00    +0.110 C 
ATOM     19  C   UNL     1      -3.357  -0.541  24.469  0.00  0.00    +0.217 C 
ENDROOT
BRANCH  14  18
ATOM      2  O   UNL     1      -1.454   1.141  27.000  0.00  0.00    -0.274 OA
ATOM     11  N   UNL     1       0.006   1.903  25.355  0.00  0.00    -0.302 N 
ATOM     18  C   UNL     1      -0.829   0.977  25.955  0.00  0.00    +0.234 C 
ATOM     37  H   UNL     1       0.499   1.658  24.502  0.00  0.00    +0.150 HD
BRANCH  11  21
ATOM     21  C   UNL     1       0.252   3.218  25.902  0.00  0.00    +0.163 C 
BRANCH  21  26
ATOM      5  O   UNL     1      -1.017   3.415  27.965  0.00  0.00    -0.274 OA
ATOM     12  N   UNL     1       1.140   2.630  28.072  0.00  0.00    -0.328 N 
ATOM     26  C   UNL     1       0.038   3.125  27.406  0.00  0.00    +0.231 C 
ATOM     38  H   UNL     1       2.004   2.391  27.597  0.00  0.00    +0.145 HD
ATOM     39  H   UNL     1       1.125   2.503  29.079  0.00  0.00    +0.145 HD
ENDBRANCH  21  26
BRANCH  21  23
ATOM     23  C   UNL     1      -0.671   4.280  25.296  0.00  0.00    +0.067 C 
BRANCH  23  27
ATOM     27  C   UNL     1      -2.102   3.815  25.181  0.00  0.00    -0.045 A 
ATOM     29  C   UNL     1      -2.935   3.841  26.299  0.00  0.00    +0.007 A 
ATOM     30  C   UNL     1      -2.591   3.358  23.957  0.00  0.00    +0.007 A 
ATOM     31  C   UNL     1      -4.258   3.410  26.193  0.00  0.00    +0.046 A 
ATOM     32  C   UNL     1      -3.913   2.927  23.851  0.00  0.00    +0.046 A 
ATOM     33  C   UNL     1      -4.746   2.953  24.969  0.00  0.00    +0.120 A 
BRANCH  33   8
ATOM      8  O   UNL     1      -6.036   2.532  24.866  0.00  0.00    -0.495 OA
ATOM     35  C   UNL     1      -6.523   1.672  25.894  0.00  0.00    +0.277 C 
ENDBRANCH  33   8
ENDBRANCH  23  27
ENDBRANCH  21  23
ENDBRANCH  11  21
ENDBRANCH  14  18
BRANCH  13  10
ATOM      4  O   UNL     1       3.270   1.514  23.137  0.00  0.00    -0.275 OA
ATOM     10  N   UNL     1       1.879  -0.260  22.574  0.00  0.00    -0.312 N 
ATOM     22  C   UNL     1       3.076   0.439  22.574  0.00  0.00    +0.223 C 
ATOM     36  H   UNL     1       1.838  -1.171  22.125  0.00  0.00    +0.149 HD
BRANCH  22  25
ATOM     25  C   UNL     1       4.162  -0.250  21.781  0.00  0.00    +0.164 C 
BRANCH  25   1
ATOM      1  S   UNL     1       5.702  -0.201  22.729  0.00  0.00    -0.155 S 
ATOM     34  C   UNL     1       5.131  -1.059  24.214  0.00  0.00    +0.085 C 
ENDBRANCH  25   1
ENDBRANCH  22  25
ENDBRANCH  13  10
BRANCH  19  20
ATOM     20  C   UNL     1      -3.589  -1.362  25.712  0.00  0.00    +0.107 C 
BRANCH  20  24
ATOM     24  C   UNL     1      -3.129  -2.787  25.480  0.00  0.00    +0.129 C 
BRANCH  24  28
ATOM      7  O   UNL     1      -2.085  -3.373  23.380  0.00  0.00    -0.251 OA
ATOM     28  C   UNL     1      -3.105  -3.119  24.008  0.00  0.00    +0.305 C 
BRANCH  28   6
ATOM      6  O   UNL     1      -4.338  -3.080  23.444  0.00  0.00    -0.481 OA
ATOM     40  H   UNL     1      -4.588  -3.944  23.053  0.00  0.00    +0.295 HD
ENDBRANCH  28   6
ENDBRANCH  24  28
ENDBRANCH  20  24
ENDBRANCH  19  20
TORSDOF 13
ENDMDL
