MODEL 1
REMARK VINA RESULT:       1.1      0.000      0.000
REMARK  Name = 7051759
REMARK  2 active torsions:
REMARK  status: ('A' for Active; 'I' for Inactive)
REMARK    1  A    between atoms: C_14  and  C_19
REMARK    2  A    between atoms: C_16  and  C_20
REMARK                            x       y       z     vdW  Elec       q    Type
REMARK                         _______ _______ _______ _____ _____    ______ ____
ROOT
ATOM      2  O   UNL     1      -2.412   4.045  27.346  0.00  0.00    -0.268 OA
ATOM      3  O   UNL     1      -5.394   0.454  25.356  0.00  0.00    -0.269 OA
ATOM      4  N   UNL     1      -3.983   1.166  23.633  0.00  0.00    -0.296 N 
ATOM      5  N   UNL     1      -2.140   3.216  25.173  0.00  0.00    -0.311 N 
ATOM      7  C   UNL     1      -3.896   3.629  23.348  0.00  0.00    +0.027 C 
ATOM      8  C   UNL     1      -1.901   2.278  22.853  0.00  0.00    +0.054 C 
ATOM      9  C   UNL     1      -2.724   3.480  22.391  0.00  0.00    +0.018 C 
ATOM     10  C   UNL     1      -4.768   2.363  23.339  0.00  0.00    +0.113 C 
ATOM     11  C   UNL     1      -3.347   3.937  24.743  0.00  0.00    +0.130 C 
ATOM     12  C   UNL     1      -2.776   1.006  22.810  0.00  0.00    +0.117 C 
ATOM     13  C   UNL     1      -1.348   2.483  24.266  0.00  0.00    +0.034 A 
ATOM     14  C   UNL     1      -0.160   1.963  24.670  0.00  0.00    +0.004 A 
ATOM     15  C   UNL     1      -1.766   3.405  26.515  0.00  0.00    +0.252 A 
ATOM     16  C   UNL     1      -4.383   0.318  24.669  0.00  0.00    +0.253 C 
ATOM     17  C   UNL     1       0.255   2.135  26.049  0.00  0.00    +0.015 A 
ATOM     18  C   UNL     1      -0.486   2.793  26.939  0.00  0.00    +0.071 A 
ENDROOT
BRANCH  14  19
ATOM      6  N   UNL     1       2.858   0.986  22.667  0.00  0.00    -0.263 NA
ATOM     19  C   UNL     1       0.715   1.209  23.746  0.00  0.00    +0.002 A 
ATOM     21  C   UNL     1       0.256   0.066  23.109  0.00  0.00    +0.011 A 
ATOM     22  C   UNL     1       2.008   1.628  23.498  0.00  0.00    +0.119 A 
ATOM     24  C   UNL     1       1.102  -0.621  22.246  0.00  0.00    +0.020 A 
ATOM     27  C   UNL     1       2.382  -0.125  22.060  0.00  0.00    +0.111 A 
ENDBRANCH  14  19
BRANCH  16  20
ATOM      1  S   UNL     1      -3.896  -2.354  24.307  0.00  0.00    -0.092 S 
ATOM     20  C   UNL     1      -3.530  -0.832  24.994  0.00  0.00    +0.074 A 
ATOM     23  C   UNL     1      -2.425  -0.876  25.808  0.00  0.00    +0.021 A 
ATOM     25  C   UNL     1      -1.865  -2.184  25.870  0.00  0.00    +0.008 A 
ATOM     26  C   UNL     1      -2.567  -3.085  25.101  0.00  0.00    +0.046 A 
ENDBRANCH  16  20
TORSDOF 2
ENDMDL
MODEL 2
REMARK VINA RESULT:       4.9      2.581      4.774
REMARK  Name = 7051759
REMARK  2 active torsions:
REMARK  status: ('A' for Active; 'I' for Inactive)
REMARK    1  A    between atoms: C_14  and  C_19
REMARK    2  A    between atoms: C_16  and  C_20
REMARK                            x       y       z     vdW  Elec       q    Type
REMARK                         _______ _______ _______ _____ _____    ______ ____
ROOT
ATOM      2  O   UNL     1      -3.941   4.129  21.237  0.00  0.00    -0.268 OA
ATOM      3  O   UNL     1      -2.032   5.340  25.780  0.00  0.00    -0.269 OA
ATOM      4  N   UNL     1      -3.374   3.455  26.112  0.00  0.00    -0.296 N 
ATOM      5  N   UNL     1      -4.255   2.813  23.148  0.00  0.00    -0.311 N 
ATOM      7  C   UNL     1      -5.648   3.645  25.137  0.00  0.00    +0.027 C 
ATOM      8  C   UNL     1      -4.549   1.446  25.237  0.00  0.00    +0.054 C 
ATOM      9  C   UNL     1      -5.888   2.166  25.400  0.00  0.00    +0.018 C 
ATOM     10  C   UNL     1      -4.622   4.214  26.132  0.00  0.00    +0.113 C 
ATOM     11  C   UNL     1      -5.191   3.812  23.686  0.00  0.00    +0.130 C 
ATOM     12  C   UNL     1      -3.537   2.001  26.262  0.00  0.00    +0.117 C 
ATOM     13  C   UNL     1      -3.995   1.601  23.819  0.00  0.00    +0.034 A 
ATOM     14  C   UNL     1      -3.248   0.640  23.216  0.00  0.00    +0.004 A 
ATOM     15  C   UNL     1      -3.736   3.094  21.873  0.00  0.00    +0.252 A 
ATOM     16  C   UNL     1      -2.165   4.124  25.905  0.00  0.00    +0.253 C 
ATOM     17  C   UNL     1      -2.693   0.897  21.901  0.00  0.00    +0.015 A 
ATOM     18  C   UNL     1      -2.892   2.045  21.255  0.00  0.00    +0.071 A 
ENDROOT
BRANCH  14  19
ATOM      6  N   UNL     1      -1.415  -2.075  25.045  0.00  0.00    -0.263 NA
ATOM     19  C   UNL     1      -2.970  -0.657  23.871  0.00  0.00    +0.002 A 
ATOM     21  C   UNL     1      -3.944  -1.641  23.936  0.00  0.00    +0.011 A 
ATOM     22  C   UNL     1      -1.735  -0.913  24.432  0.00  0.00    +0.119 A 
ATOM     24  C   UNL     1      -3.653  -2.850  24.558  0.00  0.00    +0.020 A 
ATOM     27  C   UNL     1      -2.385  -3.016  25.092  0.00  0.00    +0.111 A 
ENDBRANCH  14  19
BRANCH  16  20
ATOM      1  S   UNL     1      -0.398   2.823  24.266  0.00  0.00    -0.092 S 
ATOM     20  C   UNL     1      -0.937   3.326  25.808  0.00  0.00    +0.074 A 
ATOM     23  C   UNL     1      -0.109   2.899  26.817  0.00  0.00    +0.021 A 
ATOM     25  C   UNL     1       0.990   2.144  26.318  0.00  0.00    +0.008 A 
ATOM     26  C   UNL     1       0.956   2.026  24.946  0.00  0.00    +0.046 A 
ENDBRANCH  16  20
TORSDOF 2
ENDMDL
