MODEL 1
REMARK VINA RESULT:       3.5      0.000      0.000
REMARK  Name = 51138037
REMARK  10 active torsions:
REMARK  status: ('A' for Active; 'I' for Inactive)
REMARK    1  A    between atoms: N_4  and  C_21
REMARK    2  A    between atoms: N_5  and  C_25
REMARK    3  A    between atoms: N_6  and  C_26
REMARK    4  A    between atoms: C_8  and  C_14
REMARK    5  A    between atoms: C_9  and  C_19
REMARK    6  A    between atoms: C_14  and  C_16
REMARK    7  A    between atoms: C_16  and  C_23
REMARK    8  A    between atoms: C_16  and  C_24
REMARK    9  A    between atoms: C_21  and  C_27
REMARK   10  A    between atoms: C_25  and  C_26
REMARK                            x       y       z     vdW  Elec       q    Type
REMARK                         _______ _______ _______ _____ _____    ______ ____
ROOT
ATOM      3  N   UNL     1      -2.954   1.349  25.249  0.00  0.00    -0.299 NA
ATOM      4  N   UNL     1       1.332   0.068  22.907  0.00  0.00    -0.342 N 
ATOM      8  C   UNL     1      -2.510   0.103  25.886  0.00  0.00    +0.085 C 
ATOM      9  C   UNL     1      -1.977   2.428  25.278  0.00  0.00    +0.145 C 
ATOM     10  C   UNL     1      -1.317  -0.597  25.227  0.00  0.00    -0.021 A 
ATOM     11  C   UNL     1      -0.421   0.008  24.299  0.00  0.00    +0.008 A 
ATOM     12  C   UNL     1      -1.187   2.506  23.974  0.00  0.00    +0.065 C 
ATOM     13  C   UNL     1      -0.312   1.322  23.726  0.00  0.00    -0.020 A 
ATOM     15  C   UNL     1       0.642  -0.740  23.780  0.00  0.00    +0.050 A 
ATOM     17  C   UNL     1       0.772   1.310  22.872  0.00  0.00    +0.091 A 
ATOM     18  C   UNL     1      -1.013  -1.927  25.613  0.00  0.00    +0.006 A 
ATOM     20  C   UNL     1       0.898  -2.065  24.137  0.00  0.00    +0.026 A 
ATOM     22  C   UNL     1       0.055  -2.644  25.078  0.00  0.00    +0.002 A 
ATOM     36  H   UNL     1      -3.284   1.176  24.300  0.00  0.00    +0.123 HD
ENDROOT
BRANCH   9  19
ATOM      1  O   UNL     1      -2.634   4.429  26.403  0.00  0.00    -0.274 OA
ATOM      5  N   UNL     1      -3.688   3.860  24.407  0.00  0.00    -0.313 N 
ATOM     19  C   UNL     1      -2.782   3.683  25.439  0.00  0.00    +0.230 C 
ATOM     37  H   UNL     1      -3.717   3.186  23.647  0.00  0.00    +0.149 HD
BRANCH   5  25
ATOM     25  C   UNL     1      -4.598   4.979  24.338  0.00  0.00    +0.119 C 
BRANCH  25  26
ATOM     26  C   UNL     1      -5.559   4.981  25.518  0.00  0.00    +0.103 C 
BRANCH  26   6
ATOM      2  O   UNL     1      -6.178   0.839  25.792  0.00  0.00    -0.377 OA
ATOM      6  N   UNL     1      -6.216   3.681  25.639  0.00  0.00    -0.297 NA
ATOM     28  C   UNL     1      -5.769   2.983  26.853  0.00  0.00    +0.112 C 
ATOM     29  C   UNL     1      -5.953   2.852  24.455  0.00  0.00    +0.112 C 
ATOM     30  C   UNL     1      -6.458   1.625  26.951  0.00  0.00    +0.175 C 
ATOM     31  C   UNL     1      -6.638   1.497  24.611  0.00  0.00    +0.175 C 
ENDBRANCH  26   6
ENDBRANCH  25  26
ENDBRANCH   5  25
ENDBRANCH   9  19
BRANCH   8  14
ATOM     14  C   UNL     1      -3.767  -0.785  25.922  0.00  0.00    +0.026 C 
BRANCH  14  16
ATOM     16  C   UNL     1      -4.245  -1.202  24.527  0.00  0.00    -0.015 C 
ATOM     23  C   UNL     1      -3.669  -0.319  23.419  0.00  0.00    +0.007 C 
ATOM     24  C   UNL     1      -3.860  -2.662  24.277  0.00  0.00    +0.007 C 
ENDBRANCH  14  16
ENDBRANCH   8  14
BRANCH   4  21
ATOM     21  C   UNL     1       2.499  -0.320  22.144  0.00  0.00    +0.157 C 
BRANCH  21  27
ATOM      7  N   UNL     1       6.150  -0.176  24.417  0.00  0.00    -0.263 NA
ATOM     27  C   UNL     1       3.779  -0.269  22.941  0.00  0.00    -0.025 A 
ATOM     32  C   UNL     1       4.512   0.911  23.010  0.00  0.00    +0.025 A 
ATOM     33  C   UNL     1       4.229  -1.401  23.610  0.00  0.00    +0.025 A 
ATOM     34  C   UNL     1       5.680   0.905  23.755  0.00  0.00    +0.111 A 
ATOM     35  C   UNL     1       5.410  -1.304  24.328  0.00  0.00    +0.111 A 
ENDBRANCH  21  27
ENDBRANCH   4  21
TORSDOF 8
ENDMDL
MODEL 2
REMARK VINA RESULT:       5.8      1.917      4.933
REMARK  Name = 51138037
REMARK  10 active torsions:
REMARK  status: ('A' for Active; 'I' for Inactive)
REMARK    1  A    between atoms: N_4  and  C_21
REMARK    2  A    between atoms: N_5  and  C_25
REMARK    3  A    between atoms: N_6  and  C_26
REMARK    4  A    between atoms: C_8  and  C_14
REMARK    5  A    between atoms: C_9  and  C_19
REMARK    6  A    between atoms: C_14  and  C_16
REMARK    7  A    between atoms: C_16  and  C_23
REMARK    8  A    between atoms: C_16  and  C_24
REMARK    9  A    between atoms: C_21  and  C_27
REMARK   10  A    between atoms: C_25  and  C_26
REMARK                            x       y       z     vdW  Elec       q    Type
REMARK                         _______ _______ _______ _____ _____    ______ ____
ROOT
ATOM      3  N   UNL     1      -3.650   1.690  25.114  0.00  0.00    -0.299 NA
ATOM      4  N   UNL     1       1.079   2.187  23.412  0.00  0.00    -0.342 N 
ATOM      8  C   UNL     1      -3.424   3.136  24.981  0.00  0.00    +0.085 C 
ATOM      9  C   UNL     1      -3.429   0.927  23.894  0.00  0.00    +0.145 C 
ATOM     10  C   UNL     1      -1.990   3.561  24.652  0.00  0.00    -0.021 A 
ATOM     11  C   UNL     1      -0.975   2.701  24.144  0.00  0.00    +0.008 A 
ATOM     12  C   UNL     1      -2.034   0.307  23.864  0.00  0.00    +0.065 C 
ATOM     13  C   UNL     1      -0.929   1.309  23.788  0.00  0.00    -0.020 A 
ATOM     15  C   UNL     1       0.296   3.221  23.870  0.00  0.00    +0.050 A 
ATOM     17  C   UNL     1       0.351   1.036  23.353  0.00  0.00    +0.091 A 
ATOM     18  C   UNL     1      -1.642   4.931  24.782  0.00  0.00    +0.006 A 
ATOM     20  C   UNL     1       0.633   4.564  24.049  0.00  0.00    +0.026 A 
ATOM     22  C   UNL     1      -0.367   5.416  24.499  0.00  0.00    +0.002 A 
ATOM     36  H   UNL     1      -3.112   1.308  25.890  0.00  0.00    +0.123 HD
ENDROOT
BRANCH   9  19
ATOM      1  O   UNL     1      -5.616   0.039  24.256  0.00  0.00    -0.274 OA
ATOM      5  N   UNL     1      -3.915  -1.396  23.571  0.00  0.00    -0.313 N 
ATOM     19  C   UNL     1      -4.451  -0.170  23.927  0.00  0.00    +0.230 C 
ATOM     37  H   UNL     1      -2.938  -1.454  23.300  0.00  0.00    +0.149 HD
BRANCH   5  25
ATOM     25  C   UNL     1      -4.686  -2.618  23.545  0.00  0.00    +0.119 C 
BRANCH  25  26
ATOM     26  C   UNL     1      -3.947  -3.750  24.243  0.00  0.00    +0.103 C 
BRANCH  26   6
ATOM      2  O   UNL     1      -1.260  -1.120  26.108  0.00  0.00    -0.377 OA
ATOM      6  N   UNL     1      -2.937  -3.212  25.152  0.00  0.00    -0.297 NA
ATOM     28  C   UNL     1      -3.479  -2.087  25.927  0.00  0.00    +0.112 C 
ATOM     29  C   UNL     1      -1.743  -2.783  24.409  0.00  0.00    +0.112 C 
ATOM     30  C   UNL     1      -2.403  -1.535  26.858  0.00  0.00    +0.175 C 
ATOM     31  C   UNL     1      -0.709  -2.215  25.377  0.00  0.00    +0.175 C 
ENDBRANCH  26   6
ENDBRANCH  25  26
ENDBRANCH   5  25
ENDBRANCH   9  19
BRANCH   8  14
ATOM     14  C   UNL     1      -3.926   3.731  26.308  0.00  0.00    +0.026 C 
BRANCH  14  16
ATOM     16  C   UNL     1      -5.451   3.878  26.359  0.00  0.00    -0.015 C 
ATOM     23  C   UNL     1      -5.981   4.878  25.331  0.00  0.00    +0.007 C 
ATOM     24  C   UNL     1      -6.098   2.509  26.131  0.00  0.00    +0.007 C 
ENDBRANCH  14  16
ENDBRANCH   8  14
BRANCH   4  21
ATOM     21  C   UNL     1       2.469   2.292  23.024  0.00  0.00    +0.157 C 
BRANCH  21  27
ATOM      7  N   UNL     1       4.687  -1.348  23.622  0.00  0.00    -0.263 NA
ATOM     27  C   UNL     1       3.246   1.015  23.234  0.00  0.00    -0.025 A 
ATOM     32  C   UNL     1       2.587  -0.209  23.251  0.00  0.00    +0.025 A 
ATOM     33  C   UNL     1       4.625   1.059  23.409  0.00  0.00    +0.025 A 
ATOM     34  C   UNL     1       3.346  -1.351  23.447  0.00  0.00    +0.111 A 
ATOM     35  C   UNL     1       5.293  -0.140  23.598  0.00  0.00    +0.111 A 
ENDBRANCH  21  27
ENDBRANCH   4  21
TORSDOF 8
ENDMDL
MODEL 3
REMARK VINA RESULT:       7.3      1.433      2.472
REMARK  Name = 51138037
REMARK  10 active torsions:
REMARK  status: ('A' for Active; 'I' for Inactive)
REMARK    1  A    between atoms: N_4  and  C_21
REMARK    2  A    between atoms: N_5  and  C_25
REMARK    3  A    between atoms: N_6  and  C_26
REMARK    4  A    between atoms: C_8  and  C_14
REMARK    5  A    between atoms: C_9  and  C_19
REMARK    6  A    between atoms: C_14  and  C_16
REMARK    7  A    between atoms: C_16  and  C_23
REMARK    8  A    between atoms: C_16  and  C_24
REMARK    9  A    between atoms: C_21  and  C_27
REMARK   10  A    between atoms: C_25  and  C_26
REMARK                            x       y       z     vdW  Elec       q    Type
REMARK                         _______ _______ _______ _____ _____    ______ ____
ROOT
ATOM      3  N   UNL     1      -3.356   0.288  24.406  0.00  0.00    -0.299 NA
ATOM      4  N   UNL     1       1.290  -0.266  22.505  0.00  0.00    -0.342 N 
ATOM      8  C   UNL     1      -2.633  -0.562  25.362  0.00  0.00    +0.085 C 
ATOM      9  C   UNL     1      -2.724   1.571  24.136  0.00  0.00    +0.145 C 
ATOM     10  C   UNL     1      -1.244  -1.033  24.921  0.00  0.00    -0.021 A 
ATOM     11  C   UNL     1      -0.482  -0.462  23.861  0.00  0.00    +0.008 A 
ATOM     12  C   UNL     1      -1.886   1.527  22.860  0.00  0.00    +0.065 C 
ATOM     13  C   UNL     1      -0.698   0.627  22.948  0.00  0.00    -0.020 A 
ATOM     15  C   UNL     1       0.785  -0.979  23.567  0.00  0.00    +0.050 A 
ATOM     17  C   UNL     1       0.410   0.705  22.129  0.00  0.00    +0.091 A 
ATOM     18  C   UNL     1      -0.612  -2.067  25.658  0.00  0.00    +0.006 A 
ATOM     20  C   UNL     1       1.371  -2.029  24.276  0.00  0.00    +0.026 A 
ATOM     22  C   UNL     1       0.652  -2.559  25.340  0.00  0.00    +0.002 A 
ATOM     36  H   UNL     1      -3.547  -0.217  23.542  0.00  0.00    +0.123 HD
ENDROOT
BRANCH   9  19
ATOM      1  O   UNL     1      -4.132   3.001  22.844  0.00  0.00    -0.274 OA
ATOM      5  N   UNL     1      -4.502   2.826  25.135  0.00  0.00    -0.313 N 
ATOM     19  C   UNL     1      -3.856   2.534  23.946  0.00  0.00    +0.230 C 
ATOM     37  H   UNL     1      -4.201   2.370  25.992  0.00  0.00    +0.149 HD
BRANCH   5  25
ATOM     25  C   UNL     1      -5.613   3.745  25.227  0.00  0.00    +0.119 C 
BRANCH  25  26
ATOM     26  C   UNL     1      -5.184   5.068  25.844  0.00  0.00    +0.103 C 
BRANCH  26   6
ATOM      2  O   UNL     1      -1.113   4.075  25.600  0.00  0.00    -0.377 OA
ATOM      6  N   UNL     1      -3.736   5.090  26.041  0.00  0.00    -0.297 NA
ATOM     28  C   UNL     1      -3.039   5.293  24.763  0.00  0.00    +0.112 C 
ATOM     29  C   UNL     1      -3.277   3.845  26.673  0.00  0.00    +0.112 C 
ATOM     30  C   UNL     1      -1.530   5.299  24.993  0.00  0.00    +0.175 C 
ATOM     31  C   UNL     1      -1.763   3.886  26.857  0.00  0.00    +0.175 C 
ENDBRANCH  26   6
ENDBRANCH  25  26
ENDBRANCH   5  25
ENDBRANCH   9  19
BRANCH   8  14
ATOM     14  C   UNL     1      -3.592  -1.733  25.642  0.00  0.00    +0.026 C 
BRANCH  14  16
ATOM     16  C   UNL     1      -3.661  -2.739  24.487  0.00  0.00    -0.015 C 
ATOM     23  C   UNL     1      -3.731  -4.188  24.971  0.00  0.00    +0.007 C 
ATOM     24  C   UNL     1      -4.881  -2.424  23.617  0.00  0.00    +0.007 C 
ENDBRANCH  14  16
ENDBRANCH   8  14
BRANCH   4  21
ATOM     21  C   UNL     1       2.575  -0.486  21.877  0.00  0.00    +0.157 C 
BRANCH  21  27
ATOM      7  N   UNL     1       5.903   0.210  24.515  0.00  0.00    -0.263 NA
ATOM     27  C   UNL     1       3.742  -0.241  22.802  0.00  0.00    -0.025 A 
ATOM     32  C   UNL     1       4.287   1.032  22.916  0.00  0.00    +0.025 A 
ATOM     33  C   UNL     1       4.275  -1.289  23.544  0.00  0.00    +0.025 A 
ATOM     34  C   UNL     1       5.358   1.204  23.779  0.00  0.00    +0.111 A 
ATOM     35  C   UNL     1       5.346  -1.014  24.378  0.00  0.00    +0.111 A 
ENDBRANCH  21  27
ENDBRANCH   4  21
TORSDOF 8
ENDMDL
