MODEL 1
REMARK VINA RESULT:      -4.7      0.000      0.000
REMARK  Name = 44716212
REMARK  6 active torsions:
REMARK  status: ('A' for Active; 'I' for Inactive)
REMARK    1  A    between atoms: N_3  and  C_15
REMARK    2  A    between atoms: N_4  and  C_18
REMARK    3  A    between atoms: N_4  and  C_19
REMARK    4  A    between atoms: C_9  and  C_16
REMARK    5  A    between atoms: C_10  and  C_15
REMARK    6  A    between atoms: C_20  and  C_21
REMARK                            x       y       z     vdW  Elec       q    Type
REMARK                         _______ _______ _______ _____ _____    ______ ____
ROOT
ATOM      2  N   UNL     1      -5.959  -9.548  10.736  0.00  0.00    -0.297 NA
ATOM      8  C   UNL     1      -6.395  -9.051   8.220  0.00  0.00    +0.005 C 
ATOM      9  C   UNL     1      -6.955  -7.930   9.118  0.00  0.00    +0.092 C 
ATOM     10  C   UNL     1      -4.672  -9.287  10.033  0.00  0.00    +0.078 C 
ATOM     11  C   UNL     1      -4.886  -9.155   8.506  0.00  0.00    +0.025 C 
ATOM     12  C   UNL     1      -7.012 -10.398   8.636  0.00  0.00    +0.020 C 
ATOM     13  C   UNL     1      -6.820  -8.346  10.595  0.00  0.00    +0.097 C 
ATOM     14  C   UNL     1      -6.674 -10.682  10.108  0.00  0.00    +0.085 C 
ENDROOT
BRANCH   9  16
ATOM      1  O   UNL     1      -9.217  -8.508   8.762  0.00  0.00    -0.275 OA
ATOM      4  N   UNL     1      -8.661  -6.270   8.480  0.00  0.00    -0.307 N 
ATOM     16  C   UNL     1      -8.378  -7.604   8.772  0.00  0.00    +0.220 C 
ATOM     18  C   UNL     1      -7.636  -5.230   8.505  0.00  0.00    +0.131 C 
ATOM     19  C   UNL     1     -10.001  -5.816   8.128  0.00  0.00    +0.131 C 
ENDBRANCH   9  16
BRANCH  10  15
ATOM     15  C   UNL     1      -3.609 -10.335  10.367  0.00  0.00    +0.164 C 
BRANCH  15   3
ATOM      3  N   UNL     1      -3.398 -10.456  11.850  0.00  0.00    -0.250 N 
ATOM      5  N   UNL     1      -2.163 -10.598  12.357  0.00  0.00    -0.065 NA
ATOM      6  N   UNL     1      -2.285 -10.680  13.676  0.00  0.00    -0.128 NA
ATOM     17  C   UNL     1      -4.344 -10.444  12.829  0.00  0.00    +0.140 A 
ATOM     20  C   UNL     1      -3.614 -10.587  13.982  0.00  0.00    +0.131 A 
BRANCH  20  21
ATOM      7  N   UNL     1      -5.496 -10.733  15.388  0.00  0.00    -0.253 NA
ATOM     21  C   UNL     1      -4.151 -10.634  15.305  0.00  0.00    +0.092 A 
ATOM     22  C   UNL     1      -3.307 -10.577  16.403  0.00  0.00    +0.030 A 
ATOM     23  C   UNL     1      -3.883 -10.626  17.667  0.00  0.00    +0.004 A 
ATOM     24  C   UNL     1      -6.019 -10.778  16.633  0.00  0.00    +0.111 A 
ATOM     25  C   UNL     1      -5.264 -10.728  17.794  0.00  0.00    +0.020 A 
ENDBRANCH  20  21
ENDBRANCH  15   3
ENDBRANCH  10  15
TORSDOF 4
ENDMDL
MODEL 2
REMARK VINA RESULT:      -4.3     24.700     27.238
REMARK  Name = 44716212
REMARK  6 active torsions:
REMARK  status: ('A' for Active; 'I' for Inactive)
REMARK    1  A    between atoms: N_3  and  C_15
REMARK    2  A    between atoms: N_4  and  C_18
REMARK    3  A    between atoms: N_4  and  C_19
REMARK    4  A    between atoms: C_9  and  C_16
REMARK    5  A    between atoms: C_10  and  C_15
REMARK    6  A    between atoms: C_20  and  C_21
REMARK                            x       y       z     vdW  Elec       q    Type
REMARK                         _______ _______ _______ _____ _____    ______ ____
ROOT
ATOM      2  N   UNL     1      15.943  -7.378  31.459  0.00  0.00    -0.297 NA
ATOM      8  C   UNL     1      14.455  -6.605  29.468  0.00  0.00    +0.005 C 
ATOM      9  C   UNL     1      15.790  -7.196  28.974  0.00  0.00    +0.092 C 
ATOM     10  C   UNL     1      14.732  -8.238  31.358  0.00  0.00    +0.078 C 
ATOM     11  C   UNL     1      13.749  -7.698  30.291  0.00  0.00    +0.025 C 
ATOM     12  C   UNL     1      14.736  -5.443  30.437  0.00  0.00    +0.020 C 
ATOM     13  C   UNL     1      16.698  -7.485  30.184  0.00  0.00    +0.097 C 
ATOM     14  C   UNL     1      15.559  -5.958  31.628  0.00  0.00    +0.085 C 
ENDROOT
BRANCH   9  16
ATOM      1  O   UNL     1      17.093  -5.309  28.408  0.00  0.00    -0.275 OA
ATOM      4  N   UNL     1      16.336  -6.616  26.642  0.00  0.00    -0.307 N 
ATOM     16  C   UNL     1      16.466  -6.286  27.991  0.00  0.00    +0.220 C 
ATOM     18  C   UNL     1      15.584  -7.785  26.191  0.00  0.00    +0.131 C 
ATOM     19  C   UNL     1      16.941  -5.818  25.583  0.00  0.00    +0.131 C 
ENDBRANCH   9  16
BRANCH  10  15
ATOM     15  C   UNL     1      14.047  -8.432  32.712  0.00  0.00    +0.164 C 
BRANCH  15   3
ATOM      3  N   UNL     1      12.609  -7.997  32.671  0.00  0.00    -0.250 N 
ATOM      5  N   UNL     1      12.277  -6.708  32.847  0.00  0.00    -0.065 NA
ATOM      6  N   UNL     1      10.955  -6.626  32.762  0.00  0.00    -0.128 NA
ATOM     17  C   UNL     1      11.510  -8.775  32.468  0.00  0.00    +0.140 A 
ATOM     20  C   UNL     1      10.469  -7.882  32.529  0.00  0.00    +0.131 A 
BRANCH  20  21
ATOM      7  N   UNL     1       8.215  -7.300  32.873  0.00  0.00    -0.253 NA
ATOM     21  C   UNL     1       9.087  -8.205  32.375  0.00  0.00    +0.092 A 
ATOM     22  C   UNL     1       8.710  -9.382  31.748  0.00  0.00    +0.030 A 
ATOM     23  C   UNL     1       7.351  -9.647  31.625  0.00  0.00    +0.004 A 
ATOM     24  C   UNL     1       6.902  -7.592  32.735  0.00  0.00    +0.111 A 
ATOM     25  C   UNL     1       6.423  -8.740  32.126  0.00  0.00    +0.020 A 
ENDBRANCH  20  21
ENDBRANCH  15   3
ENDBRANCH  10  15
TORSDOF 4
ENDMDL
MODEL 3
REMARK VINA RESULT:      -1.2     15.474     17.382
REMARK  Name = 44716212
REMARK  6 active torsions:
REMARK  status: ('A' for Active; 'I' for Inactive)
REMARK    1  A    between atoms: N_3  and  C_15
REMARK    2  A    between atoms: N_4  and  C_18
REMARK    3  A    between atoms: N_4  and  C_19
REMARK    4  A    between atoms: C_9  and  C_16
REMARK    5  A    between atoms: C_10  and  C_15
REMARK    6  A    between atoms: C_20  and  C_21
REMARK                            x       y       z     vdW  Elec       q    Type
REMARK                         _______ _______ _______ _____ _____    ______ ____
ROOT
ATOM      2  N   UNL     1      -3.785  -0.820  24.515  0.00  0.00    -0.297 NA
ATOM      8  C   UNL     1      -2.926   1.635  24.597  0.00  0.00    +0.005 C 
ATOM      9  C   UNL     1      -4.144   1.436  25.521  0.00  0.00    +0.092 C 
ATOM     10  C   UNL     1      -2.440  -0.767  25.152  0.00  0.00    +0.078 C 
ATOM     11  C   UNL     1      -1.835   0.654  25.063  0.00  0.00    +0.025 C 
ATOM     12  C   UNL     1      -3.298   1.223  23.161  0.00  0.00    +0.020 C 
ATOM     13  C   UNL     1      -4.714   0.020  25.314  0.00  0.00    +0.097 C 
ATOM     14  C   UNL     1      -3.735  -0.249  23.149  0.00  0.00    +0.085 C 
ENDROOT
BRANCH   9  16
ATOM      1  O   UNL     1      -6.276   2.153  24.802  0.00  0.00    -0.275 OA
ATOM      4  N   UNL     1      -4.859   3.791  25.643  0.00  0.00    -0.307 N 
ATOM     16  C   UNL     1      -5.191   2.484  25.287  0.00  0.00    +0.220 C 
ATOM     18  C   UNL     1      -3.561   4.139  26.216  0.00  0.00    +0.131 C 
ATOM     19  C   UNL     1      -5.782   4.905  25.469  0.00  0.00    +0.131 C 
ENDBRANCH   9  16
BRANCH  10  15
ATOM     15  C   UNL     1      -1.490  -1.824  24.586  0.00  0.00    +0.164 C 
BRANCH  15   3
ATOM      3  N   UNL     1      -0.286  -1.196  23.943  0.00  0.00    -0.250 N 
ATOM      5  N   UNL     1      -0.415  -0.429  22.848  0.00  0.00    -0.065 NA
ATOM      6  N   UNL     1       0.801  -0.019  22.508  0.00  0.00    -0.128 NA
ATOM     17  C   UNL     1       1.014  -1.298  24.333  0.00  0.00    +0.140 A 
ATOM     20  C   UNL     1       1.688  -0.542  23.407  0.00  0.00    +0.131 A 
BRANCH  20  21
ATOM      7  N   UNL     1       3.855  -1.334  23.869  0.00  0.00    -0.253 NA
ATOM     21  C   UNL     1       3.099  -0.327  23.377  0.00  0.00    +0.092 A 
ATOM     22  C   UNL     1       3.615   0.854  22.868  0.00  0.00    +0.030 A 
ATOM     23  C   UNL     1       4.997   1.011  22.864  0.00  0.00    +0.004 A 
ATOM     24  C   UNL     1       5.194  -1.145  23.848  0.00  0.00    +0.111 A 
ATOM     25  C   UNL     1       5.808  -0.002  23.362  0.00  0.00    +0.020 A 
ENDBRANCH  20  21
ENDBRANCH  15   3
ENDBRANCH  10  15
TORSDOF 4
ENDMDL
MODEL 4
REMARK VINA RESULT:      -1.1     25.581     27.821
REMARK  Name = 44716212
REMARK  6 active torsions:
REMARK  status: ('A' for Active; 'I' for Inactive)
REMARK    1  A    between atoms: N_3  and  C_15
REMARK    2  A    between atoms: N_4  and  C_18
REMARK    3  A    between atoms: N_4  and  C_19
REMARK    4  A    between atoms: C_9  and  C_16
REMARK    5  A    between atoms: C_10  and  C_15
REMARK    6  A    between atoms: C_20  and  C_21
REMARK                            x       y       z     vdW  Elec       q    Type
REMARK                         _______ _______ _______ _____ _____    ______ ____
ROOT
ATOM      2  N   UNL     1      15.529  -5.891  29.833  0.00  0.00    -0.297 NA
ATOM      8  C   UNL     1      16.040  -8.442  29.877  0.00  0.00    +0.005 C 
ATOM      9  C   UNL     1      16.972  -7.701  28.899  0.00  0.00    +0.092 C 
ATOM     10  C   UNL     1      16.090  -6.280  31.156  0.00  0.00    +0.078 C 
ATOM     11  C   UNL     1      16.246  -7.816  31.268  0.00  0.00    +0.025 C 
ATOM     12  C   UNL     1      14.574  -8.175  29.490  0.00  0.00    +0.020 C 
ATOM     13  C   UNL     1      16.527  -6.231  28.786  0.00  0.00    +0.097 C 
ATOM     14  C   UNL     1      14.300  -6.664  29.542  0.00  0.00    +0.085 C 
ENDROOT
BRANCH   9  16
ATOM      1  O   UNL     1      16.844  -7.682  26.541  0.00  0.00    -0.275 OA
ATOM      4  N   UNL     1      17.219  -9.745  27.544  0.00  0.00    -0.307 N 
ATOM     16  C   UNL     1      17.004  -8.366  27.555  0.00  0.00    +0.220 C 
ATOM     18  C   UNL     1      17.405 -10.517  28.770  0.00  0.00    +0.131 C 
ATOM     19  C   UNL     1      17.273 -10.515  26.308  0.00  0.00    +0.131 C 
ENDBRANCH   9  16
BRANCH  10  15
ATOM     15  C   UNL     1      15.278  -5.708  32.319  0.00  0.00    +0.164 C 
BRANCH  15   3
ATOM      3  N   UNL     1      13.825  -6.078  32.214  0.00  0.00    -0.250 N 
ATOM      5  N   UNL     1      12.917  -5.178  31.802  0.00  0.00    -0.065 NA
ATOM      6  N   UNL     1      11.734  -5.781  31.810  0.00  0.00    -0.128 NA
ATOM     17  C   UNL     1      13.250  -7.279  32.497  0.00  0.00    +0.140 A 
ATOM     20  C   UNL     1      11.919  -7.068  32.233  0.00  0.00    +0.131 A 
BRANCH  20  21
ATOM      7  N   UNL     1       9.628  -7.593  32.119  0.00  0.00    -0.253 NA
ATOM     21  C   UNL     1      10.880  -8.036  32.374  0.00  0.00    +0.092 A 
ATOM     22  C   UNL     1      11.182  -9.335  32.750  0.00  0.00    +0.030 A 
ATOM     23  C   UNL     1      10.131 -10.237  32.873  0.00  0.00    +0.004 A 
ATOM     24  C   UNL     1       8.633  -8.498  32.249  0.00  0.00    +0.111 A 
ATOM     25  C   UNL     1       8.829  -9.819  32.620  0.00  0.00    +0.020 A 
ENDBRANCH  20  21
ENDBRANCH  15   3
ENDBRANCH  10  15
TORSDOF 4
ENDMDL
