MODEL 1
REMARK VINA RESULT:      -4.6      0.000      0.000
REMARK  Name = 75536877
REMARK  5 active torsions:
REMARK  status: ('A' for Active; 'I' for Inactive)
REMARK    1  A    between atoms: O_5  and  C_9
REMARK    2  A    between atoms: O_5  and  C_18
REMARK    3  A    between atoms: C_14  and  C_15
REMARK    4  A    between atoms: C_16  and  C_20
REMARK    5  A    between atoms: C_19  and  C_23
REMARK                            x       y       z     vdW  Elec       q    Type
REMARK                         _______ _______ _______ _____ _____    ______ ____
ROOT
ATOM      4  O   UNL     1      -4.316  -2.954  23.942  0.00  0.00    -0.375 OA
ATOM      7  O   UNL     1       0.139  -1.656  25.843  0.00  0.00    -0.270 OA
ATOM      8  N   UNL     1      -1.625  -1.582  24.299  0.00  0.00    -0.292 N 
ATOM      9  C   UNL     1      -3.822  -0.496  23.997  0.00  0.00    +0.216 C 
ATOM     10  C   UNL     1      -2.467  -0.815  23.368  0.00  0.00    +0.155 C 
ATOM     11  C   UNL     1      -1.968  -2.995  24.474  0.00  0.00    +0.136 C 
ATOM     12  C   UNL     1      -4.842  -1.634  23.878  0.00  0.00    +0.206 C 
ATOM     13  C   UNL     1      -3.389  -3.189  24.996  0.00  0.00    +0.179 C 
ATOM     14  C   UNL     1      -0.560  -1.045  25.037  0.00  0.00    +0.250 C 
ENDROOT
BRANCH  14  15
ATOM      6  O   UNL     1       0.772   2.223  24.059  0.00  0.00    -0.455 OA
ATOM     15  C   UNL     1      -0.234   0.374  24.848  0.00  0.00    +0.087 A 
ATOM     16  C   UNL     1       0.723   0.866  23.991  0.00  0.00    +0.220 A 
ATOM     17  C   UNL     1      -0.811   1.500  25.482  0.00  0.00    +0.058 A 
ATOM     19  C   UNL     1      -0.164   2.601  24.968  0.00  0.00    +0.103 A 
ATOM     23  C   UNL     1      -0.294   4.045  25.205  0.00  0.00    +0.086 C 
BRANCH  16  20
ATOM      1  F   UNL     1       1.105  -0.154  21.862  0.00  0.00    -0.163 F 
ATOM      2  F   UNL     1       2.261  -0.908  23.535  0.00  0.00    -0.163 F 
ATOM      3  F   UNL     1       2.710   1.049  22.700  0.00  0.00    -0.163 F 
ATOM     20  C   UNL     1       1.665   0.234  23.056  0.00  0.00    +0.451 C 
ENDBRANCH  16  20
ENDBRANCH  14  15
BRANCH   9   5
ATOM      5  O   UNL     1      -4.356   0.670  23.373  0.00  0.00    -0.485 OA
BRANCH   5  18
ATOM     18  C   UNL     1      -4.471   1.784  24.156  0.00  0.00    +0.121 A 
ATOM     21  C   UNL     1      -5.353   1.789  25.237  0.00  0.00    +0.045 A 
ATOM     22  C   UNL     1      -3.707   2.916  23.877  0.00  0.00    +0.045 A 
ATOM     24  C   UNL     1      -5.471   2.924  26.037  0.00  0.00    +0.004 A 
ATOM     25  C   UNL     1      -3.824   4.053  24.677  0.00  0.00    +0.004 A 
ATOM     26  C   UNL     1      -4.706   4.056  25.757  0.00  0.00    +0.000 A 
ENDBRANCH   5  18
ENDBRANCH   9   5
TORSDOF 4
ENDMDL
MODEL 2
REMARK VINA RESULT:      -4.5      1.964      4.257
REMARK  Name = 75536877
REMARK  5 active torsions:
REMARK  status: ('A' for Active; 'I' for Inactive)
REMARK    1  A    between atoms: O_5  and  C_9
REMARK    2  A    between atoms: O_5  and  C_18
REMARK    3  A    between atoms: C_14  and  C_15
REMARK    4  A    between atoms: C_16  and  C_20
REMARK    5  A    between atoms: C_19  and  C_23
REMARK                            x       y       z     vdW  Elec       q    Type
REMARK                         _______ _______ _______ _____ _____    ______ ____
ROOT
ATOM      4  O   UNL     1      -0.604  -2.789  25.439  0.00  0.00    -0.375 OA
ATOM      7  O   UNL     1      -4.706  -1.079  23.118  0.00  0.00    -0.270 OA
ATOM      8  N   UNL     1      -3.151  -1.228  24.867  0.00  0.00    -0.292 N 
ATOM      9  C   UNL     1      -0.953  -0.308  25.519  0.00  0.00    +0.216 C 
ATOM     10  C   UNL     1      -2.392  -0.584  25.951  0.00  0.00    +0.155 C 
ATOM     11  C   UNL     1      -2.865  -2.643  24.624  0.00  0.00    +0.136 C 
ATOM     12  C   UNL     1      -0.020  -1.514  25.670  0.00  0.00    +0.206 C 
ATOM     13  C   UNL     1      -1.402  -2.890  24.266  0.00  0.00    +0.179 C 
ATOM     14  C   UNL     1      -4.083  -0.572  24.050  0.00  0.00    +0.250 C 
ENDROOT
BRANCH  14  15
ATOM      6  O   UNL     1      -4.226   3.085  24.147  0.00  0.00    -0.455 OA
ATOM     15  C   UNL     1      -4.353   0.848  24.309  0.00  0.00    +0.087 A 
ATOM     16  C   UNL     1      -3.749   1.905  23.670  0.00  0.00    +0.220 A 
ATOM     17  C   UNL     1      -5.259   1.413  25.238  0.00  0.00    +0.058 A 
ATOM     19  C   UNL     1      -5.144   2.778  25.100  0.00  0.00    +0.103 A 
ATOM     23  C   UNL     1      -5.800   3.914  25.760  0.00  0.00    +0.086 C 
BRANCH  16  20
ATOM      1  F   UNL     1      -3.163   1.610  21.370  0.00  0.00    -0.163 F 
ATOM      2  F   UNL     1      -1.609   1.238  22.836  0.00  0.00    -0.163 F 
ATOM      3  F   UNL     1      -2.253   3.275  22.431  0.00  0.00    -0.163 F 
ATOM     20  C   UNL     1      -2.730   2.001  22.614  0.00  0.00    +0.451 C 
ENDBRANCH  16  20
ENDBRANCH  14  15
BRANCH   9   5
ATOM      5  O   UNL     1      -0.439   0.774  26.293  0.00  0.00    -0.485 OA
BRANCH   5  18
ATOM     18  C   UNL     1      -0.564   2.024  25.754  0.00  0.00    +0.121 A 
ATOM     21  C   UNL     1      -1.530   2.902  26.245  0.00  0.00    +0.045 A 
ATOM     22  C   UNL     1       0.275   2.422  24.714  0.00  0.00    +0.045 A 
ATOM     24  C   UNL     1      -1.657   4.177  25.695  0.00  0.00    +0.004 A 
ATOM     25  C   UNL     1       0.148   3.698  24.164  0.00  0.00    +0.004 A 
ATOM     26  C   UNL     1      -0.818   4.575  24.655  0.00  0.00    +0.000 A 
ENDBRANCH   5  18
ENDBRANCH   9   5
TORSDOF 4
ENDMDL
MODEL 3
REMARK VINA RESULT:      -3.8      2.573      4.928
REMARK  Name = 75536877
REMARK  5 active torsions:
REMARK  status: ('A' for Active; 'I' for Inactive)
REMARK    1  A    between atoms: O_5  and  C_9
REMARK    2  A    between atoms: O_5  and  C_18
REMARK    3  A    between atoms: C_14  and  C_15
REMARK    4  A    between atoms: C_16  and  C_20
REMARK    5  A    between atoms: C_19  and  C_23
REMARK                            x       y       z     vdW  Elec       q    Type
REMARK                         _______ _______ _______ _____ _____    ______ ____
ROOT
ATOM      4  O   UNL     1      -5.902   3.092  26.405  0.00  0.00    -0.375 OA
ATOM      7  O   UNL     1      -1.478   4.653  24.635  0.00  0.00    -0.270 OA
ATOM      8  N   UNL     1      -2.965   3.128  25.617  0.00  0.00    -0.292 N 
ATOM      9  C   UNL     1      -4.664   1.461  24.959  0.00  0.00    +0.216 C 
ATOM     10  C   UNL     1      -3.424   1.742  25.804  0.00  0.00    +0.155 C 
ATOM     11  C   UNL     1      -3.753   4.170  26.277  0.00  0.00    +0.136 C 
ATOM     12  C   UNL     1      -5.974   1.915  25.611  0.00  0.00    +0.206 C 
ATOM     13  C   UNL     1      -5.207   4.184  25.814  0.00  0.00    +0.179 C 
ATOM     14  C   UNL     1      -1.864   3.502  24.833  0.00  0.00    +0.250 C 
ENDROOT
BRANCH  14  15
ATOM      6  O   UNL     1      -0.518   0.848  22.699  0.00  0.00    -0.455 OA
ATOM     15  C   UNL     1      -1.088   2.441  24.178  0.00  0.00    +0.087 A 
ATOM     16  C   UNL     1      -1.461   1.766  23.039  0.00  0.00    +0.220 A 
ATOM     17  C   UNL     1       0.164   1.904  24.563  0.00  0.00    +0.058 A 
ATOM     19  C   UNL     1       0.466   0.938  23.630  0.00  0.00    +0.103 A 
ATOM     23  C   UNL     1       1.607   0.028  23.460  0.00  0.00    +0.086 C 
BRANCH  16  20
ATOM      1  F   UNL     1      -2.338   2.116  20.842  0.00  0.00    -0.163 F 
ATOM      2  F   UNL     1      -3.545   2.811  22.504  0.00  0.00    -0.163 F 
ATOM      3  F   UNL     1      -3.362   0.680  22.113  0.00  0.00    -0.163 F 
ATOM     20  C   UNL     1      -2.634   1.843  22.156  0.00  0.00    +0.451 C 
ENDBRANCH  16  20
ENDBRANCH  14  15
BRANCH   9   5
ATOM      5  O   UNL     1      -4.737   0.060  24.701  0.00  0.00    -0.485 OA
BRANCH   5  18
ATOM     18  C   UNL     1      -3.579  -0.649  24.848  0.00  0.00    +0.121 A 
ATOM     21  C   UNL     1      -3.327  -1.752  24.031  0.00  0.00    +0.045 A 
ATOM     22  C   UNL     1      -2.647  -0.272  25.814  0.00  0.00    +0.045 A 
ATOM     24  C   UNL     1      -2.145  -2.476  24.180  0.00  0.00    +0.004 A 
ATOM     25  C   UNL     1      -1.464  -0.997  25.964  0.00  0.00    +0.004 A 
ATOM     26  C   UNL     1      -1.213  -2.098  25.146  0.00  0.00    +0.000 A 
ENDBRANCH   5  18
ENDBRANCH   9   5
TORSDOF 4
ENDMDL
MODEL 4
REMARK VINA RESULT:      -3.0      3.256      5.115
REMARK  Name = 75536877
REMARK  5 active torsions:
REMARK  status: ('A' for Active; 'I' for Inactive)
REMARK    1  A    between atoms: O_5  and  C_9
REMARK    2  A    between atoms: O_5  and  C_18
REMARK    3  A    between atoms: C_14  and  C_15
REMARK    4  A    between atoms: C_16  and  C_20
REMARK    5  A    between atoms: C_19  and  C_23
REMARK                            x       y       z     vdW  Elec       q    Type
REMARK                         _______ _______ _______ _____ _____    ______ ____
ROOT
ATOM      4  O   UNL     1      -0.110  -2.217  25.008  0.00  0.00    -0.375 OA
ATOM      7  O   UNL     1      -4.822  -0.919  23.890  0.00  0.00    -0.270 OA
ATOM      8  N   UNL     1      -2.708  -0.641  24.866  0.00  0.00    -0.292 N 
ATOM      9  C   UNL     1      -0.447   0.156  24.273  0.00  0.00    +0.216 C 
ATOM     10  C   UNL     1      -1.601   0.240  25.270  0.00  0.00    +0.155 C 
ATOM     11  C   UNL     1      -2.512  -2.076  25.086  0.00  0.00    +0.136 C 
ATOM     12  C   UNL     1       0.494  -1.029  24.513  0.00  0.00    +0.206 C 
ATOM     13  C   UNL     1      -1.299  -2.621  24.338  0.00  0.00    +0.179 C 
ATOM     14  C   UNL     1      -3.896  -0.201  24.265  0.00  0.00    +0.250 C 
ENDROOT
BRANCH  14  15
ATOM      6  O   UNL     1      -4.841   3.336  24.313  0.00  0.00    -0.455 OA
ATOM     15  C   UNL     1      -4.071   1.241  24.052  0.00  0.00    +0.087 A 
ATOM     16  C   UNL     1      -4.920   2.056  24.764  0.00  0.00    +0.220 A 
ATOM     17  C   UNL     1      -3.429   2.072  23.104  0.00  0.00    +0.058 A 
ATOM     19  C   UNL     1      -3.932   3.338  23.304  0.00  0.00    +0.103 A 
ATOM     23  C   UNL     1      -3.679   4.633  22.660  0.00  0.00    +0.086 C 
BRANCH  16  20
ATOM      1  F   UNL     1      -5.871   2.809  26.825  0.00  0.00    -0.163 F 
ATOM      2  F   UNL     1      -5.617   0.669  26.583  0.00  0.00    -0.163 F 
ATOM      3  F   UNL     1      -7.164   1.710  25.466  0.00  0.00    -0.163 F 
ATOM     20  C   UNL     1      -5.858   1.819  25.871  0.00  0.00    +0.451 C 
ENDBRANCH  16  20
ENDBRANCH  14  15
BRANCH   9   5
ATOM      5  O   UNL     1       0.306   1.365  24.338  0.00  0.00    -0.485 OA
BRANCH   5  18
ATOM     18  C   UNL     1      -0.361   2.478  24.767  0.00  0.00    +0.121 A 
ATOM     21  C   UNL     1      -1.190   2.406  25.887  0.00  0.00    +0.045 A 
ATOM     22  C   UNL     1      -0.214   3.687  24.087  0.00  0.00    +0.045 A 
ATOM     24  C   UNL     1      -1.871   3.541  26.326  0.00  0.00    +0.004 A 
ATOM     25  C   UNL     1      -0.895   4.822  24.526  0.00  0.00    +0.004 A 
ATOM     26  C   UNL     1      -1.723   4.749  25.646  0.00  0.00    +0.000 A 
ENDBRANCH   5  18
ENDBRANCH   9   5
TORSDOF 4
ENDMDL
MODEL 5
REMARK VINA RESULT:      -2.3      3.526      6.097
REMARK  Name = 75536877
REMARK  5 active torsions:
REMARK  status: ('A' for Active; 'I' for Inactive)
REMARK    1  A    between atoms: O_5  and  C_9
REMARK    2  A    between atoms: O_5  and  C_18
REMARK    3  A    between atoms: C_14  and  C_15
REMARK    4  A    between atoms: C_16  and  C_20
REMARK    5  A    between atoms: C_19  and  C_23
REMARK                            x       y       z     vdW  Elec       q    Type
REMARK                         _______ _______ _______ _____ _____    ______ ____
ROOT
ATOM      4  O   UNL     1      -1.144  -2.667  24.827  0.00  0.00    -0.375 OA
ATOM      7  O   UNL     1      -5.100   0.415  24.830  0.00  0.00    -0.270 OA
ATOM      8  N   UNL     1      -2.932  -0.274  25.401  0.00  0.00    -0.292 N 
ATOM      9  C   UNL     1      -0.639  -0.236  24.484  0.00  0.00    +0.216 C 
ATOM     10  C   UNL     1      -1.528   0.059  25.691  0.00  0.00    +0.155 C 
ATOM     11  C   UNL     1      -3.275  -1.697  25.391  0.00  0.00    +0.136 C 
ATOM     12  C   UNL     1      -0.202  -1.700  24.380  0.00  0.00    +0.206 C 
ATOM     13  C   UNL     1      -2.475  -2.483  24.356  0.00  0.00    +0.179 C 
ATOM     14  C   UNL     1      -3.928   0.668  25.106  0.00  0.00    +0.250 C 
ENDROOT
BRANCH  14  15
ATOM      6  O   UNL     1      -3.766   4.321  25.294  0.00  0.00    -0.455 OA
ATOM     15  C   UNL     1      -3.562   2.090  25.119  0.00  0.00    +0.087 A 
ATOM     16  C   UNL     1      -4.426   3.134  25.354  0.00  0.00    +0.220 A 
ATOM     17  C   UNL     1      -2.290   2.671  24.901  0.00  0.00    +0.058 A 
ATOM     19  C   UNL     1      -2.468   4.031  25.018  0.00  0.00    +0.103 A 
ATOM     23  C   UNL     1      -1.556   5.177  24.908  0.00  0.00    +0.086 C 
BRANCH  16  20
ATOM      1  F   UNL     1      -6.368   4.490  25.687  0.00  0.00    -0.163 F 
ATOM      2  F   UNL     1      -6.230   2.665  26.852  0.00  0.00    -0.163 F 
ATOM      3  F   UNL     1      -6.644   2.562  24.720  0.00  0.00    -0.163 F 
ATOM     20  C   UNL     1      -5.865   3.211  25.645  0.00  0.00    +0.451 C 
ENDBRANCH  16  20
ENDBRANCH  14  15
BRANCH   9   5
ATOM      5  O   UNL     1       0.523   0.589  24.556  0.00  0.00    -0.485 OA
BRANCH   5  18
ATOM     18  C   UNL     1       1.431   0.456  23.543  0.00  0.00    +0.121 A 
ATOM     21  C   UNL     1       1.094  -0.260  22.394  0.00  0.00    +0.045 A 
ATOM     22  C   UNL     1       2.694   1.035  23.657  0.00  0.00    +0.045 A 
ATOM     24  C   UNL     1       2.019  -0.397  21.360  0.00  0.00    +0.004 A 
ATOM     25  C   UNL     1       3.620   0.898  22.623  0.00  0.00    +0.004 A 
ATOM     26  C   UNL     1       3.282   0.183  21.474  0.00  0.00    +0.000 A 
ENDBRANCH   5  18
ENDBRANCH   9   5
TORSDOF 4
ENDMDL
MODEL 6
REMARK VINA RESULT:      -2.0      2.598      4.858
REMARK  Name = 75536877
REMARK  5 active torsions:
REMARK  status: ('A' for Active; 'I' for Inactive)
REMARK    1  A    between atoms: O_5  and  C_9
REMARK    2  A    between atoms: O_5  and  C_18
REMARK    3  A    between atoms: C_14  and  C_15
REMARK    4  A    between atoms: C_16  and  C_20
REMARK    5  A    between atoms: C_19  and  C_23
REMARK                            x       y       z     vdW  Elec       q    Type
REMARK                         _______ _______ _______ _____ _____    ______ ____
ROOT
ATOM      4  O   UNL     1      -6.551   2.568  25.546  0.00  0.00    -0.375 OA
ATOM      7  O   UNL     1      -2.066   4.576  24.550  0.00  0.00    -0.270 OA
ATOM      8  N   UNL     1      -3.538   2.953  25.385  0.00  0.00    -0.292 N 
ATOM      9  C   UNL     1      -4.836   1.003  24.602  0.00  0.00    +0.216 C 
ATOM     10  C   UNL     1      -3.857   1.540  25.644  0.00  0.00    +0.155 C 
ATOM     11  C   UNL     1      -4.573   3.929  25.732  0.00  0.00    +0.136 C 
ATOM     12  C   UNL     1      -6.302   1.323  24.907  0.00  0.00    +0.206 C 
ATOM     13  C   UNL     1      -5.879   3.688  24.980  0.00  0.00    +0.179 C 
ATOM     14  C   UNL     1      -2.344   3.406  24.805  0.00  0.00    +0.250 C 
ENDROOT
BRANCH  14  15
ATOM      6  O   UNL     1       0.455   1.049  24.673  0.00  0.00    -0.455 OA
ATOM     15  C   UNL     1      -1.320   2.411  24.463  0.00  0.00    +0.087 A 
ATOM     16  C   UNL     1      -0.323   1.970  25.301  0.00  0.00    +0.220 A 
ATOM     17  C   UNL     1      -1.145   1.717  23.241  0.00  0.00    +0.058 A 
ATOM     19  C   UNL     1      -0.051   0.901  23.421  0.00  0.00    +0.103 A 
ATOM     23  C   UNL     1       0.640  -0.061  22.551  0.00  0.00    +0.086 C 
BRANCH  16  20
ATOM      1  F   UNL     1       1.317   2.798  26.832  0.00  0.00    -0.163 F 
ATOM      2  F   UNL     1       0.015   1.217  27.545  0.00  0.00    -0.163 F 
ATOM      3  F   UNL     1      -0.769   3.225  27.269  0.00  0.00    -0.163 F 
ATOM     20  C   UNL     1       0.049   2.289  26.687  0.00  0.00    +0.451 C 
ENDBRANCH  16  20
ENDBRANCH  14  15
BRANCH   9   5
ATOM      5  O   UNL     1      -4.680  -0.412  24.511  0.00  0.00    -0.485 OA
BRANCH   5  18
ATOM     18  C   UNL     1      -3.445  -0.912  24.817  0.00  0.00    +0.121 A 
ATOM     21  C   UNL     1      -2.779  -1.732  23.906  0.00  0.00    +0.045 A 
ATOM     22  C   UNL     1      -2.850  -0.603  26.040  0.00  0.00    +0.045 A 
ATOM     24  C   UNL     1      -1.519  -2.242  24.217  0.00  0.00    +0.004 A 
ATOM     25  C   UNL     1      -1.590  -1.113  26.352  0.00  0.00    +0.004 A 
ATOM     26  C   UNL     1      -0.925  -1.932  25.440  0.00  0.00    +0.000 A 
ENDBRANCH   5  18
ENDBRANCH   9   5
TORSDOF 4
ENDMDL
MODEL 7
REMARK VINA RESULT:      -1.5      3.482      6.746
REMARK  Name = 75536877
REMARK  5 active torsions:
REMARK  status: ('A' for Active; 'I' for Inactive)
REMARK    1  A    between atoms: O_5  and  C_9
REMARK    2  A    between atoms: O_5  and  C_18
REMARK    3  A    between atoms: C_14  and  C_15
REMARK    4  A    between atoms: C_16  and  C_20
REMARK    5  A    between atoms: C_19  and  C_23
REMARK                            x       y       z     vdW  Elec       q    Type
REMARK                         _______ _______ _______ _____ _____    ______ ____
ROOT
ATOM      4  O   UNL     1       0.145   4.564  25.218  0.00  0.00    -0.375 OA
ATOM      7  O   UNL     1      -4.453   3.691  23.420  0.00  0.00    -0.270 OA
ATOM      8  N   UNL     1      -2.234   3.152  23.955  0.00  0.00    -0.292 N 
ATOM      9  C   UNL     1      -0.893   2.381  25.881  0.00  0.00    +0.216 C 
ATOM     10  C   UNL     1      -1.241   2.166  24.409  0.00  0.00    +0.155 C 
ATOM     11  C   UNL     1      -1.745   4.513  23.727  0.00  0.00    +0.136 C 
ATOM     12  C   UNL     1       0.167   3.462  26.116  0.00  0.00    +0.206 C 
ATOM     13  C   UNL     1      -1.137   5.133  24.982  0.00  0.00    +0.179 C 
ATOM     14  C   UNL     1      -3.597   2.879  23.768  0.00  0.00    +0.250 C 
ENDROOT
BRANCH  14  15
ATOM      6  O   UNL     1      -5.251  -0.200  24.858  0.00  0.00    -0.455 OA
ATOM     15  C   UNL     1      -4.067   1.508  24.004  0.00  0.00    +0.087 A 
ATOM     16  C   UNL     1      -5.062   1.146  24.882  0.00  0.00    +0.220 A 
ATOM     17  C   UNL     1      -3.616   0.309  23.402  0.00  0.00    +0.058 A 
ATOM     19  C   UNL     1      -4.368  -0.702  23.956  0.00  0.00    +0.103 A 
ATOM     23  C   UNL     1      -4.395  -2.157  23.761  0.00  0.00    +0.086 C 
BRANCH  16  20
ATOM      1  F   UNL     1      -6.504   1.142  26.790  0.00  0.00    -0.163 F 
ATOM      2  F   UNL     1      -6.985   2.533  25.197  0.00  0.00    -0.163 F 
ATOM      3  F   UNL     1      -5.263   2.899  26.474  0.00  0.00    -0.163 F 
ATOM     20  C   UNL     1      -5.925   1.902  25.802  0.00  0.00    +0.451 C 
ENDBRANCH  16  20
ENDBRANCH  14  15
BRANCH   9   5
ATOM      5  O   UNL     1      -0.427   1.149  26.428  0.00  0.00    -0.485 OA
BRANCH   5  18
ATOM     18  C   UNL     1      -0.623   0.030  25.669  0.00  0.00    +0.121 A 
ATOM     21  C   UNL     1      -0.046  -0.063  24.402  0.00  0.00    +0.045 A 
ATOM     22  C   UNL     1      -1.399  -1.020  26.159  0.00  0.00    +0.045 A 
ATOM     24  C   UNL     1      -0.246  -1.204  23.626  0.00  0.00    +0.004 A 
ATOM     25  C   UNL     1      -1.599  -2.162  25.383  0.00  0.00    +0.004 A 
ATOM     26  C   UNL     1      -1.021  -2.254  24.117  0.00  0.00    +0.000 A 
ENDBRANCH   5  18
ENDBRANCH   9   5
TORSDOF 4
ENDMDL
MODEL 8
REMARK VINA RESULT:      -1.5      2.505      4.846
REMARK  Name = 75536877
REMARK  5 active torsions:
REMARK  status: ('A' for Active; 'I' for Inactive)
REMARK    1  A    between atoms: O_5  and  C_9
REMARK    2  A    between atoms: O_5  and  C_18
REMARK    3  A    between atoms: C_14  and  C_15
REMARK    4  A    between atoms: C_16  and  C_20
REMARK    5  A    between atoms: C_19  and  C_23
REMARK                            x       y       z     vdW  Elec       q    Type
REMARK                         _______ _______ _______ _____ _____    ______ ____
ROOT
ATOM      4  O   UNL     1       1.204  -0.289  23.818  0.00  0.00    -0.375 OA
ATOM      7  O   UNL     1      -3.646  -0.724  22.622  0.00  0.00    -0.270 OA
ATOM      8  N   UNL     1      -1.827  -0.374  24.060  0.00  0.00    -0.292 N 
ATOM      9  C   UNL     1      -0.324   1.445  24.791  0.00  0.00    +0.216 C 
ATOM     10  C   UNL     1      -1.243   0.305  25.228  0.00  0.00    +0.155 C 
ATOM     11  C   UNL     1      -0.938  -1.266  23.313  0.00  0.00    +0.136 C 
ATOM     12  C   UNL     1       1.094   0.992  24.427  0.00  0.00    +0.206 C 
ATOM     13  C   UNL     1       0.286  -0.541  22.761  0.00  0.00    +0.179 C 
ATOM     14  C   UNL     1      -3.143  -0.193  23.612  0.00  0.00    +0.250 C 
ENDROOT
BRANCH  14  15
ATOM      6  O   UNL     1      -5.075   2.585  25.010  0.00  0.00    -0.455 OA
ATOM     15  C   UNL     1      -4.017   0.707  24.374  0.00  0.00    +0.087 A 
ATOM     16  C   UNL     1      -4.203   2.046  24.118  0.00  0.00    +0.220 A 
ATOM     17  C   UNL     1      -4.827   0.403  25.494  0.00  0.00    +0.058 A 
ATOM     19  C   UNL     1      -5.450   1.580  25.843  0.00  0.00    +0.103 A 
ATOM     23  C   UNL     1      -6.405   1.936  26.901  0.00  0.00    +0.086 C 
BRANCH  16  20
ATOM      1  F   UNL     1      -3.901   4.295  23.365  0.00  0.00    -0.163 F 
ATOM      2  F   UNL     1      -4.159   2.775  21.841  0.00  0.00    -0.163 F 
ATOM      3  F   UNL     1      -2.300   2.881  22.964  0.00  0.00    -0.163 F 
ATOM     20  C   UNL     1      -3.662   2.967  23.107  0.00  0.00    +0.451 C 
ENDBRANCH  16  20
ENDBRANCH  14  15
BRANCH   9   5
ATOM      5  O   UNL     1      -0.246   2.403  25.845  0.00  0.00    -0.485 OA
BRANCH   5  18
ATOM     18  C   UNL     1      -0.940   3.567  25.664  0.00  0.00    +0.121 A 
ATOM     21  C   UNL     1      -2.157   3.762  26.318  0.00  0.00    +0.045 A 
ATOM     22  C   UNL     1      -0.433   4.559  24.826  0.00  0.00    +0.045 A 
ATOM     24  C   UNL     1      -2.865   4.949  26.134  0.00  0.00    +0.004 A 
ATOM     25  C   UNL     1      -1.141   5.747  24.642  0.00  0.00    +0.004 A 
ATOM     26  C   UNL     1      -2.357   5.942  25.297  0.00  0.00    +0.000 A 
ENDBRANCH   5  18
ENDBRANCH   9   5
TORSDOF 4
ENDMDL
MODEL 9
REMARK VINA RESULT:      -1.4      1.820      4.621
REMARK  Name = 75536877
REMARK  5 active torsions:
REMARK  status: ('A' for Active; 'I' for Inactive)
REMARK    1  A    between atoms: O_5  and  C_9
REMARK    2  A    between atoms: O_5  and  C_18
REMARK    3  A    between atoms: C_14  and  C_15
REMARK    4  A    between atoms: C_16  and  C_20
REMARK    5  A    between atoms: C_19  and  C_23
REMARK                            x       y       z     vdW  Elec       q    Type
REMARK                         _______ _______ _______ _____ _____    ______ ____
ROOT
ATOM      4  O   UNL     1      -2.911   4.968  25.577  0.00  0.00    -0.375 OA
ATOM      7  O   UNL     1       1.061   2.717  23.502  0.00  0.00    -0.270 OA
ATOM      8  N   UNL     1      -0.669   2.977  25.064  0.00  0.00    -0.292 N 
ATOM      9  C   UNL     1      -3.076   2.480  25.313  0.00  0.00    +0.216 C 
ATOM     10  C   UNL     1      -1.687   2.380  25.943  0.00  0.00    +0.155 C 
ATOM     11  C   UNL     1      -0.631   4.440  25.011  0.00  0.00    +0.136 C 
ATOM     12  C   UNL     1      -3.763   3.830  25.542  0.00  0.00    +0.206 C 
ATOM     13  C   UNL     1      -1.949   5.041  24.532  0.00  0.00    +0.179 C 
ATOM     14  C   UNL     1       0.222   2.244  24.267  0.00  0.00    +0.250 C 
ENDROOT
BRANCH  14  15
ATOM      6  O   UNL     1       0.693  -1.374  23.963  0.00  0.00    -0.455 OA
ATOM     15  C   UNL     1       0.165   0.778  24.334  0.00  0.00    +0.087 A 
ATOM     16  C   UNL     1       1.022  -0.084  23.691  0.00  0.00    +0.220 A 
ATOM     17  C   UNL     1      -0.749  -0.034  25.048  0.00  0.00    +0.058 A 
ATOM     19  C   UNL     1      -0.385  -1.336  24.788  0.00  0.00    +0.103 A 
ATOM     23  C   UNL     1      -0.919  -2.634  25.221  0.00  0.00    +0.086 C 
BRANCH  16  20
ATOM      1  F   UNL     1       2.822   1.315  22.968  0.00  0.00    -0.163 F 
ATOM      2  F   UNL     1       1.877   0.073  21.462  0.00  0.00    -0.163 F 
ATOM      3  F   UNL     1       3.159  -0.832  22.966  0.00  0.00    -0.163 F 
ATOM     20  C   UNL     1       2.177   0.113  22.803  0.00  0.00    +0.451 C 
ENDBRANCH  16  20
ENDBRANCH  14  15
BRANCH   9   5
ATOM      5  O   UNL     1      -3.899   1.446  25.848  0.00  0.00    -0.485 OA
BRANCH   5  18
ATOM     18  C   UNL     1      -3.902   0.257  25.174  0.00  0.00    +0.121 A 
ATOM     21  C   UNL     1      -3.902   0.246  23.779  0.00  0.00    +0.045 A 
ATOM     22  C   UNL     1      -3.905  -0.946  25.879  0.00  0.00    +0.045 A 
ATOM     24  C   UNL     1      -3.905  -0.966  23.090  0.00  0.00    +0.004 A 
ATOM     25  C   UNL     1      -3.908  -2.159  25.191  0.00  0.00    +0.004 A 
ATOM     26  C   UNL     1      -3.907  -2.169  23.796  0.00  0.00    +0.000 A 
ENDBRANCH   5  18
ENDBRANCH   9   5
TORSDOF 4
ENDMDL
MODEL 10
REMARK VINA RESULT:      -1.0      2.558      3.608
REMARK  Name = 75536877
REMARK  5 active torsions:
REMARK  status: ('A' for Active; 'I' for Inactive)
REMARK    1  A    between atoms: O_5  and  C_9
REMARK    2  A    between atoms: O_5  and  C_18
REMARK    3  A    between atoms: C_14  and  C_15
REMARK    4  A    between atoms: C_16  and  C_20
REMARK    5  A    between atoms: C_19  and  C_23
REMARK                            x       y       z     vdW  Elec       q    Type
REMARK                         _______ _______ _______ _____ _____    ______ ____
ROOT
ATOM      4  O   UNL     1      -1.230  -2.786  25.270  0.00  0.00    -0.375 OA
ATOM      7  O   UNL     1       0.570   1.694  23.917  0.00  0.00    -0.270 OA
ATOM      8  N   UNL     1      -0.943  -0.097  23.877  0.00  0.00    -0.292 N 
ATOM      9  C   UNL     1      -2.911  -0.932  25.115  0.00  0.00    +0.216 C 
ATOM     10  C   UNL     1      -2.322  -0.592  23.746  0.00  0.00    +0.155 C 
ATOM     11  C   UNL     1       0.085  -1.100  24.162  0.00  0.00    +0.136 C 
ATOM     12  C   UNL     1      -2.528  -2.325  25.625  0.00  0.00    +0.206 C 
ATOM     13  C   UNL     1      -0.177  -1.849  25.466  0.00  0.00    +0.179 C 
ATOM     14  C   UNL     1      -0.570   1.251  23.781  0.00  0.00    +0.250 C 
ENDROOT
BRANCH  14  15
ATOM      6  O   UNL     1      -2.899   4.075  23.699  0.00  0.00    -0.455 OA
ATOM     15  C   UNL     1      -1.616   2.241  23.497  0.00  0.00    +0.087 A 
ATOM     16  C   UNL     1      -1.862   3.377  24.232  0.00  0.00    +0.220 A 
ATOM     17  C   UNL     1      -2.562   2.240  22.444  0.00  0.00    +0.058 A 
ATOM     19  C   UNL     1      -3.320   3.377  22.612  0.00  0.00    +0.103 A 
ATOM     23  C   UNL     1      -4.447   3.953  21.866  0.00  0.00    +0.086 C 
BRANCH  16  20
ATOM      1  F   UNL     1      -0.969   3.048  26.426  0.00  0.00    -0.163 F 
ATOM      2  F   UNL     1      -2.008   4.915  26.058  0.00  0.00    -0.163 F 
ATOM      3  F   UNL     1      -0.045   4.576  25.186  0.00  0.00    -0.163 F 
ATOM     20  C   UNL     1      -1.245   3.958  25.434  0.00  0.00    +0.451 C 
ENDBRANCH  16  20
ENDBRANCH  14  15
BRANCH   9   5
ATOM      5  O   UNL     1      -4.332  -0.841  25.040  0.00  0.00    -0.485 OA
BRANCH   5  18
ATOM     18  C   UNL     1      -4.872   0.408  25.161  0.00  0.00    +0.121 A 
ATOM     21  C   UNL     1      -6.122   0.686  24.606  0.00  0.00    +0.045 A 
ATOM     22  C   UNL     1      -4.175   1.407  25.840  0.00  0.00    +0.045 A 
ATOM     24  C   UNL     1      -6.673   1.960  24.730  0.00  0.00    +0.004 A 
ATOM     25  C   UNL     1      -4.726   2.683  25.965  0.00  0.00    +0.004 A 
ATOM     26  C   UNL     1      -5.976   2.959  25.410  0.00  0.00    +0.000 A 
ENDBRANCH   5  18
ENDBRANCH   9   5
TORSDOF 4
ENDMDL
