MODEL 1
REMARK VINA RESULT:      -5.0      0.000      0.000
REMARK  Name = 11884596
REMARK  9 active torsions:
REMARK  status: ('A' for Active; 'I' for Inactive)
REMARK    1  A    between atoms: O_3  and  C_10
REMARK    2  A    between atoms: O_3  and  C_16
REMARK    3  A    between atoms: N_5  and  C_9
REMARK    4  A    between atoms: N_5  and  C_13
REMARK    5  A    between atoms: N_6  and  C_19
REMARK    6  A    between atoms: C_13  and  C_14
REMARK    7  A    between atoms: C_14  and  C_15
REMARK    8  A    between atoms: C_15  and  C_17
REMARK    9  A    between atoms: C_15  and  C_18
REMARK                            x       y       z     vdW  Elec       q    Type
REMARK                         _______ _______ _______ _____ _____    ______ ____
ROOT
ATOM      3  O   UNL     1      -3.070  -1.941  24.380  0.00  0.00    -0.442 OA
ENDROOT
BRANCH   3  10
ATOM      1  O   UNL     1      -1.487   0.028  23.225  0.00  0.00    -0.369 OA
ATOM      2  O   UNL     1       0.349  -1.332  25.253  0.00  0.00    -0.369 OA
ATOM      7  C   UNL     1       0.437  -1.221  23.816  0.00  0.00    +0.170 C 
ATOM      8  C   UNL     1      -0.979  -1.317  23.284  0.00  0.00    +0.191 C 
ATOM      9  C   UNL     1       0.883   0.173  23.431  0.00  0.00    +0.111 C 
ATOM     10  C   UNL     1      -1.674  -2.129  24.351  0.00  0.00    +0.235 C 
ATOM     11  C   UNL     1      -0.423   0.950  23.511  0.00  0.00    +0.181 C 
ATOM     12  C   UNL     1      -1.006  -1.634  25.614  0.00  0.00    +0.207 C 
BRANCH   9   5
ATOM      5  N   UNL     1       1.402   0.213  22.065  0.00  0.00    -0.309 NA
ATOM     29  H   UNL     1       1.377   1.171  21.718  0.00  0.00    +0.122 HD
BRANCH   5  13
ATOM     13  C   UNL     1       2.767  -0.289  22.016  0.00  0.00    +0.081 C 
BRANCH  13  14
ATOM     14  C   UNL     1       3.697   0.635  22.803  0.00  0.00    +0.018 C 
BRANCH  14  15
ATOM     15  C   UNL     1       4.982  -0.063  23.290  0.00  0.00    -0.016 C 
ATOM     17  C   UNL     1       5.683   0.809  24.334  0.00  0.00    +0.007 C 
ATOM     18  C   UNL     1       4.708  -1.449  23.876  0.00  0.00    +0.007 C 
ENDBRANCH  14  15
ENDBRANCH  13  14
ENDBRANCH   5  13
ENDBRANCH   9   5
ENDBRANCH   3  10
BRANCH   3  16
ATOM      4  O   UNL     1      -3.647  -1.082  26.419  0.00  0.00    -0.226 OA
ATOM      6  N   UNL     1      -3.876   0.164  24.450  0.00  0.00    -0.251 N 
ATOM     16  C   UNL     1      -3.550  -0.946  25.206  0.00  0.00    +0.405 C 
ATOM     30  H   UNL     1      -3.711   0.054  23.458  0.00  0.00    +0.158 HD
BRANCH   6  19
ATOM     19  C   UNL     1      -4.398   1.398  24.898  0.00  0.00    +0.044 A 
ATOM     20  C   UNL     1      -3.563   2.486  25.167  0.00  0.00    +0.003 A 
ATOM     21  C   UNL     1      -5.775   1.479  25.061  0.00  0.00    +0.024 A 
ATOM     22  C   UNL     1      -4.143   3.698  25.614  0.00  0.00    -0.016 A 
ATOM     23  C   UNL     1      -2.169   2.411  25.005  0.00  0.00    +0.010 A 
ATOM     24  C   UNL     1      -6.346   2.671  25.501  0.00  0.00    +0.002 A 
ATOM     25  C   UNL     1      -5.536   3.773  25.776  0.00  0.00    +0.008 A 
ATOM     26  C   UNL     1      -3.313   4.797  25.887  0.00  0.00    +0.008 A 
ATOM     27  C   UNL     1      -1.360   3.513  25.281  0.00  0.00    +0.001 A 
ATOM     28  C   UNL     1      -1.930   4.704  25.721  0.00  0.00    +0.001 A 
ENDBRANCH   6  19
ENDBRANCH   3  16
TORSDOF 7
ENDMDL
MODEL 2
REMARK VINA RESULT:      -3.7      1.483      2.105
REMARK  Name = 11884596
REMARK  9 active torsions:
REMARK  status: ('A' for Active; 'I' for Inactive)
REMARK    1  A    between atoms: O_3  and  C_10
REMARK    2  A    between atoms: O_3  and  C_16
REMARK    3  A    between atoms: N_5  and  C_9
REMARK    4  A    between atoms: N_5  and  C_13
REMARK    5  A    between atoms: N_6  and  C_19
REMARK    6  A    between atoms: C_13  and  C_14
REMARK    7  A    between atoms: C_14  and  C_15
REMARK    8  A    between atoms: C_15  and  C_17
REMARK    9  A    between atoms: C_15  and  C_18
REMARK                            x       y       z     vdW  Elec       q    Type
REMARK                         _______ _______ _______ _____ _____    ______ ____
ROOT
ATOM      3  O   UNL     1      -4.929  -0.950  24.272  0.00  0.00    -0.442 OA
ENDROOT
BRANCH   3  10
ATOM      1  O   UNL     1      -2.505  -0.335  25.481  0.00  0.00    -0.369 OA
ATOM      2  O   UNL     1      -2.048  -3.077  24.216  0.00  0.00    -0.369 OA
ATOM      7  C   UNL     1      -1.418  -1.801  23.972  0.00  0.00    +0.170 C 
ATOM      8  C   UNL     1      -2.501  -0.748  24.104  0.00  0.00    +0.191 C 
ATOM      9  C   UNL     1      -0.451  -1.480  25.091  0.00  0.00    +0.111 C 
ATOM     10  C   UNL     1      -3.750  -1.519  23.750  0.00  0.00    +0.235 C 
ATOM     11  C   UNL     1      -1.385  -0.927  26.158  0.00  0.00    +0.181 C 
ATOM     12  C   UNL     1      -3.464  -2.881  24.342  0.00  0.00    +0.207 C 
BRANCH   9   5
ATOM      5  N   UNL     1       0.510  -0.453  24.691  0.00  0.00    -0.309 NA
ATOM     29  H   UNL     1       1.342  -0.518  25.277  0.00  0.00    +0.122 HD
BRANCH   5  13
ATOM     13  C   UNL     1       0.883  -0.611  23.294  0.00  0.00    +0.081 C 
BRANCH  13  14
ATOM     14  C   UNL     1       1.857   0.493  22.880  0.00  0.00    +0.018 C 
BRANCH  14  15
ATOM     15  C   UNL     1       3.282  -0.023  22.602  0.00  0.00    -0.016 C 
ATOM     17  C   UNL     1       4.286   1.123  22.743  0.00  0.00    +0.007 C 
ATOM     18  C   UNL     1       3.679  -1.173  23.529  0.00  0.00    +0.007 C 
ENDBRANCH  14  15
ENDBRANCH  13  14
ENDBRANCH   5  13
ENDBRANCH   9   5
ENDBRANCH   3  10
BRANCH   3  16
ATOM      4  O   UNL     1      -4.954   0.093  26.306  0.00  0.00    -0.226 OA
ATOM      6  N   UNL     1      -4.421   1.247  24.340  0.00  0.00    -0.251 N 
ATOM     16  C   UNL     1      -4.781   0.147  25.095  0.00  0.00    +0.405 C 
ATOM     30  H   UNL     1      -4.333   1.060  23.349  0.00  0.00    +0.158 HD
BRANCH   6  19
ATOM     19  C   UNL     1      -4.171   2.564  24.787  0.00  0.00    +0.044 A 
ATOM     20  C   UNL     1      -2.889   3.116  24.737  0.00  0.00    +0.003 A 
ATOM     21  C   UNL     1      -5.255   3.281  25.277  0.00  0.00    +0.024 A 
ATOM     22  C   UNL     1      -2.698   4.441  25.198  0.00  0.00    -0.016 A 
ATOM     23  C   UNL     1      -1.788   2.396  24.242  0.00  0.00    +0.010 A 
ATOM     24  C   UNL     1      -5.068   4.584  25.731  0.00  0.00    +0.002 A 
ATOM     25  C   UNL     1      -3.798   5.161  25.693  0.00  0.00    +0.008 A 
ATOM     26  C   UNL     1      -1.413   5.006  25.153  0.00  0.00    +0.008 A 
ATOM     27  C   UNL     1      -0.519   2.974  24.205  0.00  0.00    +0.001 A 
ATOM     28  C   UNL     1      -0.331   4.275  24.659  0.00  0.00    +0.001 A 
ENDBRANCH   6  19
ENDBRANCH   3  16
TORSDOF 7
ENDMDL
MODEL 3
REMARK VINA RESULT:      -3.4      2.052      4.533
REMARK  Name = 11884596
REMARK  9 active torsions:
REMARK  status: ('A' for Active; 'I' for Inactive)
REMARK    1  A    between atoms: O_3  and  C_10
REMARK    2  A    between atoms: O_3  and  C_16
REMARK    3  A    between atoms: N_5  and  C_9
REMARK    4  A    between atoms: N_5  and  C_13
REMARK    5  A    between atoms: N_6  and  C_19
REMARK    6  A    between atoms: C_13  and  C_14
REMARK    7  A    between atoms: C_14  and  C_15
REMARK    8  A    between atoms: C_15  and  C_17
REMARK    9  A    between atoms: C_15  and  C_18
REMARK                            x       y       z     vdW  Elec       q    Type
REMARK                         _______ _______ _______ _____ _____    ______ ____
ROOT
ATOM      3  O   UNL     1      -3.820   3.508  25.749  0.00  0.00    -0.442 OA
ENDROOT
BRANCH   3  10
ATOM      1  O   UNL     1      -1.946   2.295  24.095  0.00  0.00    -0.369 OA
ATOM      2  O   UNL     1      -0.554   4.824  25.095  0.00  0.00    -0.369 OA
ATOM      7  C   UNL     1      -0.228   3.428  25.268  0.00  0.00    +0.170 C 
ATOM      8  C   UNL     1      -1.543   2.689  25.418  0.00  0.00    +0.191 C 
ATOM      9  C   UNL     1       0.364   2.874  23.991  0.00  0.00    +0.111 C 
ATOM     10  C   UNL     1      -2.452   3.754  25.984  0.00  0.00    +0.235 C 
ATOM     11  C   UNL     1      -0.884   2.583  23.171  0.00  0.00    +0.181 C 
ATOM     12  C   UNL     1      -1.967   4.998  25.276  0.00  0.00    +0.207 C 
BRANCH   9   5
ATOM      5  N   UNL     1       1.098   1.633  24.235  0.00  0.00    -0.309 NA
ATOM     29  H   UNL     1       0.913   1.307  25.183  0.00  0.00    +0.122 HD
BRANCH   5  13
ATOM     13  C   UNL     1       0.709   0.606  23.281  0.00  0.00    +0.081 C 
BRANCH  13  14
ATOM     14  C   UNL     1       1.935   0.105  22.516  0.00  0.00    +0.018 C 
BRANCH  14  15
ATOM     15  C   UNL     1       3.251   0.262  23.302  0.00  0.00    -0.016 C 
ATOM     17  C   UNL     1       3.847  -1.116  23.598  0.00  0.00    +0.007 C 
ATOM     18  C   UNL     1       4.277   1.119  22.559  0.00  0.00    +0.007 C 
ENDBRANCH  14  15
ENDBRANCH  13  14
ENDBRANCH   5  13
ENDBRANCH   9   5
ENDBRANCH   3  10
BRANCH   3  16
ATOM      4  O   UNL     1      -4.744   2.589  23.870  0.00  0.00    -0.226 OA
ATOM      6  N   UNL     1      -3.646   1.277  25.467  0.00  0.00    -0.251 N 
ATOM     16  C   UNL     1      -4.131   2.449  24.920  0.00  0.00    +0.405 C 
ATOM     30  H   UNL     1      -3.166   1.398  26.350  0.00  0.00    +0.158 HD
BRANCH   6  19
ATOM     19  C   UNL     1      -3.746  -0.032  24.945  0.00  0.00    +0.044 A 
ATOM     20  C   UNL     1      -2.675  -0.927  25.017  0.00  0.00    +0.003 A 
ATOM     21  C   UNL     1      -4.953  -0.388  24.357  0.00  0.00    +0.024 A 
ATOM     22  C   UNL     1      -2.833  -2.226  24.477  0.00  0.00    -0.016 A 
ATOM     23  C   UNL     1      -1.451  -0.574  25.610  0.00  0.00    +0.010 A 
ATOM     24  C   UNL     1      -5.109  -1.665  23.826  0.00  0.00    +0.002 A 
ATOM     25  C   UNL     1      -4.056  -2.578  23.884  0.00  0.00    +0.008 A 
ATOM     26  C   UNL     1      -1.763  -3.132  24.544  0.00  0.00    +0.008 A 
ATOM     27  C   UNL     1      -0.399  -1.487  25.668  0.00  0.00    +0.001 A 
ATOM     28  C   UNL     1      -0.553  -2.764  25.136  0.00  0.00    +0.001 A 
ENDBRANCH   6  19
ENDBRANCH   3  16
TORSDOF 7
ENDMDL
MODEL 4
REMARK VINA RESULT:      -2.8      3.017      5.502
REMARK  Name = 11884596
REMARK  9 active torsions:
REMARK  status: ('A' for Active; 'I' for Inactive)
REMARK    1  A    between atoms: O_3  and  C_10
REMARK    2  A    between atoms: O_3  and  C_16
REMARK    3  A    between atoms: N_5  and  C_9
REMARK    4  A    between atoms: N_5  and  C_13
REMARK    5  A    between atoms: N_6  and  C_19
REMARK    6  A    between atoms: C_13  and  C_14
REMARK    7  A    between atoms: C_14  and  C_15
REMARK    8  A    between atoms: C_15  and  C_17
REMARK    9  A    between atoms: C_15  and  C_18
REMARK                            x       y       z     vdW  Elec       q    Type
REMARK                         _______ _______ _______ _____ _____    ______ ____
ROOT
ATOM      3  O   UNL     1      -4.719   3.083  24.441  0.00  0.00    -0.442 OA
ENDROOT
BRANCH   3  10
ATOM      1  O   UNL     1      -2.046   2.387  24.145  0.00  0.00    -0.369 OA
ATOM      2  O   UNL     1      -1.971   5.203  25.327  0.00  0.00    -0.369 OA
ATOM      7  C   UNL     1      -1.488   3.943  25.841  0.00  0.00    +0.170 C 
ATOM      8  C   UNL     1      -2.490   2.887  25.418  0.00  0.00    +0.191 C 
ATOM      9  C   UNL     1      -0.212   3.549  25.129  0.00  0.00    +0.111 C 
ATOM     10  C   UNL     1      -3.767   3.681  25.291  0.00  0.00    +0.235 C 
ATOM     11  C   UNL     1      -0.751   2.933  23.846  0.00  0.00    +0.181 C 
ATOM     12  C   UNL     1      -3.269   5.002  24.749  0.00  0.00    +0.207 C 
BRANCH   9   5
ATOM      5  N   UNL     1       0.537   2.547  25.886  0.00  0.00    -0.309 NA
ATOM     29  H   UNL     1       1.379   2.290  25.371  0.00  0.00    +0.122 HD
BRANCH   5  13
ATOM     13  C   UNL     1       0.904   3.058  27.197  0.00  0.00    +0.081 C 
BRANCH  13  14
ATOM     14  C   UNL     1       0.693   1.979  28.261  0.00  0.00    +0.018 C 
BRANCH  14  15
ATOM     15  C   UNL     1       1.622   2.136  29.481  0.00  0.00    -0.016 C 
ATOM     17  C   UNL     1       2.840   2.980  29.100  0.00  0.00    +0.007 C 
ATOM     18  C   UNL     1       0.911   2.766  30.679  0.00  0.00    +0.007 C 
ENDBRANCH  14  15
ENDBRANCH  13  14
ENDBRANCH   5  13
ENDBRANCH   9   5
ENDBRANCH   3  10
BRANCH   3  16
ATOM      4  O   UNL     1      -6.008   1.331  25.144  0.00  0.00    -0.226 OA
ATOM      6  N   UNL     1      -3.905   0.997  24.172  0.00  0.00    -0.251 N 
ATOM     16  C   UNL     1      -4.973   1.741  24.634  0.00  0.00    +0.405 C 
ATOM     30  H   UNL     1      -3.150   1.550  23.786  0.00  0.00    +0.158 HD
BRANCH   6  19
ATOM     19  C   UNL     1      -3.756  -0.408  24.180  0.00  0.00    +0.044 A 
ATOM     20  C   UNL     1      -2.555  -1.009  24.566  0.00  0.00    +0.003 A 
ATOM     21  C   UNL     1      -4.854  -1.162  23.785  0.00  0.00    +0.024 A 
ATOM     22  C   UNL     1      -2.464  -2.422  24.553  0.00  0.00    -0.016 A 
ATOM     23  C   UNL     1      -1.441  -0.253  24.966  0.00  0.00    +0.010 A 
ATOM     24  C   UNL     1      -4.765  -2.551  23.773  0.00  0.00    +0.002 A 
ATOM     25  C   UNL     1      -3.578  -3.178  24.153  0.00  0.00    +0.008 A 
ATOM     26  C   UNL     1      -1.262  -3.036  24.938  0.00  0.00    +0.008 A 
ATOM     27  C   UNL     1      -0.254  -0.880  25.346  0.00  0.00    +0.001 A 
ATOM     28  C   UNL     1      -0.164  -2.269  25.332  0.00  0.00    +0.001 A 
ENDBRANCH   6  19
ENDBRANCH   3  16
TORSDOF 7
ENDMDL
MODEL 5
REMARK VINA RESULT:      -2.2      2.685      5.035
REMARK  Name = 11884596
REMARK  9 active torsions:
REMARK  status: ('A' for Active; 'I' for Inactive)
REMARK    1  A    between atoms: O_3  and  C_10
REMARK    2  A    between atoms: O_3  and  C_16
REMARK    3  A    between atoms: N_5  and  C_9
REMARK    4  A    between atoms: N_5  and  C_13
REMARK    5  A    between atoms: N_6  and  C_19
REMARK    6  A    between atoms: C_13  and  C_14
REMARK    7  A    between atoms: C_14  and  C_15
REMARK    8  A    between atoms: C_15  and  C_17
REMARK    9  A    between atoms: C_15  and  C_18
REMARK                            x       y       z     vdW  Elec       q    Type
REMARK                         _______ _______ _______ _____ _____    ______ ____
ROOT
ATOM      3  O   UNL     1       0.104   4.034  25.153  0.00  0.00    -0.442 OA
ENDROOT
BRANCH   3  10
ATOM      1  O   UNL     1      -0.603   1.466  25.946  0.00  0.00    -0.369 OA
ATOM      2  O   UNL     1      -0.780   1.396  22.897  0.00  0.00    -0.369 OA
ATOM      7  C   UNL     1       0.058   0.664  23.818  0.00  0.00    +0.170 C 
ATOM      8  C   UNL     1       0.412   1.620  24.939  0.00  0.00    +0.191 C 
ATOM      9  C   UNL     1      -0.748  -0.422  24.498  0.00  0.00    +0.111 C 
ATOM     10  C   UNL     1       0.325   2.966  24.259  0.00  0.00    +0.235 C 
ATOM     11  C   UNL     1      -1.450   0.358  25.601  0.00  0.00    +0.181 C 
ATOM     12  C   UNL     1      -0.836   2.769  23.310  0.00  0.00    +0.207 C 
BRANCH   9   5
ATOM      5  N   UNL     1       0.117  -1.443  25.086  0.00  0.00    -0.309 NA
ATOM     29  H   UNL     1       0.436  -1.135  26.004  0.00  0.00    +0.122 HD
BRANCH   5  13
ATOM     13  C   UNL     1      -0.590  -2.708  25.214  0.00  0.00    +0.081 C 
BRANCH  13  14
ATOM     14  C   UNL     1      -1.680  -2.813  24.146  0.00  0.00    +0.018 C 
BRANCH  14  15
ATOM     15  C   UNL     1      -3.080  -3.089  24.728  0.00  0.00    -0.016 C 
ATOM     17  C   UNL     1      -3.270  -2.293  26.021  0.00  0.00    +0.007 C 
ATOM     18  C   UNL     1      -4.200  -2.748  23.743  0.00  0.00    +0.007 C 
ENDBRANCH  14  15
ENDBRANCH  13  14
ENDBRANCH   5  13
ENDBRANCH   9   5
ENDBRANCH   3  10
BRANCH   3  16
ATOM      4  O   UNL     1      -1.356   5.786  24.993  0.00  0.00    -0.226 OA
ATOM      6  N   UNL     1      -2.098   3.600  25.381  0.00  0.00    -0.251 N 
ATOM     16  C   UNL     1      -1.159   4.589  25.162  0.00  0.00    +0.405 C 
ATOM     30  H   UNL     1      -1.706   2.673  25.493  0.00  0.00    +0.158 HD
BRANCH   6  19
ATOM     19  C   UNL     1      -3.501   3.736  25.465  0.00  0.00    +0.044 A 
ATOM     20  C   UNL     1      -4.354   2.671  25.161  0.00  0.00    +0.003 A 
ATOM     21  C   UNL     1      -3.993   4.974  25.859  0.00  0.00    +0.024 A 
ATOM     22  C   UNL     1      -5.753   2.867  25.262  0.00  0.00    -0.016 A 
ATOM     23  C   UNL     1      -3.863   1.417  24.762  0.00  0.00    +0.010 A 
ATOM     24  C   UNL     1      -5.369   5.166  25.959  0.00  0.00    +0.002 A 
ATOM     25  C   UNL     1      -6.243   4.120  25.661  0.00  0.00    +0.008 A 
ATOM     26  C   UNL     1      -6.618   1.803  24.959  0.00  0.00    +0.008 A 
ATOM     27  C   UNL     1      -4.737   0.372  24.465  0.00  0.00    +0.001 A 
ATOM     28  C   UNL     1      -6.112   0.564  24.563  0.00  0.00    +0.001 A 
ENDBRANCH   6  19
ENDBRANCH   3  16
TORSDOF 7
ENDMDL
MODEL 6
REMARK VINA RESULT:      -1.8      2.773      7.310
REMARK  Name = 11884596
REMARK  9 active torsions:
REMARK  status: ('A' for Active; 'I' for Inactive)
REMARK    1  A    between atoms: O_3  and  C_10
REMARK    2  A    between atoms: O_3  and  C_16
REMARK    3  A    between atoms: N_5  and  C_9
REMARK    4  A    between atoms: N_5  and  C_13
REMARK    5  A    between atoms: N_6  and  C_19
REMARK    6  A    between atoms: C_13  and  C_14
REMARK    7  A    between atoms: C_14  and  C_15
REMARK    8  A    between atoms: C_15  and  C_17
REMARK    9  A    between atoms: C_15  and  C_18
REMARK                            x       y       z     vdW  Elec       q    Type
REMARK                         _______ _______ _______ _____ _____    ______ ____
ROOT
ATOM      3  O   UNL     1       0.692   2.560  24.779  0.00  0.00    -0.442 OA
ENDROOT
BRANCH   3  10
ATOM      1  O   UNL     1      -1.908   2.786  25.731  0.00  0.00    -0.369 OA
ATOM      2  O   UNL     1      -1.200   5.601  24.778  0.00  0.00    -0.369 OA
ATOM      7  C   UNL     1      -2.218   4.676  24.338  0.00  0.00    +0.170 C 
ATOM      8  C   UNL     1      -1.610   3.289  24.418  0.00  0.00    +0.191 C 
ATOM      9  C   UNL     1      -3.352   4.641  25.339  0.00  0.00    +0.111 C 
ATOM     10  C   UNL     1      -0.136   3.569  24.248  0.00  0.00    +0.235 C 
ATOM     11  C   UNL     1      -2.805   3.691  26.395  0.00  0.00    +0.181 C 
ATOM     12  C   UNL     1       0.026   4.882  24.979  0.00  0.00    +0.207 C 
BRANCH   9   5
ATOM      5  N   UNL     1      -4.569   4.083  24.751  0.00  0.00    -0.309 NA
ATOM     29  H   UNL     1      -4.574   3.071  24.872  0.00  0.00    +0.122 HD
BRANCH   5  13
ATOM     13  C   UNL     1      -5.753   4.655  25.374  0.00  0.00    +0.081 C 
BRANCH  13  14
ATOM     14  C   UNL     1      -6.508   3.580  26.156  0.00  0.00    +0.018 C 
BRANCH  14  15
ATOM     15  C   UNL     1      -6.029   2.148  25.845  0.00  0.00    -0.016 C 
ATOM     17  C   UNL     1      -6.388   1.217  27.005  0.00  0.00    +0.007 C 
ATOM     18  C   UNL     1      -6.622   1.604  24.544  0.00  0.00    +0.007 C 
ENDBRANCH  14  15
ENDBRANCH  13  14
ENDBRANCH   5  13
ENDBRANCH   9   5
ENDBRANCH   3  10
BRANCH   3  16
ATOM      4  O   UNL     1       0.980   0.878  23.257  0.00  0.00    -0.226 OA
ATOM      6  N   UNL     1      -0.302   0.578  25.193  0.00  0.00    -0.251 N 
ATOM     16  C   UNL     1       0.495   1.278  24.308  0.00  0.00    +0.405 C 
ATOM     30  H   UNL     1      -0.590   1.111  26.003  0.00  0.00    +0.158 HD
BRANCH   6  19
ATOM     19  C   UNL     1      -0.744  -0.760  25.093  0.00  0.00    +0.044 A 
ATOM     20  C   UNL     1      -2.042  -1.067  24.676  0.00  0.00    +0.003 A 
ATOM     21  C   UNL     1       0.167  -1.754  25.430  0.00  0.00    +0.024 A 
ATOM     22  C   UNL     1      -2.429  -2.427  24.595  0.00  0.00    -0.016 A 
ATOM     23  C   UNL     1      -2.968  -0.067  24.334  0.00  0.00    +0.010 A 
ATOM     24  C   UNL     1      -0.214  -3.091  25.350  0.00  0.00    +0.002 A 
ATOM     25  C   UNL     1      -1.504  -3.425  24.937  0.00  0.00    +0.008 A 
ATOM     26  C   UNL     1      -3.731  -2.746  24.177  0.00  0.00    +0.008 A 
ATOM     27  C   UNL     1      -4.257  -0.403  23.920  0.00  0.00    +0.001 A 
ATOM     28  C   UNL     1      -4.639  -1.739  23.842  0.00  0.00    +0.001 A 
ENDBRANCH   6  19
ENDBRANCH   3  16
TORSDOF 7
ENDMDL
MODEL 7
REMARK VINA RESULT:      -1.7      2.068      4.051
REMARK  Name = 11884596
REMARK  9 active torsions:
REMARK  status: ('A' for Active; 'I' for Inactive)
REMARK    1  A    between atoms: O_3  and  C_10
REMARK    2  A    between atoms: O_3  and  C_16
REMARK    3  A    between atoms: N_5  and  C_9
REMARK    4  A    between atoms: N_5  and  C_13
REMARK    5  A    between atoms: N_6  and  C_19
REMARK    6  A    between atoms: C_13  and  C_14
REMARK    7  A    between atoms: C_14  and  C_15
REMARK    8  A    between atoms: C_15  and  C_17
REMARK    9  A    between atoms: C_15  and  C_18
REMARK                            x       y       z     vdW  Elec       q    Type
REMARK                         _______ _______ _______ _____ _____    ______ ____
ROOT
ATOM      3  O   UNL     1      -1.718   3.853  26.545  0.00  0.00    -0.442 OA
ENDROOT
BRANCH   3  10
ATOM      1  O   UNL     1      -0.341   1.657  25.543  0.00  0.00    -0.369 OA
ATOM      2  O   UNL     1      -0.542   3.574  23.174  0.00  0.00    -0.369 OA
ATOM      7  C   UNL     1       0.605   3.052  23.880  0.00  0.00    +0.170 C 
ATOM      8  C   UNL     1       0.214   2.968  25.342  0.00  0.00    +0.191 C 
ATOM      9  C   UNL     1       0.848   1.614  23.478  0.00  0.00    +0.111 C 
ATOM     10  C   UNL     1      -0.838   4.045  25.461  0.00  0.00    +0.235 C 
ATOM     11  C   UNL     1      -0.154   0.874  24.354  0.00  0.00    +0.181 C 
ATOM     12  C   UNL     1      -1.546   3.948  24.128  0.00  0.00    +0.207 C 
BRANCH   9   5
ATOM      5  N   UNL     1       2.207   1.187  23.808  0.00  0.00    -0.309 NA
ATOM     29  H   UNL     1       2.201   0.687  24.696  0.00  0.00    +0.122 HD
BRANCH   5  13
ATOM     13  C   UNL     1       2.745   0.327  22.766  0.00  0.00    +0.081 C 
BRANCH  13  14
ATOM     14  C   UNL     1       4.207   0.683  22.491  0.00  0.00    +0.018 C 
BRANCH  14  15
ATOM     15  C   UNL     1       5.205  -0.190  23.276  0.00  0.00    -0.016 C 
ATOM     17  C   UNL     1       5.793   0.612  24.439  0.00  0.00    +0.007 C 
ATOM     18  C   UNL     1       4.567  -1.475  23.807  0.00  0.00    +0.007 C 
ENDBRANCH  14  15
ENDBRANCH  13  14
ENDBRANCH   5  13
ENDBRANCH   9   5
ENDBRANCH   3  10
BRANCH   3  16
ATOM      4  O   UNL     1      -3.997   4.038  26.506  0.00  0.00    -0.226 OA
ATOM      6  N   UNL     1      -2.901   2.161  25.637  0.00  0.00    -0.251 N 
ATOM     16  C   UNL     1      -2.986   3.397  26.247  0.00  0.00    +0.405 C 
ATOM     30  H   UNL     1      -1.956   1.819  25.521  0.00  0.00    +0.158 HD
BRANCH   6  19
ATOM     19  C   UNL     1      -3.958   1.346  25.172  0.00  0.00    +0.044 A 
ATOM     20  C   UNL     1      -3.755  -0.001  24.863  0.00  0.00    +0.003 A 
ATOM     21  C   UNL     1      -5.204   1.945  25.035  0.00  0.00    +0.024 A 
ATOM     22  C   UNL     1      -4.852  -0.768  24.401  0.00  0.00    -0.016 A 
ATOM     23  C   UNL     1      -2.498  -0.613  24.999  0.00  0.00    +0.010 A 
ATOM     24  C   UNL     1      -6.283   1.191  24.581  0.00  0.00    +0.002 A 
ATOM     25  C   UNL     1      -6.108  -0.157  24.265  0.00  0.00    +0.008 A 
ATOM     26  C   UNL     1      -4.658  -2.123  24.088  0.00  0.00    +0.008 A 
ATOM     27  C   UNL     1      -2.324  -1.961  24.683  0.00  0.00    +0.001 A 
ATOM     28  C   UNL     1      -3.402  -2.715  24.228  0.00  0.00    +0.001 A 
ENDBRANCH   6  19
ENDBRANCH   3  16
TORSDOF 7
ENDMDL
MODEL 8
REMARK VINA RESULT:      -1.6      0.678      2.203
REMARK  Name = 11884596
REMARK  9 active torsions:
REMARK  status: ('A' for Active; 'I' for Inactive)
REMARK    1  A    between atoms: O_3  and  C_10
REMARK    2  A    between atoms: O_3  and  C_16
REMARK    3  A    between atoms: N_5  and  C_9
REMARK    4  A    between atoms: N_5  and  C_13
REMARK    5  A    between atoms: N_6  and  C_19
REMARK    6  A    between atoms: C_13  and  C_14
REMARK    7  A    between atoms: C_14  and  C_15
REMARK    8  A    between atoms: C_15  and  C_17
REMARK    9  A    between atoms: C_15  and  C_18
REMARK                            x       y       z     vdW  Elec       q    Type
REMARK                         _______ _______ _______ _____ _____    ______ ____
ROOT
ATOM      3  O   UNL     1      -2.609  -1.773  24.252  0.00  0.00    -0.442 OA
ENDROOT
BRANCH   3  10
ATOM      1  O   UNL     1      -0.907   0.098  23.104  0.00  0.00    -0.369 OA
ATOM      2  O   UNL     1       0.877  -1.476  25.021  0.00  0.00    -0.369 OA
ATOM      7  C   UNL     1       0.926  -1.323  23.585  0.00  0.00    +0.170 C 
ATOM      8  C   UNL     1      -0.511  -1.284  23.102  0.00  0.00    +0.191 C 
ATOM      9  C   UNL     1       1.473   0.042  23.230  0.00  0.00    +0.111 C 
ATOM     10  C   UNL     1      -1.234  -2.073  24.167  0.00  0.00    +0.235 C 
ATOM     11  C   UNL     1       0.239   0.920  23.381  0.00  0.00    +0.181 C 
ATOM     12  C   UNL     1      -0.487  -1.678  25.421  0.00  0.00    +0.207 C 
BRANCH   9   5
ATOM      5  N   UNL     1       1.948   0.086  21.848  0.00  0.00    -0.309 NA
ATOM     29  H   UNL     1       1.606   0.934  21.396  0.00  0.00    +0.122 HD
BRANCH   5  13
ATOM     13  C   UNL     1       3.401   0.059  21.800  0.00  0.00    +0.081 C 
BRANCH  13  14
ATOM     14  C   UNL     1       3.983   0.789  23.011  0.00  0.00    +0.018 C 
BRANCH  14  15
ATOM     15  C   UNL     1       5.012  -0.050  23.793  0.00  0.00    -0.016 C 
ATOM     17  C   UNL     1       4.529  -1.498  23.896  0.00  0.00    +0.007 C 
ATOM     18  C   UNL     1       6.402  -0.013  23.156  0.00  0.00    +0.007 C 
ENDBRANCH  14  15
ENDBRANCH  13  14
ENDBRANCH   5  13
ENDBRANCH   9   5
ENDBRANCH   3  10
BRANCH   3  16
ATOM      4  O   UNL     1      -3.511  -0.940  26.181  0.00  0.00    -0.226 OA
ATOM      6  N   UNL     1      -2.632   0.465  24.528  0.00  0.00    -0.251 N 
ATOM     16  C   UNL     1      -2.973  -0.746  25.099  0.00  0.00    +0.405 C 
ATOM     30  H   UNL     1      -2.191   0.388  23.621  0.00  0.00    +0.158 HD
BRANCH   6  19
ATOM     19  C   UNL     1      -2.827   1.761  25.058  0.00  0.00    +0.044 A 
ATOM     20  C   UNL     1      -4.107   2.302  25.202  0.00  0.00    +0.003 A 
ATOM     21  C   UNL     1      -1.691   2.470  25.425  0.00  0.00    +0.024 A 
ATOM     22  C   UNL     1      -4.241   3.605  25.738  0.00  0.00    -0.016 A 
ATOM     23  C   UNL     1      -5.261   1.590  24.832  0.00  0.00    +0.010 A 
ATOM     24  C   UNL     1      -1.822   3.752  25.953  0.00  0.00    +0.002 A 
ATOM     25  C   UNL     1      -3.088   4.317  26.108  0.00  0.00    +0.008 A 
ATOM     26  C   UNL     1      -5.523   4.158  25.887  0.00  0.00    +0.008 A 
ATOM     27  C   UNL     1      -6.526   2.155  24.987  0.00  0.00    +0.001 A 
ATOM     28  C   UNL     1      -6.658   3.437  25.514  0.00  0.00    +0.001 A 
ENDBRANCH   6  19
ENDBRANCH   3  16
TORSDOF 7
ENDMDL
MODEL 9
REMARK VINA RESULT:      -1.4      2.525      7.029
REMARK  Name = 11884596
REMARK  9 active torsions:
REMARK  status: ('A' for Active; 'I' for Inactive)
REMARK    1  A    between atoms: O_3  and  C_10
REMARK    2  A    between atoms: O_3  and  C_16
REMARK    3  A    between atoms: N_5  and  C_9
REMARK    4  A    between atoms: N_5  and  C_13
REMARK    5  A    between atoms: N_6  and  C_19
REMARK    6  A    between atoms: C_13  and  C_14
REMARK    7  A    between atoms: C_14  and  C_15
REMARK    8  A    between atoms: C_15  and  C_17
REMARK    9  A    between atoms: C_15  and  C_18
REMARK                            x       y       z     vdW  Elec       q    Type
REMARK                         _______ _______ _______ _____ _____    ______ ____
ROOT
ATOM      3  O   UNL     1      -0.453   4.350  25.716  0.00  0.00    -0.442 OA
ENDROOT
BRANCH   3  10
ATOM      1  O   UNL     1      -2.909   3.120  26.139  0.00  0.00    -0.369 OA
ATOM      2  O   UNL     1      -3.578   5.611  24.502  0.00  0.00    -0.369 OA
ATOM      7  C   UNL     1      -3.747   4.206  24.209  0.00  0.00    +0.170 C 
ATOM      8  C   UNL     1      -2.547   3.491  24.798  0.00  0.00    +0.191 C 
ATOM      9  C   UNL     1      -4.924   3.655  24.985  0.00  0.00    +0.111 C 
ATOM     10  C   UNL     1      -1.487   4.566  24.783  0.00  0.00    +0.235 C 
ATOM     11  C   UNL     1      -4.302   3.398  26.350  0.00  0.00    +0.181 C 
ATOM     12  C   UNL     1      -2.288   5.809  25.099  0.00  0.00    +0.207 C 
BRANCH   9   5
ATOM      5  N   UNL     1      -5.402   2.398  24.412  0.00  0.00    -0.309 NA
ATOM     29  H   UNL     1      -4.705   2.030  23.766  0.00  0.00    +0.122 HD
BRANCH   5  13
ATOM     13  C   UNL     1      -5.665   1.421  25.457  0.00  0.00    +0.081 C 
BRANCH  13  14
ATOM     14  C   UNL     1      -4.690   0.248  25.339  0.00  0.00    +0.018 C 
BRANCH  14  15
ATOM     15  C   UNL     1      -4.547  -0.284  23.900  0.00  0.00    -0.016 C 
ATOM     17  C   UNL     1      -3.377   0.413  23.203  0.00  0.00    +0.007 C 
ATOM     18  C   UNL     1      -4.344  -1.800  23.855  0.00  0.00    +0.007 C 
ENDBRANCH  14  15
ENDBRANCH  13  14
ENDBRANCH   5  13
ENDBRANCH   9   5
ENDBRANCH   3  10
BRANCH   3  16
ATOM      4  O   UNL     1       0.805   2.685  26.650  0.00  0.00    -0.226 OA
ATOM      6  N   UNL     1      -0.137   2.465  24.518  0.00  0.00    -0.251 N 
ATOM     16  C   UNL     1       0.142   3.105  25.710  0.00  0.00    +0.405 C 
ATOM     30  H   UNL     1      -0.710   3.004  23.881  0.00  0.00    +0.158 HD
BRANCH   6  19
ATOM     19  C   UNL     1       0.277   1.179  24.104  0.00  0.00    +0.044 A 
ATOM     20  C   UNL     1      -0.287   0.023  24.651  0.00  0.00    +0.003 A 
ATOM     21  C   UNL     1       1.269   1.117  23.133  0.00  0.00    +0.024 A 
ATOM     22  C   UNL     1       0.169  -1.239  24.197  0.00  0.00    -0.016 A 
ATOM     23  C   UNL     1      -1.290   0.079  25.633  0.00  0.00    +0.010 A 
ATOM     24  C   UNL     1       1.716  -0.124  22.687  0.00  0.00    +0.002 A 
ATOM     25  C   UNL     1       1.171  -1.294  23.215  0.00  0.00    +0.008 A 
ATOM     26  C   UNL     1      -0.391  -2.406  24.740  0.00  0.00    +0.008 A 
ATOM     27  C   UNL     1      -1.834  -1.092  26.161  0.00  0.00    +0.001 A 
ATOM     28  C   UNL     1      -1.387  -2.332  25.715  0.00  0.00    +0.001 A 
ENDBRANCH   6  19
ENDBRANCH   3  16
TORSDOF 7
ENDMDL
