MODEL 1
REMARK VINA RESULT:      -5.6      0.000      0.000
REMARK  Name = 75537037
REMARK  1 active torsions:
REMARK  status: ('A' for Active; 'I' for Inactive)
REMARK    1  A    between atoms: N_3  and  C_7
REMARK                            x       y       z     vdW  Elec       q    Type
REMARK                         _______ _______ _______ _____ _____    ______ ____
ROOT
ATOM      2  O   UNL     1      -4.341  -2.957  23.880  0.00  0.00    -0.253 OA
ATOM      3  N   UNL     1      -2.692   1.710  25.025  0.00  0.00    -0.296 NA
ATOM      4  N   UNL     1      -3.350  -1.009  24.752  0.00  0.00    -0.279 N 
ATOM      5  N   UNL     1      -2.077  -2.841  24.485  0.00  0.00    -0.297 N 
ATOM      6  C   UNL     1      -2.070  -0.652  25.326  0.00  0.00    +0.109 C 
ATOM      8  C   UNL     1      -1.622   0.717  24.812  0.00  0.00    +0.108 C 
ATOM      9  C   UNL     1      -3.925   1.320  24.312  0.00  0.00    +0.104 C 
ATOM     10  C   UNL     1      -4.432  -0.048  24.775  0.00  0.00    +0.125 C 
ATOM     11  C   UNL     1      -1.163  -1.814  24.933  0.00  0.00    +0.129 C 
ATOM     14  C   UNL     1      -3.383  -2.340  24.322  0.00  0.00    +0.303 C 
ATOM     17  H   UNL     1      -1.799  -3.785  24.234  0.00  0.00    +0.150 HD
ENDROOT
BRANCH   3   7
ATOM      1  O   UNL     1      -0.556   5.325  25.002  0.00  0.00    -0.380 OA
ATOM      7  C   UNL     1      -2.251   3.034  24.592  0.00  0.00    +0.061 C 
ATOM     12  C   UNL     1      -2.522   4.071  25.686  0.00  0.00    +0.047 C 
ATOM     13  C   UNL     1      -0.762   3.029  24.232  0.00  0.00    +0.047 C 
ATOM     15  C   UNL     1      -1.952   5.426  25.285  0.00  0.00    +0.161 C 
ATOM     16  C   UNL     1      -0.289   4.443  23.912  0.00  0.00    +0.161 C 
ENDBRANCH   3   7
TORSDOF 1
ENDMDL
MODEL 2
REMARK VINA RESULT:      -5.6      1.468      6.175
REMARK  Name = 75537037
REMARK  1 active torsions:
REMARK  status: ('A' for Active; 'I' for Inactive)
REMARK    1  A    between atoms: N_3  and  C_7
REMARK                            x       y       z     vdW  Elec       q    Type
REMARK                         _______ _______ _______ _____ _____    ______ ____
ROOT
ATOM      2  O   UNL     1      -0.221   5.466  24.616  0.00  0.00    -0.253 OA
ATOM      3  N   UNL     1      -1.750   0.630  24.920  0.00  0.00    -0.296 NA
ATOM      4  N   UNL     1      -1.100   3.354  25.168  0.00  0.00    -0.279 N 
ATOM      5  N   UNL     1      -2.370   5.175  25.512  0.00  0.00    -0.297 N 
ATOM      6  C   UNL     1      -2.284   2.853  25.832  0.00  0.00    +0.109 C 
ATOM      8  C   UNL     1      -2.825   1.626  25.098  0.00  0.00    +0.108 C 
ATOM      9  C   UNL     1      -0.633   1.193  24.135  0.00  0.00    +0.104 C 
ATOM     10  C   UNL     1      -0.042   2.433  24.812  0.00  0.00    +0.125 C 
ATOM     11  C   UNL     1      -3.222   4.056  25.851  0.00  0.00    +0.129 C 
ATOM     14  C   UNL     1      -1.112   4.748  25.047  0.00  0.00    +0.303 C 
ATOM     17  H   UNL     1      -2.668   6.145  25.524  0.00  0.00    +0.150 HD
ENDROOT
BRANCH   3   7
ATOM      1  O   UNL     1      -3.686  -3.070  24.483  0.00  0.00    -0.380 OA
ATOM      7  C   UNL     1      -2.271  -0.571  24.272  0.00  0.00    +0.061 C 
ATOM     12  C   UNL     1      -1.638  -1.824  24.884  0.00  0.00    +0.047 C 
ATOM     13  C   UNL     1      -3.797  -0.644  24.391  0.00  0.00    +0.047 C 
ATOM     15  C   UNL     1      -2.271  -3.079  24.295  0.00  0.00    +0.161 C 
ATOM     16  C   UNL     1      -4.310  -1.965  23.829  0.00  0.00    +0.161 C 
ENDBRANCH   3   7
TORSDOF 1
ENDMDL
MODEL 3
REMARK VINA RESULT:      -5.4      1.645      5.838
REMARK  Name = 75537037
REMARK  1 active torsions:
REMARK  status: ('A' for Active; 'I' for Inactive)
REMARK    1  A    between atoms: N_3  and  C_7
REMARK                            x       y       z     vdW  Elec       q    Type
REMARK                         _______ _______ _______ _____ _____    ______ ____
ROOT
ATOM      2  O   UNL     1      -3.165   5.042  26.518  0.00  0.00    -0.253 OA
ATOM      3  N   UNL     1      -3.136   0.787  23.741  0.00  0.00    -0.296 NA
ATOM      4  N   UNL     1      -2.933   3.332  24.918  0.00  0.00    -0.279 N 
ATOM      5  N   UNL     1      -1.163   4.643  25.362  0.00  0.00    -0.297 N 
ATOM      6  C   UNL     1      -1.923   2.916  23.968  0.00  0.00    +0.109 C 
ATOM      8  C   UNL     1      -1.806   1.392  23.951  0.00  0.00    +0.108 C 
ATOM      9  C   UNL     1      -4.069   1.175  24.818  0.00  0.00    +0.104 C 
ATOM     10  C   UNL     1      -4.232   2.695  24.897  0.00  0.00    +0.125 C 
ATOM     11  C   UNL     1      -0.669   3.651  24.431  0.00  0.00    +0.129 C 
ATOM     14  C   UNL     1      -2.511   4.414  25.697  0.00  0.00    +0.303 C 
ATOM     17  H   UNL     1      -0.589   5.363  25.789  0.00  0.00    +0.150 HD
ENDROOT
BRANCH   3   7
ATOM      1  O   UNL     1      -3.189  -3.226  24.974  0.00  0.00    -0.380 OA
ATOM      7  C   UNL     1      -3.027  -0.668  23.664  0.00  0.00    +0.061 C 
ATOM     12  C   UNL     1      -1.940  -1.173  24.618  0.00  0.00    +0.047 C 
ATOM     13  C   UNL     1      -4.364  -1.340  23.990  0.00  0.00    +0.047 C 
ATOM     15  C   UNL     1      -1.910  -2.696  24.629  0.00  0.00    +0.161 C 
ATOM     16  C   UNL     1      -4.199  -2.855  24.036  0.00  0.00    +0.161 C 
ENDBRANCH   3   7
TORSDOF 1
ENDMDL
MODEL 4
REMARK VINA RESULT:      -4.6      1.544      2.203
REMARK  Name = 75537037
REMARK  1 active torsions:
REMARK  status: ('A' for Active; 'I' for Inactive)
REMARK    1  A    between atoms: N_3  and  C_7
REMARK                            x       y       z     vdW  Elec       q    Type
REMARK                         _______ _______ _______ _____ _____    ______ ____
ROOT
ATOM      2  O   UNL     1      -1.347  -3.262  25.187  0.00  0.00    -0.253 OA
ATOM      3  N   UNL     1      -2.271   1.535  23.788  0.00  0.00    -0.296 NA
ATOM      4  N   UNL     1      -2.023  -1.235  24.201  0.00  0.00    -0.279 N 
ATOM      5  N   UNL     1      -3.555  -2.849  24.509  0.00  0.00    -0.297 N 
ATOM      6  C   UNL     1      -3.223  -0.724  23.572  0.00  0.00    +0.109 C 
ATOM      8  C   UNL     1      -3.479   0.717  24.012  0.00  0.00    +0.108 C 
ATOM      9  C   UNL     1      -1.126   1.006  24.556  0.00  0.00    +0.104 C 
ATOM     10  C   UNL     1      -0.813  -0.443  24.169  0.00  0.00    +0.125 C 
ATOM     11  C   UNL     1      -4.299  -1.724  23.987  0.00  0.00    +0.129 C 
ATOM     14  C   UNL     1      -2.195  -2.535  24.690  0.00  0.00    +0.303 C 
ATOM     17  H   UNL     1      -3.974  -3.730  24.792  0.00  0.00    +0.150 HD
ENDROOT
BRANCH   3   7
ATOM      1  O   UNL     1      -2.669   4.960  26.183  0.00  0.00    -0.380 OA
ATOM      7  C   UNL     1      -2.525   2.928  24.149  0.00  0.00    +0.061 C 
ATOM     12  C   UNL     1      -3.690   3.017  25.140  0.00  0.00    +0.047 C 
ATOM     13  C   UNL     1      -1.275   3.578  24.751  0.00  0.00    +0.047 C 
ATOM     15  C   UNL     1      -3.875   4.455  25.611  0.00  0.00    +0.161 C 
ATOM     16  C   UNL     1      -1.594   4.985  25.244  0.00  0.00    +0.161 C 
ENDBRANCH   3   7
TORSDOF 1
ENDMDL
MODEL 5
REMARK VINA RESULT:      -4.5      3.073      4.259
REMARK  Name = 75537037
REMARK  1 active torsions:
REMARK  status: ('A' for Active; 'I' for Inactive)
REMARK    1  A    between atoms: N_3  and  C_7
REMARK                            x       y       z     vdW  Elec       q    Type
REMARK                         _______ _______ _______ _____ _____    ______ ____
ROOT
ATOM      2  O   UNL     1       1.345  -0.692  22.593  0.00  0.00    -0.253 OA
ATOM      3  N   UNL     1      -2.718   1.341  24.868  0.00  0.00    -0.296 NA
ATOM      4  N   UNL     1      -0.233   0.381  23.970  0.00  0.00    -0.279 N 
ATOM      5  N   UNL     1       1.713   1.421  23.544  0.00  0.00    -0.297 N 
ATOM      6  C   UNL     1      -0.269   1.573  24.790  0.00  0.00    +0.109 C 
ATOM      8  C   UNL     1      -1.611   2.288  24.628  0.00  0.00    +0.108 C 
ATOM      9  C   UNL     1      -2.666   0.215  23.914  0.00  0.00    +0.104 C 
ATOM     10  C   UNL     1      -1.342  -0.547  24.017  0.00  0.00    +0.125 C 
ATOM     11  C   UNL     1       0.944   2.371  24.319  0.00  0.00    +0.129 C 
ATOM     14  C   UNL     1       0.981   0.246  23.287  0.00  0.00    +0.303 C 
ATOM     17  H   UNL     1       2.633   1.609  23.158  0.00  0.00    +0.150 HD
ENDROOT
BRANCH   3   7
ATOM      1  O   UNL     1      -6.317   3.120  26.096  0.00  0.00    -0.380 OA
ATOM      7  C   UNL     1      -4.004   2.028  24.775  0.00  0.00    +0.061 C 
ATOM     12  C   UNL     1      -5.122   1.144  25.338  0.00  0.00    +0.047 C 
ATOM     13  C   UNL     1      -3.970   3.366  25.518  0.00  0.00    +0.047 C 
ATOM     15  C   UNL     1      -6.442   1.906  25.355  0.00  0.00    +0.161 C 
ATOM     16  C   UNL     1      -5.354   4.005  25.525  0.00  0.00    +0.161 C 
ENDBRANCH   3   7
TORSDOF 1
ENDMDL
MODEL 6
REMARK VINA RESULT:      -4.4      2.928      3.981
REMARK  Name = 75537037
REMARK  1 active torsions:
REMARK  status: ('A' for Active; 'I' for Inactive)
REMARK    1  A    between atoms: N_3  and  C_7
REMARK                            x       y       z     vdW  Elec       q    Type
REMARK                         _______ _______ _______ _____ _____    ______ ____
ROOT
ATOM      2  O   UNL     1       1.508   0.668  23.487  0.00  0.00    -0.253 OA
ATOM      3  N   UNL     1      -3.528   1.298  23.734  0.00  0.00    -0.296 NA
ATOM      4  N   UNL     1      -0.840   0.504  23.523  0.00  0.00    -0.279 N 
ATOM      5  N   UNL     1       0.366  -1.024  24.644  0.00  0.00    -0.297 N 
ATOM      6  C   UNL     1      -1.816  -0.449  24.006  0.00  0.00    +0.109 C 
ATOM      8  C   UNL     1      -2.991   0.280  24.658  0.00  0.00    +0.108 C 
ATOM      9  C   UNL     1      -2.493   2.292  23.385  0.00  0.00    +0.104 C 
ATOM     10  C   UNL     1      -1.279   1.630  22.727  0.00  0.00    +0.125 C 
ATOM     11  C   UNL     1      -1.012  -1.342  24.946  0.00  0.00    +0.129 C 
ATOM     14  C   UNL     1       0.470   0.122  23.833  0.00  0.00    +0.303 C 
ATOM     17  H   UNL     1       1.165  -1.512  25.037  0.00  0.00    +0.150 HD
ENDROOT
BRANCH   3   7
ATOM      1  O   UNL     1      -5.971   3.082  26.646  0.00  0.00    -0.380 OA
ATOM      7  C   UNL     1      -4.689   1.960  24.325  0.00  0.00    +0.061 C 
ATOM     12  C   UNL     1      -5.292   1.089  25.432  0.00  0.00    +0.047 C 
ATOM     13  C   UNL     1      -4.314   3.335  24.886  0.00  0.00    +0.047 C 
ATOM     15  C   UNL     1      -6.426   1.831  26.131  0.00  0.00    +0.161 C 
ATOM     16  C   UNL     1      -5.502   3.952  25.616  0.00  0.00    +0.161 C 
ENDBRANCH   3   7
TORSDOF 1
ENDMDL
MODEL 7
REMARK VINA RESULT:      -4.2      2.243      5.809
REMARK  Name = 75537037
REMARK  1 active torsions:
REMARK  status: ('A' for Active; 'I' for Inactive)
REMARK    1  A    between atoms: N_3  and  C_7
REMARK                            x       y       z     vdW  Elec       q    Type
REMARK                         _______ _______ _______ _____ _____    ______ ____
ROOT
ATOM      2  O   UNL     1      -6.097   4.745  25.892  0.00  0.00    -0.253 OA
ATOM      3  N   UNL     1      -3.719   0.465  24.533  0.00  0.00    -0.296 NA
ATOM      4  N   UNL     1      -4.747   3.042  24.990  0.00  0.00    -0.279 N 
ATOM      5  N   UNL     1      -3.770   4.948  25.669  0.00  0.00    -0.297 N 
ATOM      6  C   UNL     1      -3.359   2.899  24.604  0.00  0.00    +0.109 C 
ATOM      8  C   UNL     1      -2.828   1.531  25.032  0.00  0.00    +0.108 C 
ATOM      9  C   UNL     1      -5.086   0.627  25.067  0.00  0.00    +0.104 C 
ATOM     10  C   UNL     1      -5.683   1.983  24.679  0.00  0.00    +0.125 C 
ATOM     11  C   UNL     1      -2.676   4.090  25.270  0.00  0.00    +0.129 C 
ATOM     14  C   UNL     1      -5.012   4.295  25.553  0.00  0.00    +0.303 C 
ATOM     17  H   UNL     1      -3.655   5.876  26.065  0.00  0.00    +0.150 HD
ENDROOT
BRANCH   3   7
ATOM      1  O   UNL     1      -1.895  -3.287  24.065  0.00  0.00    -0.380 OA
ATOM      7  C   UNL     1      -3.188  -0.849  24.886  0.00  0.00    +0.061 C 
ATOM     12  C   UNL     1      -3.922  -1.946  24.108  0.00  0.00    +0.047 C 
ATOM     13  C   UNL     1      -1.684  -0.928  24.610  0.00  0.00    +0.047 C 
ATOM     15  C   UNL     1      -3.287  -3.305  24.382  0.00  0.00    +0.161 C 
ATOM     16  C   UNL     1      -1.173  -2.344  24.856  0.00  0.00    +0.161 C 
ENDBRANCH   3   7
TORSDOF 1
ENDMDL
MODEL 8
REMARK VINA RESULT:      -4.0      3.042      4.749
REMARK  Name = 75537037
REMARK  1 active torsions:
REMARK  status: ('A' for Active; 'I' for Inactive)
REMARK    1  A    between atoms: N_3  and  C_7
REMARK                            x       y       z     vdW  Elec       q    Type
REMARK                         _______ _______ _______ _____ _____    ______ ____
ROOT
ATOM      2  O   UNL     1      -6.040   4.643  25.754  0.00  0.00    -0.253 OA
ATOM      3  N   UNL     1      -1.907   1.841  24.812  0.00  0.00    -0.296 NA
ATOM      4  N   UNL     1      -4.340   3.026  25.575  0.00  0.00    -0.279 N 
ATOM      5  N   UNL     1      -6.474   2.383  25.296  0.00  0.00    -0.297 N 
ATOM      6  C   UNL     1      -4.273   1.587  25.440  0.00  0.00    +0.109 C 
ATOM      8  C   UNL     1      -3.182   1.197  24.442  0.00  0.00    +0.108 C 
ATOM      9  C   UNL     1      -2.039   3.312  24.815  0.00  0.00    +0.104 C 
ATOM     10  C   UNL     1      -3.121   3.776  25.794  0.00  0.00    +0.125 C 
ATOM     11  C   UNL     1      -5.690   1.198  25.028  0.00  0.00    +0.129 C 
ATOM     14  C   UNL     1      -5.657   3.497  25.570  0.00  0.00    +0.303 C 
ATOM     17  H   UNL     1      -7.485   2.432  25.213  0.00  0.00    +0.150 HD
ENDROOT
BRANCH   3   7
ATOM      1  O   UNL     1       1.657   0.065  23.482  0.00  0.00    -0.380 OA
ATOM      7  C   UNL     1      -0.844   1.428  23.899  0.00  0.00    +0.061 C 
ATOM     12  C   UNL     1       0.498   2.021  24.340  0.00  0.00    +0.047 C 
ATOM     13  C   UNL     1      -0.743  -0.098  23.825  0.00  0.00    +0.047 C 
ATOM     15  C   UNL     1       1.625   1.492  23.461  0.00  0.00    +0.161 C 
ATOM     16  C   UNL     1       0.454  -0.510  22.974  0.00  0.00    +0.161 C 
ENDBRANCH   3   7
TORSDOF 1
ENDMDL
MODEL 9
REMARK VINA RESULT:      -2.9      2.325      3.217
REMARK  Name = 75537037
REMARK  1 active torsions:
REMARK  status: ('A' for Active; 'I' for Inactive)
REMARK    1  A    between atoms: N_3  and  C_7
REMARK                            x       y       z     vdW  Elec       q    Type
REMARK                         _______ _______ _______ _____ _____    ______ ____
ROOT
ATOM      2  O   UNL     1      -0.565  -2.955  24.936  0.00  0.00    -0.253 OA
ATOM      3  N   UNL     1      -3.271   1.335  24.643  0.00  0.00    -0.296 NA
ATOM      4  N   UNL     1      -2.021  -1.174  24.439  0.00  0.00    -0.279 N 
ATOM      5  N   UNL     1      -2.841  -3.266  24.458  0.00  0.00    -0.297 N 
ATOM      6  C   UNL     1      -3.389  -1.034  23.987  0.00  0.00    +0.109 C 
ATOM      8  C   UNL     1      -4.080   0.105  24.737  0.00  0.00    +0.108 C 
ATOM      9  C   UNL     1      -1.931   1.132  25.229  0.00  0.00    +0.104 C 
ATOM     10  C   UNL     1      -1.178  -0.001  24.526  0.00  0.00    +0.125 C 
ATOM     11  C   UNL     1      -3.989  -2.417  24.224  0.00  0.00    +0.129 C 
ATOM     14  C   UNL     1      -1.666  -2.512  24.643  0.00  0.00    +0.303 C 
ATOM     17  H   UNL     1      -2.888  -4.275  24.563  0.00  0.00    +0.150 HD
ENDROOT
BRANCH   3   7
ATOM      1  O   UNL     1      -5.987   4.480  25.241  0.00  0.00    -0.380 OA
ATOM      7  C   UNL     1      -3.952   2.445  25.306  0.00  0.00    +0.061 C 
ATOM     12  C   UNL     1      -3.804   3.729  24.484  0.00  0.00    +0.047 C 
ATOM     13  C   UNL     1      -5.436   2.130  25.523  0.00  0.00    +0.047 C 
ATOM     15  C   UNL     1      -4.616   4.856  25.110  0.00  0.00    +0.161 C 
ATOM     16  C   UNL     1      -6.158   3.346  26.092  0.00  0.00    +0.161 C 
ENDBRANCH   3   7
TORSDOF 1
ENDMDL
MODEL 10
REMARK VINA RESULT:      -2.8     17.364     18.951
REMARK  Name = 75537037
REMARK  1 active torsions:
REMARK  status: ('A' for Active; 'I' for Inactive)
REMARK    1  A    between atoms: N_3  and  C_7
REMARK                            x       y       z     vdW  Elec       q    Type
REMARK                         _______ _______ _______ _____ _____    ______ ____
ROOT
ATOM      2  O   UNL     1      16.267   5.519  21.709  0.00  0.00    -0.253 OA
ATOM      3  N   UNL     1      13.061   8.658  19.326  0.00  0.00    -0.296 NA
ATOM      4  N   UNL     1      14.958   7.294  20.888  0.00  0.00    -0.279 N 
ATOM      5  N   UNL     1      17.153   7.636  21.221  0.00  0.00    -0.297 N 
ATOM      6  C   UNL     1      15.153   8.703  20.621  0.00  0.00    +0.109 C 
ATOM      8  C   UNL     1      14.471   9.093  19.309  0.00  0.00    +0.108 C 
ATOM      9  C   UNL     1      12.961   7.194  19.490  0.00  0.00    +0.104 C 
ATOM     10  C   UNL     1      13.629   6.729  20.787  0.00  0.00    +0.125 C 
ATOM     11  C   UNL     1      16.670   8.864  20.630  0.00  0.00    +0.129 C 
ATOM     14  C   UNL     1      16.133   6.671  21.324  0.00  0.00    +0.303 C 
ATOM     17  H   UNL     1      18.125   7.456  21.454  0.00  0.00    +0.150 HD
ENDROOT
BRANCH   3   7
ATOM      1  O   UNL     1      11.258   8.387  15.543  0.00  0.00    -0.380 OA
ATOM      7  C   UNL     1      12.384   9.080  18.101  0.00  0.00    +0.061 C 
ATOM     12  C   UNL     1      13.253   8.768  16.878  0.00  0.00    +0.047 C 
ATOM     13  C   UNL     1      11.020   8.397  17.962  0.00  0.00    +0.047 C 
ATOM     15  C   UNL     1      12.498   9.094  15.595  0.00  0.00    +0.161 C 
ATOM     16  C   UNL     1      10.388   8.743  16.618  0.00  0.00    +0.161 C 
ENDBRANCH   3   7
TORSDOF 1
ENDMDL
