MODEL 1
REMARK VINA RESULT:      -6.4      0.000      0.000
REMARK  Name = 75536637
REMARK  6 active torsions:
REMARK  status: ('A' for Active; 'I' for Inactive)
REMARK    1  A    between atoms: O_5  and  C_11
REMARK    2  A    between atoms: N_7  and  C_9
REMARK    3  A    between atoms: N_7  and  C_10
REMARK    4  A    between atoms: N_8  and  C_19
REMARK    5  A    between atoms: C_14  and  C_19
REMARK    6  A    between atoms: C_20  and  C_21
REMARK                            x       y       z     vdW  Elec       q    Type
REMARK                         _______ _______ _______ _____ _____    ______ ____
ROOT
ATOM      4  O   UNL     1      -1.629  -2.330  23.743  0.00  0.00    -0.371 OA
ATOM     10  C   UNL     1      -0.040  -0.830  24.673  0.00  0.00    +0.111 C 
ATOM     11  C   UNL     1      -1.277  -0.847  25.551  0.00  0.00    +0.164 C 
ATOM     14  C   UNL     1      -1.907  -2.173  25.145  0.00  0.00    +0.165 C 
ATOM     15  C   UNL     1      -0.583  -1.414  23.378  0.00  0.00    +0.181 C 
ENDROOT
BRANCH  11   5
ATOM      5  O   UNL     1      -0.968  -0.813  26.931  0.00  0.00    -0.388 OA
ATOM     28  H   UNL     1      -0.076  -1.181  27.054  0.00  0.00    +0.210 HD
ENDBRANCH  11   5
BRANCH  10   7
ATOM      7  N   UNL     1       0.533   0.495  24.499  0.00  0.00    -0.306 NA
ATOM     27  H   UNL     1       0.931   0.586  23.566  0.00  0.00    +0.123 HD
BRANCH   7   9
ATOM      1  F   UNL     1      -2.188   5.281  25.308  0.00  0.00    -0.206 F 
ATOM      2  F   UNL     1      -0.043   5.010  25.073  0.00  0.00    -0.206 F 
ATOM      9  C   UNL     1      -0.478   1.529  24.714  0.00  0.00    +0.054 C 
ATOM     12  C   UNL     1      -0.222   2.236  26.051  0.00  0.00    +0.024 C 
ATOM     13  C   UNL     1      -0.461   2.524  23.546  0.00  0.00    +0.024 C 
ATOM     16  C   UNL     1      -1.219   3.372  26.276  0.00  0.00    +0.077 C 
ATOM     17  C   UNL     1      -1.456   3.660  23.772  0.00  0.00    +0.077 C 
ATOM     18  C   UNL     1      -1.227   4.345  25.109  0.00  0.00    +0.249 C 
ENDBRANCH   7   9
ENDBRANCH  10   7
BRANCH  14  19
ATOM     19  C   UNL     1      -3.407  -2.222  25.379  0.00  0.00    +0.138 C 
BRANCH  19   8
ATOM      6  O   UNL     1      -3.978  -0.326  23.299  0.00  0.00    -0.270 OA
ATOM      8  N   UNL     1      -3.953  -0.907  25.545  0.00  0.00    -0.309 N 
ATOM     20  C   UNL     1      -4.198  -0.051  24.476  0.00  0.00    +0.244 C 
ATOM     29  H   UNL     1      -4.092  -0.590  26.499  0.00  0.00    +0.149 HD
BRANCH  20  21
ATOM      3  F   UNL     1      -6.255   5.011  25.768  0.00  0.00    -0.205 F 
ATOM     21  C   UNL     1      -4.742   1.289  24.818  0.00  0.00    +0.037 A 
ATOM     22  C   UNL     1      -4.266   2.422  24.161  0.00  0.00    +0.016 A 
ATOM     23  C   UNL     1      -5.729   1.411  25.796  0.00  0.00    +0.016 A 
ATOM     24  C   UNL     1      -4.775   3.680  24.482  0.00  0.00    +0.039 A 
ATOM     25  C   UNL     1      -6.239   2.669  26.118  0.00  0.00    +0.039 A 
ATOM     26  C   UNL     1      -5.763   3.803  25.460  0.00  0.00    +0.123 A 
ENDBRANCH  20  21
ENDBRANCH  19   8
ENDBRANCH  14  19
TORSDOF 6
ENDMDL
MODEL 2
REMARK VINA RESULT:      -4.7      2.732      5.212
REMARK  Name = 75536637
REMARK  6 active torsions:
REMARK  status: ('A' for Active; 'I' for Inactive)
REMARK    1  A    between atoms: O_5  and  C_11
REMARK    2  A    between atoms: N_7  and  C_9
REMARK    3  A    between atoms: N_7  and  C_10
REMARK    4  A    between atoms: N_8  and  C_19
REMARK    5  A    between atoms: C_14  and  C_19
REMARK    6  A    between atoms: C_20  and  C_21
REMARK                            x       y       z     vdW  Elec       q    Type
REMARK                         _______ _______ _______ _____ _____    ______ ____
ROOT
ATOM      4  O   UNL     1      -0.101   3.071  23.406  0.00  0.00    -0.371 OA
ATOM     10  C   UNL     1      -0.875   3.838  25.516  0.00  0.00    +0.111 C 
ATOM     11  C   UNL     1      -0.291   2.447  25.678  0.00  0.00    +0.164 C 
ATOM     14  C   UNL     1       0.591   2.352  24.441  0.00  0.00    +0.165 C 
ATOM     15  C   UNL     1      -1.113   3.890  24.015  0.00  0.00    +0.181 C 
ENDROOT
BRANCH  11   5
ATOM      5  O   UNL     1       0.458   2.305  26.871  0.00  0.00    -0.388 OA
ATOM     28  H   UNL     1       0.200   1.469  27.296  0.00  0.00    +0.210 HD
ENDBRANCH  11   5
BRANCH  10   7
ATOM      7  N   UNL     1      -2.087   4.057  26.289  0.00  0.00    -0.306 NA
ATOM     27  H   UNL     1      -2.154   5.034  26.568  0.00  0.00    +0.123 HD
BRANCH   7   9
ATOM      1  F   UNL     1      -6.916   1.915  24.542  0.00  0.00    -0.206 F 
ATOM      2  F   UNL     1      -5.992   1.658  26.493  0.00  0.00    -0.206 F 
ATOM      9  C   UNL     1      -3.269   3.675  25.517  0.00  0.00    +0.054 C 
ATOM     12  C   UNL     1      -3.316   2.150  25.361  0.00  0.00    +0.024 C 
ATOM     13  C   UNL     1      -4.533   4.203  26.207  0.00  0.00    +0.024 C 
ATOM     16  C   UNL     1      -4.577   1.708  24.620  0.00  0.00    +0.077 C 
ATOM     17  C   UNL     1      -5.794   3.760  25.467  0.00  0.00    +0.077 C 
ATOM     18  C   UNL     1      -5.831   2.253  25.282  0.00  0.00    +0.249 C 
ENDBRANCH   7   9
ENDBRANCH  10   7
BRANCH  14  19
ATOM     19  C   UNL     1       0.844   0.924  23.992  0.00  0.00    +0.138 C 
BRANCH  19   8
ATOM      6  O   UNL     1       0.017  -1.357  25.529  0.00  0.00    -0.270 OA
ATOM      8  N   UNL     1      -0.383   0.195  23.851  0.00  0.00    -0.309 N 
ATOM     20  C   UNL     1      -0.703  -0.904  24.642  0.00  0.00    +0.244 C 
ATOM     29  H   UNL     1      -0.992   0.474  23.089  0.00  0.00    +0.149 HD
BRANCH  20  21
ATOM      3  F   UNL     1      -5.612  -3.402  23.552  0.00  0.00    -0.205 F 
ATOM     21  C   UNL     1      -2.002  -1.565  24.354  0.00  0.00    +0.037 A 
ATOM     22  C   UNL     1      -2.163  -2.926  24.608  0.00  0.00    +0.016 A 
ATOM     23  C   UNL     1      -3.060  -0.824  23.828  0.00  0.00    +0.016 A 
ATOM     24  C   UNL     1      -3.381  -3.548  24.337  0.00  0.00    +0.039 A 
ATOM     25  C   UNL     1      -4.279  -1.445  23.557  0.00  0.00    +0.039 A 
ATOM     26  C   UNL     1      -4.440  -2.806  23.812  0.00  0.00    +0.123 A 
ENDBRANCH  20  21
ENDBRANCH  19   8
ENDBRANCH  14  19
TORSDOF 6
ENDMDL
MODEL 3
REMARK VINA RESULT:      -4.4      3.552      6.641
REMARK  Name = 75536637
REMARK  6 active torsions:
REMARK  status: ('A' for Active; 'I' for Inactive)
REMARK    1  A    between atoms: O_5  and  C_11
REMARK    2  A    between atoms: N_7  and  C_9
REMARK    3  A    between atoms: N_7  and  C_10
REMARK    4  A    between atoms: N_8  and  C_19
REMARK    5  A    between atoms: C_14  and  C_19
REMARK    6  A    between atoms: C_20  and  C_21
REMARK                            x       y       z     vdW  Elec       q    Type
REMARK                         _______ _______ _______ _____ _____    ______ ____
ROOT
ATOM      4  O   UNL     1      -3.304   3.958  23.551  0.00  0.00    -0.371 OA
ATOM     10  C   UNL     1      -4.625   2.702  25.075  0.00  0.00    +0.111 C 
ATOM     11  C   UNL     1      -3.378   3.192  25.787  0.00  0.00    +0.164 C 
ATOM     14  C   UNL     1      -2.964   4.351  24.891  0.00  0.00    +0.165 C 
ATOM     15  C   UNL     1      -4.214   2.846  23.617  0.00  0.00    +0.181 C 
ENDROOT
BRANCH  11   5
ATOM      5  O   UNL     1      -3.638   3.616  27.112  0.00  0.00    -0.388 OA
ATOM     28  H   UNL     1      -4.398   4.223  27.095  0.00  0.00    +0.210 HD
ENDBRANCH  11   5
BRANCH  10   7
ATOM      7  N   UNL     1      -5.001   1.342  25.424  0.00  0.00    -0.306 NA
ATOM     27  H   UNL     1      -5.952   1.150  25.113  0.00  0.00    +0.123 HD
BRANCH   7   9
ATOM      1  F   UNL     1      -2.070  -3.197  24.093  0.00  0.00    -0.206 F 
ATOM      2  F   UNL     1      -3.609  -3.025  25.619  0.00  0.00    -0.206 F 
ATOM      9  C   UNL     1      -4.076   0.379  24.828  0.00  0.00    +0.054 C 
ATOM     12  C   UNL     1      -3.102  -0.135  25.895  0.00  0.00    +0.024 C 
ATOM     13  C   UNL     1      -4.863  -0.773  24.191  0.00  0.00    +0.024 C 
ATOM     16  C   UNL     1      -2.165  -1.198  25.324  0.00  0.00    +0.077 C 
ATOM     17  C   UNL     1      -3.926  -1.836  23.620  0.00  0.00    +0.077 C 
ATOM     18  C   UNL     1      -2.939  -2.327  24.665  0.00  0.00    +0.249 C 
ENDBRANCH   7   9
ENDBRANCH  10   7
BRANCH  14  19
ATOM     19  C   UNL     1      -1.482   4.672  24.971  0.00  0.00    +0.138 C 
BRANCH  19   8
ATOM      6  O   UNL     1      -0.384   2.268  26.094  0.00  0.00    -0.270 OA
ATOM      8  N   UNL     1      -0.697   3.687  24.285  0.00  0.00    -0.309 N 
ATOM     20  C   UNL     1      -0.203   2.547  24.912  0.00  0.00    +0.244 C 
ATOM     29  H   UNL     1      -0.451   3.892  23.323  0.00  0.00    +0.149 HD
BRANCH  20  21
ATOM      3  F   UNL     1       2.888  -0.892  21.727  0.00  0.00    -0.205 F 
ATOM     21  C   UNL     1       0.616   1.637  24.069  0.00  0.00    +0.037 A 
ATOM     22  C   UNL     1       1.936   1.967  23.766  0.00  0.00    +0.016 A 
ATOM     23  C   UNL     1       0.062   0.453  23.580  0.00  0.00    +0.016 A 
ATOM     24  C   UNL     1       2.704   1.114  22.974  0.00  0.00    +0.039 A 
ATOM     25  C   UNL     1       0.830  -0.400  22.789  0.00  0.00    +0.039 A 
ATOM     26  C   UNL     1       2.151  -0.070  22.486  0.00  0.00    +0.123 A 
ENDBRANCH  20  21
ENDBRANCH  19   8
ENDBRANCH  14  19
TORSDOF 6
ENDMDL
MODEL 4
REMARK VINA RESULT:      -3.9      3.193      5.249
REMARK  Name = 75536637
REMARK  6 active torsions:
REMARK  status: ('A' for Active; 'I' for Inactive)
REMARK    1  A    between atoms: O_5  and  C_11
REMARK    2  A    between atoms: N_7  and  C_9
REMARK    3  A    between atoms: N_7  and  C_10
REMARK    4  A    between atoms: N_8  and  C_19
REMARK    5  A    between atoms: C_14  and  C_19
REMARK    6  A    between atoms: C_20  and  C_21
REMARK                            x       y       z     vdW  Elec       q    Type
REMARK                         _______ _______ _______ _____ _____    ______ ____
ROOT
ATOM      4  O   UNL     1      -4.240   4.091  26.995  0.00  0.00    -0.371 OA
ATOM     10  C   UNL     1      -2.506   4.611  25.457  0.00  0.00    +0.111 C 
ATOM     11  C   UNL     1      -3.657   3.968  24.706  0.00  0.00    +0.164 C 
ATOM     14  C   UNL     1      -4.806   4.199  25.678  0.00  0.00    +0.165 C 
ATOM     15  C   UNL     1      -2.809   4.193  26.887  0.00  0.00    +0.181 C 
ENDROOT
BRANCH  11   5
ATOM      5  O   UNL     1      -3.898   4.577  23.452  0.00  0.00    -0.388 OA
ATOM     28  H   UNL     1      -3.062   4.593  22.954  0.00  0.00    +0.210 HD
ENDBRANCH  11   5
BRANCH  10   7
ATOM      7  N   UNL     1      -1.196   4.170  25.005  0.00  0.00    -0.306 NA
ATOM     27  H   UNL     1      -0.490   4.389  25.706  0.00  0.00    +0.123 HD
BRANCH   7   9
ATOM      1  F   UNL     1       0.098  -1.027  23.495  0.00  0.00    -0.206 F 
ATOM      2  F   UNL     1       1.354   0.741  23.335  0.00  0.00    -0.206 F 
ATOM      9  C   UNL     1      -1.199   2.734  24.731  0.00  0.00    +0.054 C 
ATOM     12  C   UNL     1      -1.015   2.492  23.228  0.00  0.00    +0.024 C 
ATOM     13  C   UNL     1      -0.095   2.047  25.545  0.00  0.00    +0.024 C 
ATOM     16  C   UNL     1      -0.941   0.998  22.912  0.00  0.00    +0.077 C 
ATOM     17  C   UNL     1      -0.021   0.554  25.229  0.00  0.00    +0.077 C 
ATOM     18  C   UNL     1       0.131   0.307  23.738  0.00  0.00    +0.249 C 
ENDBRANCH   7   9
ENDBRANCH  10   7
BRANCH  14  19
ATOM     19  C   UNL     1      -5.935   3.195  25.522  0.00  0.00    +0.138 C 
BRANCH  19   8
ATOM      6  O   UNL     1      -4.352   1.908  23.501  0.00  0.00    -0.270 OA
ATOM      8  N   UNL     1      -5.444   1.848  25.548  0.00  0.00    -0.309 N 
ATOM     20  C   UNL     1      -4.681   1.304  24.519  0.00  0.00    +0.244 C 
ATOM     29  H   UNL     1      -5.739   1.272  26.329  0.00  0.00    +0.149 HD
BRANCH  20  21
ATOM      3  F   UNL     1      -3.132  -4.056  25.147  0.00  0.00    -0.205 F 
ATOM     21  C   UNL     1      -4.271  -0.114  24.686  0.00  0.00    +0.037 A 
ATOM     22  C   UNL     1      -3.602  -0.515  25.841  0.00  0.00    +0.016 A 
ATOM     23  C   UNL     1      -4.555  -1.044  23.685  0.00  0.00    +0.016 A 
ATOM     24  C   UNL     1      -3.216  -1.846  25.998  0.00  0.00    +0.039 A 
ATOM     25  C   UNL     1      -4.170  -2.376  23.841  0.00  0.00    +0.039 A 
ATOM     26  C   UNL     1      -3.500  -2.776  24.998  0.00  0.00    +0.123 A 
ENDBRANCH  20  21
ENDBRANCH  19   8
ENDBRANCH  14  19
TORSDOF 6
ENDMDL
MODEL 5
REMARK VINA RESULT:      -3.8      2.923      3.916
REMARK  Name = 75536637
REMARK  6 active torsions:
REMARK  status: ('A' for Active; 'I' for Inactive)
REMARK    1  A    between atoms: O_5  and  C_11
REMARK    2  A    between atoms: N_7  and  C_9
REMARK    3  A    between atoms: N_7  and  C_10
REMARK    4  A    between atoms: N_8  and  C_19
REMARK    5  A    between atoms: C_14  and  C_19
REMARK    6  A    between atoms: C_20  and  C_21
REMARK                            x       y       z     vdW  Elec       q    Type
REMARK                         _______ _______ _______ _____ _____    ______ ____
ROOT
ATOM      4  O   UNL     1      -1.439  -2.762  23.897  0.00  0.00    -0.371 OA
ATOM     10  C   UNL     1       0.150  -1.016  24.164  0.00  0.00    +0.111 C 
ATOM     11  C   UNL     1      -1.029  -0.758  25.083  0.00  0.00    +0.164 C 
ATOM     14  C   UNL     1      -1.635  -2.151  25.183  0.00  0.00    +0.165 C 
ATOM     15  C   UNL     1      -0.450  -2.005  23.177  0.00  0.00    +0.181 C 
ENDROOT
BRANCH  11   5
ATOM      5  O   UNL     1      -0.637  -0.262  26.349  0.00  0.00    -0.388 OA
ATOM     28  H   UNL     1      -1.378  -0.382  26.968  0.00  0.00    +0.210 HD
ENDBRANCH  11   5
BRANCH  10   7
ATOM      7  N   UNL     1       0.664   0.183  23.522  0.00  0.00    -0.306 NA
ATOM     27  H   UNL     1       0.661   0.962  24.179  0.00  0.00    +0.123 HD
BRANCH   7   9
ATOM      1  F   UNL     1       6.179  -0.175  22.877  0.00  0.00    -0.206 F 
ATOM      2  F   UNL     1       5.102   0.528  24.630  0.00  0.00    -0.206 F 
ATOM      9  C   UNL     1       2.018  -0.040  23.017  0.00  0.00    +0.054 C 
ATOM     12  C   UNL     1       2.782   1.289  22.978  0.00  0.00    +0.024 C 
ATOM     13  C   UNL     1       2.737  -1.070  23.896  0.00  0.00    +0.024 C 
ATOM     16  C   UNL     1       4.227   1.084  22.523  0.00  0.00    +0.077 C 
ATOM     17  C   UNL     1       4.181  -1.275  23.442  0.00  0.00    +0.077 C 
ATOM     18  C   UNL     1       4.935   0.042  23.372  0.00  0.00    +0.249 C 
ENDBRANCH   7   9
ENDBRANCH  10   7
BRANCH  14  19
ATOM     19  C   UNL     1      -3.115  -2.140  25.525  0.00  0.00    +0.138 C 
BRANCH  19   8
ATOM      6  O   UNL     1      -4.063  -0.480  23.382  0.00  0.00    -0.270 OA
ATOM      8  N   UNL     1      -3.615  -0.800  25.636  0.00  0.00    -0.309 N 
ATOM     20  C   UNL     1      -4.055  -0.066  24.539  0.00  0.00    +0.244 C 
ATOM     29  H   UNL     1      -3.570  -0.373  26.555  0.00  0.00    +0.149 HD
BRANCH  20  21
ATOM      3  F   UNL     1      -5.809   5.162  25.594  0.00  0.00    -0.205 F 
ATOM     21  C   UNL     1      -4.520   1.317  24.818  0.00  0.00    +0.037 A 
ATOM     22  C   UNL     1      -5.703   1.526  25.524  0.00  0.00    +0.016 A 
ATOM     23  C   UNL     1      -3.771   2.407  24.372  0.00  0.00    +0.016 A 
ATOM     24  C   UNL     1      -6.140   2.824  25.786  0.00  0.00    +0.039 A 
ATOM     25  C   UNL     1      -4.208   3.706  24.634  0.00  0.00    +0.039 A 
ATOM     26  C   UNL     1      -5.392   3.914  25.341  0.00  0.00    +0.123 A 
ENDBRANCH  20  21
ENDBRANCH  19   8
ENDBRANCH  14  19
TORSDOF 6
ENDMDL
MODEL 6
REMARK VINA RESULT:      -2.6     14.893     17.224
REMARK  Name = 75536637
REMARK  6 active torsions:
REMARK  status: ('A' for Active; 'I' for Inactive)
REMARK    1  A    between atoms: O_5  and  C_11
REMARK    2  A    between atoms: N_7  and  C_9
REMARK    3  A    between atoms: N_7  and  C_10
REMARK    4  A    between atoms: N_8  and  C_19
REMARK    5  A    between atoms: C_14  and  C_19
REMARK    6  A    between atoms: C_20  and  C_21
REMARK                            x       y       z     vdW  Elec       q    Type
REMARK                         _______ _______ _______ _____ _____    ______ ____
ROOT
ATOM      4  O   UNL     1      -5.454  -9.334  11.702  0.00  0.00    -0.371 OA
ATOM     10  C   UNL     1      -7.061  -9.777  13.394  0.00  0.00    +0.111 C 
ATOM     11  C   UNL     1      -5.847 -10.659  13.621  0.00  0.00    +0.164 C 
ATOM     14  C   UNL     1      -4.783  -9.900  12.841  0.00  0.00    +0.165 C 
ATOM     15  C   UNL     1      -6.871  -9.374  11.940  0.00  0.00    +0.181 C 
ENDROOT
BRANCH  11   5
ATOM      5  O   UNL     1      -5.510 -10.781  14.990  0.00  0.00    -0.388 OA
ATOM     28  H   UNL     1      -6.303 -10.589  15.519  0.00  0.00    +0.210 HD
ENDBRANCH  11   5
BRANCH  10   7
ATOM      7  N   UNL     1      -8.326 -10.453  13.633  0.00  0.00    -0.306 NA
ATOM     27  H   UNL     1      -8.253 -11.436  13.376  0.00  0.00    +0.123 HD
BRANCH   7   9
ATOM      1  F   UNL     1     -10.348  -8.756  18.532  0.00  0.00    -0.206 F 
ATOM      2  F   UNL     1     -10.436  -7.698  16.633  0.00  0.00    -0.206 F 
ATOM      9  C   UNL     1      -8.720 -10.332  15.036  0.00  0.00    +0.054 C 
ATOM     12  C   UNL     1      -8.038  -9.110  15.663  0.00  0.00    +0.024 C 
ATOM     13  C   UNL     1     -10.247 -10.232  15.140  0.00  0.00    +0.024 C 
ATOM     16  C   UNL     1      -8.483  -8.910  17.111  0.00  0.00    +0.077 C 
ATOM     17  C   UNL     1     -10.692 -10.031  16.588  0.00  0.00    +0.077 C 
ATOM     18  C   UNL     1      -9.996  -8.840  17.224  0.00  0.00    +0.249 C 
ENDBRANCH   7   9
ENDBRANCH  10   7
BRANCH  14  19
ATOM     19  C   UNL     1      -3.636 -10.781  12.375  0.00  0.00    +0.138 C 
BRANCH  19   8
ATOM      6  O   UNL     1      -2.510  -9.264  10.212  0.00  0.00    -0.270 OA
ATOM      8  N   UNL     1      -2.392 -10.068  12.386  0.00  0.00    -0.309 N 
ATOM     20  C   UNL     1      -1.921  -9.356  11.287  0.00  0.00    +0.244 C 
ATOM     29  H   UNL     1      -1.822 -10.161  13.220  0.00  0.00    +0.149 HD
BRANCH  20  21
ATOM      3  F   UNL     1       3.066  -6.851  11.904  0.00  0.00    -0.205 F 
ATOM     21  C   UNL     1      -0.602  -8.693  11.450  0.00  0.00    +0.037 A 
ATOM     22  C   UNL     1      -0.437  -7.695  12.410  0.00  0.00    +0.016 A 
ATOM     23  C   UNL     1       0.472  -9.069  10.643  0.00  0.00    +0.016 A 
ATOM     24  C   UNL     1       0.801  -7.072  12.564  0.00  0.00    +0.039 A 
ATOM     25  C   UNL     1       1.711  -8.446  10.796  0.00  0.00    +0.039 A 
ATOM     26  C   UNL     1       1.875  -7.448  11.757  0.00  0.00    +0.123 A 
ENDBRANCH  20  21
ENDBRANCH  19   8
ENDBRANCH  14  19
TORSDOF 6
ENDMDL
