MODEL 1
REMARK VINA RESULT:       0.5      0.000      0.000
REMARK  Name = 51137233
REMARK  6 active torsions:
REMARK  status: ('A' for Active; 'I' for Inactive)
REMARK    1  A    between atoms: O_3  and  C_24
REMARK    2  A    between atoms: N_5  and  C_12
REMARK    3  A    between atoms: C_8  and  C_13
REMARK    4  A    between atoms: C_12  and  C_14
REMARK    5  A    between atoms: C_17  and  C_20
REMARK    6  A    between atoms: C_21  and  C_24
REMARK                            x       y       z     vdW  Elec       q    Type
REMARK                         _______ _______ _______ _____ _____    ______ ____
ROOT
ATOM      5  N   UNL     1      -0.763   4.988  25.033  0.00  0.00    -0.297 NA
ATOM      8  C   UNL     1       0.484   3.039  24.653  0.00  0.00    +0.092 C 
ATOM      9  C   UNL     1       0.621   3.982  23.445  0.00  0.00    +0.029 C 
ATOM     10  C   UNL     1      -0.722   3.581  25.433  0.00  0.00    +0.097 C 
ATOM     11  C   UNL     1      -0.522   4.978  23.591  0.00  0.00    +0.085 C 
ENDROOT
BRANCH   8  13
ATOM      2  O   UNL     1      -0.893   1.030  24.400  0.00  0.00    -0.420 OA
ATOM      6  N   UNL     1       1.269   0.722  23.914  0.00  0.00    -0.112 NA
ATOM      7  N   UNL     1       0.614  -0.481  23.730  0.00  0.00    -0.107 NA
ATOM     13  C   UNL     1       0.351   1.575  24.304  0.00  0.00    +0.222 A 
ATOM     17  C   UNL     1      -0.644  -0.255  24.025  0.00  0.00    +0.248 A 
BRANCH  17  20
ATOM      1 CL   UNL     1      -5.342  -3.898  23.979  0.00  0.00    -0.084 Cl
ATOM     20  C   UNL     1      -1.777  -1.134  24.014  0.00  0.00    +0.039 A 
ATOM     22  C   UNL     1      -3.058  -0.618  23.816  0.00  0.00    +0.014 A 
ATOM     23  C   UNL     1      -1.600  -2.505  24.202  0.00  0.00    +0.014 A 
ATOM     25  C   UNL     1      -4.161  -1.472  23.805  0.00  0.00    +0.021 A 
ATOM     26  C   UNL     1      -2.702  -3.359  24.190  0.00  0.00    +0.021 A 
ATOM     27  C   UNL     1      -3.982  -2.843  23.992  0.00  0.00    +0.041 A 
ENDBRANCH  17  20
ENDBRANCH   8  13
BRANCH   5  12
ATOM     12  C   UNL     1      -2.024   5.627  25.380  0.00  0.00    +0.119 C 
BRANCH  12  14
ATOM     14  C   UNL     1      -3.167   4.647  25.381  0.00  0.00    -0.033 A 
ATOM     15  C   UNL     1      -3.576   4.054  24.187  0.00  0.00    +0.006 A 
ATOM     16  C   UNL     1      -3.817   4.333  26.575  0.00  0.00    +0.006 A 
ATOM     18  C   UNL     1      -4.635   3.146  24.187  0.00  0.00    +0.015 A 
ATOM     19  C   UNL     1      -4.876   3.426  26.574  0.00  0.00    +0.015 A 
ATOM     21  C   UNL     1      -5.285   2.832  25.380  0.00  0.00    +0.059 A 
BRANCH  21  24
ATOM      4  O   UNL     1      -6.900   1.380  24.376  0.00  0.00    -0.245 OA
ATOM     24  C   UNL     1      -6.389   1.885  25.381  0.00  0.00    +0.337 C 
BRANCH  24   3
ATOM      3  O   UNL     1      -6.825   1.595  26.637  0.00  0.00    -0.477 OA
ATOM     28  H   UNL     1      -6.147   1.112  27.156  0.00  0.00    +0.295 HD
ENDBRANCH  24   3
ENDBRANCH  21  24
ENDBRANCH  12  14
ENDBRANCH   5  12
TORSDOF 6
ENDMDL
MODEL 2
REMARK VINA RESULT:       0.8      2.382      5.021
REMARK  Name = 51137233
REMARK  6 active torsions:
REMARK  status: ('A' for Active; 'I' for Inactive)
REMARK    1  A    between atoms: O_3  and  C_24
REMARK    2  A    between atoms: N_5  and  C_12
REMARK    3  A    between atoms: C_8  and  C_13
REMARK    4  A    between atoms: C_12  and  C_14
REMARK    5  A    between atoms: C_17  and  C_20
REMARK    6  A    between atoms: C_21  and  C_24
REMARK                            x       y       z     vdW  Elec       q    Type
REMARK                         _______ _______ _______ _____ _____    ______ ____
ROOT
ATOM      5  N   UNL     1      -2.886   5.164  25.567  0.00  0.00    -0.297 NA
ATOM      8  C   UNL     1      -4.737   3.747  25.315  0.00  0.00    +0.092 C 
ATOM      9  C   UNL     1      -4.550   4.090  26.803  0.00  0.00    +0.029 C 
ATOM     10  C   UNL     1      -3.410   4.146  24.655  0.00  0.00    +0.097 C 
ATOM     11  C   UNL     1      -3.130   4.632  26.907  0.00  0.00    +0.085 C 
ENDROOT
BRANCH   8  13
ATOM      2  O   UNL     1      -4.111   1.433  24.814  0.00  0.00    -0.420 OA
ATOM      6  N   UNL     1      -6.316   1.766  24.977  0.00  0.00    -0.112 NA
ATOM      7  N   UNL     1      -6.107   0.430  24.694  0.00  0.00    -0.107 NA
ATOM     13  C   UNL     1      -5.125   2.312  25.038  0.00  0.00    +0.222 A 
ATOM     17  C   UNL     1      -4.806   0.281  24.607  0.00  0.00    +0.248 A 
BRANCH  17  20
ATOM      1 CL   UNL     1      -1.535  -4.553  23.477  0.00  0.00    -0.084 Cl
ATOM     20  C   UNL     1      -4.017  -0.886  24.334  0.00  0.00    +0.039 A 
ATOM     22  C   UNL     1      -2.649  -0.881  24.604  0.00  0.00    +0.014 A 
ATOM     23  C   UNL     1      -4.618  -2.026  23.799  0.00  0.00    +0.014 A 
ATOM     25  C   UNL     1      -1.880  -2.014  24.339  0.00  0.00    +0.021 A 
ATOM     26  C   UNL     1      -3.850  -3.160  23.534  0.00  0.00    +0.021 A 
ATOM     27  C   UNL     1      -2.482  -3.154  23.804  0.00  0.00    +0.041 A 
ENDBRANCH  17  20
ENDBRANCH   8  13
BRANCH   5  12
ATOM     12  C   UNL     1      -1.478   5.448  25.332  0.00  0.00    +0.119 C 
BRANCH  12  14
ATOM     14  C   UNL     1      -0.728   4.224  24.875  0.00  0.00    -0.033 A 
ATOM     15  C   UNL     1      -0.577   3.138  25.737  0.00  0.00    +0.006 A 
ATOM     16  C   UNL     1      -0.184   4.177  23.592  0.00  0.00    +0.006 A 
ATOM     18  C   UNL     1       0.117   2.005  25.315  0.00  0.00    +0.015 A 
ATOM     19  C   UNL     1       0.510   3.044  23.170  0.00  0.00    +0.015 A 
ATOM     21  C   UNL     1       0.661   1.957  24.031  0.00  0.00    +0.059 A 
BRANCH  21  24
ATOM      4  O   UNL     1       0.902  -0.355  23.465  0.00  0.00    -0.245 OA
ATOM     24  C   UNL     1       1.385   0.775  23.591  0.00  0.00    +0.337 C 
BRANCH  24   3
ATOM      3  O   UNL     1       2.693   1.037  23.318  0.00  0.00    -0.477 OA
ATOM     28  H   UNL     1       3.294   0.587  23.949  0.00  0.00    +0.295 HD
ENDBRANCH  24   3
ENDBRANCH  21  24
ENDBRANCH  12  14
ENDBRANCH   5  12
TORSDOF 6
ENDMDL
MODEL 3
REMARK VINA RESULT:       0.9      2.866      5.445
REMARK  Name = 51137233
REMARK  6 active torsions:
REMARK  status: ('A' for Active; 'I' for Inactive)
REMARK    1  A    between atoms: O_3  and  C_24
REMARK    2  A    between atoms: N_5  and  C_12
REMARK    3  A    between atoms: C_8  and  C_13
REMARK    4  A    between atoms: C_12  and  C_14
REMARK    5  A    between atoms: C_17  and  C_20
REMARK    6  A    between atoms: C_21  and  C_24
REMARK                            x       y       z     vdW  Elec       q    Type
REMARK                         _______ _______ _______ _____ _____    ______ ____
ROOT
ATOM      5  N   UNL     1      -5.356   2.620  25.652  0.00  0.00    -0.297 NA
ATOM      8  C   UNL     1      -3.454   3.979  25.459  0.00  0.00    +0.092 C 
ATOM      9  C   UNL     1      -4.457   4.335  24.348  0.00  0.00    +0.029 C 
ATOM     10  C   UNL     1      -3.932   2.620  25.991  0.00  0.00    +0.097 C 
ATOM     11  C   UNL     1      -5.420   3.157  24.293  0.00  0.00    +0.085 C 
ENDROOT
BRANCH   8  13
ATOM      2  O   UNL     1      -1.486   2.767  24.648  0.00  0.00    -0.420 OA
ATOM      6  N   UNL     1      -1.146   4.955  24.960  0.00  0.00    -0.112 NA
ATOM      7  N   UNL     1       0.035   4.400  24.505  0.00  0.00    -0.107 NA
ATOM     13  C   UNL     1      -2.006   3.967  25.028  0.00  0.00    +0.222 A 
ATOM     17  C   UNL     1      -0.210   3.122  24.338  0.00  0.00    +0.248 A 
BRANCH  17  20
ATOM      1 CL   UNL     1       3.322  -1.278  22.465  0.00  0.00    -0.084 Cl
ATOM     20  C   UNL     1       0.643   2.061  23.886  0.00  0.00    +0.039 A 
ATOM     22  C   UNL     1       0.150   0.759  23.802  0.00  0.00    +0.014 A 
ATOM     23  C   UNL     1       1.965   2.330  23.531  0.00  0.00    +0.014 A 
ATOM     25  C   UNL     1       0.978  -0.274  23.363  0.00  0.00    +0.021 A 
ATOM     26  C   UNL     1       2.793   1.298  23.091  0.00  0.00    +0.021 A 
ATOM     27  C   UNL     1       2.300  -0.004  23.007  0.00  0.00    +0.041 A 
ENDBRANCH  17  20
ENDBRANCH   8  13
BRANCH   5  12
ATOM     12  C   UNL     1      -5.950   1.295  25.754  0.00  0.00    +0.119 C 
BRANCH  12  14
ATOM     14  C   UNL     1      -4.969   0.211  25.389  0.00  0.00    -0.033 A 
ATOM     15  C   UNL     1      -4.102  -0.297  26.357  0.00  0.00    +0.006 A 
ATOM     16  C   UNL     1      -4.927  -0.283  24.086  0.00  0.00    +0.006 A 
ATOM     18  C   UNL     1      -3.194  -1.300  26.020  0.00  0.00    +0.015 A 
ATOM     19  C   UNL     1      -4.019  -1.286  23.749  0.00  0.00    +0.015 A 
ATOM     21  C   UNL     1      -3.151  -1.795  24.716  0.00  0.00    +0.059 A 
BRANCH  21  24
ATOM      4  O   UNL     1      -2.392  -3.722  23.520  0.00  0.00    -0.245 OA
ATOM     24  C   UNL     1      -2.204  -2.841  24.365  0.00  0.00    +0.337 C 
BRANCH  24   3
ATOM      3  O   UNL     1      -1.048  -2.758  25.078  0.00  0.00    -0.477 OA
ATOM     28  H   UNL     1      -0.273  -3.050  24.552  0.00  0.00    +0.295 HD
ENDBRANCH  24   3
ENDBRANCH  21  24
ENDBRANCH  12  14
ENDBRANCH   5  12
TORSDOF 6
ENDMDL
MODEL 4
REMARK VINA RESULT:       1.2      3.888      5.978
REMARK  Name = 51137233
REMARK  6 active torsions:
REMARK  status: ('A' for Active; 'I' for Inactive)
REMARK    1  A    between atoms: O_3  and  C_24
REMARK    2  A    between atoms: N_5  and  C_12
REMARK    3  A    between atoms: C_8  and  C_13
REMARK    4  A    between atoms: C_12  and  C_14
REMARK    5  A    between atoms: C_17  and  C_20
REMARK    6  A    between atoms: C_21  and  C_24
REMARK                            x       y       z     vdW  Elec       q    Type
REMARK                         _______ _______ _______ _____ _____    ______ ____
ROOT
ATOM      5  N   UNL     1      -3.739  -1.666  24.387  0.00  0.00    -0.297 NA
ATOM      8  C   UNL     1      -1.432  -1.497  24.003  0.00  0.00    +0.092 C 
ATOM      9  C   UNL     1      -1.683  -1.888  25.470  0.00  0.00    +0.029 C 
ATOM     10  C   UNL     1      -2.791  -0.991  23.499  0.00  0.00    +0.097 C 
ATOM     11  C   UNL     1      -3.149  -1.558  25.721  0.00  0.00    +0.085 C 
ENDROOT
BRANCH   8  13
ATOM      2  O   UNL     1       0.948  -0.995  23.719  0.00  0.00    -0.420 OA
ATOM      6  N   UNL     1      -0.376   0.807  23.672  0.00  0.00    -0.112 NA
ATOM      7  N   UNL     1       0.928   1.231  23.502  0.00  0.00    -0.107 NA
ATOM     13  C   UNL     1      -0.317  -0.498  23.794  0.00  0.00    +0.222 A 
ATOM     17  C   UNL     1       1.666   0.147  23.536  0.00  0.00    +0.248 A 
BRANCH  17  20
ATOM      1 CL   UNL     1       7.549  -0.544  23.026  0.00  0.00    -0.084 Cl
ATOM     20  C   UNL     1       3.086  -0.019  23.413  0.00  0.00    +0.039 A 
ATOM     22  C   UNL     1       3.689  -1.201  23.844  0.00  0.00    +0.014 A 
ATOM     23  C   UNL     1       3.863   1.000  22.862  0.00  0.00    +0.014 A 
ATOM     25  C   UNL     1       5.069  -1.364  23.725  0.00  0.00    +0.021 A 
ATOM     26  C   UNL     1       5.243   0.837  22.742  0.00  0.00    +0.021 A 
ATOM     27  C   UNL     1       5.846  -0.344  23.173  0.00  0.00    +0.041 A 
ENDBRANCH  17  20
ENDBRANCH   8  13
BRANCH   5  12
ATOM     12  C   UNL     1      -5.072  -1.082  24.322  0.00  0.00    +0.119 C 
BRANCH  12  14
ATOM     14  C   UNL     1      -5.061   0.380  24.684  0.00  0.00    -0.033 A 
ATOM     15  C   UNL     1      -5.949   0.866  25.644  0.00  0.00    +0.006 A 
ATOM     16  C   UNL     1      -4.165   1.247  24.060  0.00  0.00    +0.006 A 
ATOM     18  C   UNL     1      -5.940   2.219  25.980  0.00  0.00    +0.015 A 
ATOM     19  C   UNL     1      -4.156   2.601  24.396  0.00  0.00    +0.015 A 
ATOM     21  C   UNL     1      -5.044   3.087  25.356  0.00  0.00    +0.059 A 
BRANCH  21  24
ATOM      4  O   UNL     1      -4.027   5.164  25.967  0.00  0.00    -0.245 OA
ATOM     24  C   UNL     1      -5.034   4.499  25.706  0.00  0.00    +0.337 C 
BRANCH  24   3
ATOM      3  O   UNL     1      -6.283   5.041  25.719  0.00  0.00    -0.477 OA
ATOM     28  H   UNL     1      -6.974   4.367  25.544  0.00  0.00    +0.295 HD
ENDBRANCH  24   3
ENDBRANCH  21  24
ENDBRANCH  12  14
ENDBRANCH   5  12
TORSDOF 6
ENDMDL
MODEL 5
REMARK VINA RESULT:       1.3      2.630      5.725
REMARK  Name = 51137233
REMARK  6 active torsions:
REMARK  status: ('A' for Active; 'I' for Inactive)
REMARK    1  A    between atoms: O_3  and  C_24
REMARK    2  A    between atoms: N_5  and  C_12
REMARK    3  A    between atoms: C_8  and  C_13
REMARK    4  A    between atoms: C_12  and  C_14
REMARK    5  A    between atoms: C_17  and  C_20
REMARK    6  A    between atoms: C_21  and  C_24
REMARK                            x       y       z     vdW  Elec       q    Type
REMARK                         _______ _______ _______ _____ _____    ______ ____
ROOT
ATOM      5  N   UNL     1      -1.691  -2.991  24.427  0.00  0.00    -0.297 NA
ATOM      8  C   UNL     1       0.125  -1.619  23.863  0.00  0.00    +0.092 C 
ATOM      9  C   UNL     1       0.418  -2.340  25.190  0.00  0.00    +0.029 C 
ATOM     10  C   UNL     1      -1.387  -1.784  23.656  0.00  0.00    +0.097 C 
ATOM     11  C   UNL     1      -0.937  -2.843  25.671  0.00  0.00    +0.085 C 
ENDROOT
BRANCH   8  13
ATOM      2  O   UNL     1      -0.322   0.761  24.230  0.00  0.00    -0.420 OA
ATOM      6  N   UNL     1       1.718   0.330  23.419  0.00  0.00    -0.112 NA
ATOM      7  N   UNL     1       1.602   1.698  23.576  0.00  0.00    -0.107 NA
ATOM     13  C   UNL     1       0.574  -0.176  23.812  0.00  0.00    +0.222 A 
ATOM     17  C   UNL     1       0.396   1.904  24.051  0.00  0.00    +0.248 A 
BRANCH  17  20
ATOM      1 CL   UNL     1      -2.370   6.957  25.521  0.00  0.00    -0.084 Cl
ATOM     20  C   UNL     1      -0.271   3.124  24.405  0.00  0.00    +0.039 A 
ATOM     22  C   UNL     1      -1.368   3.093  25.266  0.00  0.00    +0.014 A 
ATOM     23  C   UNL     1       0.177   4.340  23.889  0.00  0.00    +0.014 A 
ATOM     25  C   UNL     1      -2.018   4.278  25.611  0.00  0.00    +0.021 A 
ATOM     26  C   UNL     1      -0.472   5.525  24.235  0.00  0.00    +0.021 A 
ATOM     27  C   UNL     1      -1.569   5.494  25.096  0.00  0.00    +0.041 A 
ENDBRANCH  17  20
ENDBRANCH   8  13
BRANCH   5  12
ATOM     12  C   UNL     1      -3.119  -3.155  24.659  0.00  0.00    +0.119 C 
BRANCH  12  14
ATOM     14  C   UNL     1      -3.812  -1.831  24.847  0.00  0.00    -0.033 A 
ATOM     15  C   UNL     1      -4.677  -1.353  23.863  0.00  0.00    +0.006 A 
ATOM     16  C   UNL     1      -3.589  -1.084  26.003  0.00  0.00    +0.006 A 
ATOM     18  C   UNL     1      -5.319  -0.127  24.036  0.00  0.00    +0.015 A 
ATOM     19  C   UNL     1      -4.231   0.142  26.176  0.00  0.00    +0.015 A 
ATOM     21  C   UNL     1      -5.096   0.621  25.192  0.00  0.00    +0.059 A 
BRANCH  21  24
ATOM      4  O   UNL     1      -5.336   2.844  26.043  0.00  0.00    -0.245 OA
ATOM     24  C   UNL     1      -5.766   1.899  25.373  0.00  0.00    +0.337 C 
BRANCH  24   3
ATOM      3  O   UNL     1      -6.955   1.962  24.713  0.00  0.00    -0.477 OA
ATOM     28  H   UNL     1      -7.287   1.070  24.474  0.00  0.00    +0.295 HD
ENDBRANCH  24   3
ENDBRANCH  21  24
ENDBRANCH  12  14
ENDBRANCH   5  12
TORSDOF 6
ENDMDL
MODEL 6
REMARK VINA RESULT:       1.4      3.315      5.416
REMARK  Name = 51137233
REMARK  6 active torsions:
REMARK  status: ('A' for Active; 'I' for Inactive)
REMARK    1  A    between atoms: O_3  and  C_24
REMARK    2  A    between atoms: N_5  and  C_12
REMARK    3  A    between atoms: C_8  and  C_13
REMARK    4  A    between atoms: C_12  and  C_14
REMARK    5  A    between atoms: C_17  and  C_20
REMARK    6  A    between atoms: C_21  and  C_24
REMARK                            x       y       z     vdW  Elec       q    Type
REMARK                         _______ _______ _______ _____ _____    ______ ____
ROOT
ATOM      5  N   UNL     1      -5.494   0.557  25.119  0.00  0.00    -0.297 NA
ATOM      8  C   UNL     1      -4.062  -1.270  24.790  0.00  0.00    +0.092 C 
ATOM      9  C   UNL     1      -4.266  -1.040  26.298  0.00  0.00    +0.029 C 
ATOM     10  C   UNL     1      -4.555   0.025  24.130  0.00  0.00    +0.097 C 
ATOM     11  C   UNL     1      -4.831   0.370  26.408  0.00  0.00    +0.085 C 
ENDROOT
BRANCH   8  13
ATOM      2  O   UNL     1      -1.790  -0.607  24.161  0.00  0.00    -0.420 OA
ATOM      6  N   UNL     1      -2.111  -2.820  24.221  0.00  0.00    -0.112 NA
ATOM      7  N   UNL     1      -0.799  -2.590  23.855  0.00  0.00    -0.107 NA
ATOM     13  C   UNL     1      -2.651  -1.637  24.389  0.00  0.00    +0.222 A 
ATOM     17  C   UNL     1      -0.656  -1.285  23.832  0.00  0.00    +0.248 A 
BRANCH  17  20
ATOM      1 CL   UNL     1       4.086   2.063  22.548  0.00  0.00    -0.084 Cl
ATOM     20  C   UNL     1       0.489  -0.478  23.522  0.00  0.00    +0.039 A 
ATOM     22  C   UNL     1       0.577   0.824  24.016  0.00  0.00    +0.014 A 
ATOM     23  C   UNL     1       1.512  -0.993  22.727  0.00  0.00    +0.014 A 
ATOM     25  C   UNL     1       1.689   1.610  23.714  0.00  0.00    +0.021 A 
ATOM     26  C   UNL     1       2.625  -0.208  22.427  0.00  0.00    +0.021 A 
ATOM     27  C   UNL     1       2.713   1.094  22.920  0.00  0.00    +0.041 A 
ENDBRANCH  17  20
ENDBRANCH   8  13
BRANCH   5  12
ATOM     12  C   UNL     1      -5.834   1.950  24.867  0.00  0.00    +0.119 C 
BRANCH  12  14
ATOM     14  C   UNL     1      -4.616   2.837  24.884  0.00  0.00    -0.033 A 
ATOM     15  C   UNL     1      -3.841   2.978  23.734  0.00  0.00    +0.006 A 
ATOM     16  C   UNL     1      -4.264   3.515  26.051  0.00  0.00    +0.006 A 
ATOM     18  C   UNL     1      -2.713   3.798  23.750  0.00  0.00    +0.015 A 
ATOM     19  C   UNL     1      -3.136   4.335  26.067  0.00  0.00    +0.015 A 
ATOM     21  C   UNL     1      -2.360   4.476  24.916  0.00  0.00    +0.059 A 
BRANCH  21  24
ATOM      4  O   UNL     1      -1.198   6.567  24.967  0.00  0.00    -0.245 OA
ATOM     24  C   UNL     1      -1.184   5.332  24.933  0.00  0.00    +0.337 C 
BRANCH  24   3
ATOM      3  O   UNL     1      -0.023   4.622  24.908  0.00  0.00    -0.477 OA
ATOM     28  H   UNL     1      -0.149   3.705  25.234  0.00  0.00    +0.295 HD
ENDBRANCH  24   3
ENDBRANCH  21  24
ENDBRANCH  12  14
ENDBRANCH   5  12
TORSDOF 6
ENDMDL
MODEL 7
REMARK VINA RESULT:       1.9     17.875     20.428
REMARK  Name = 51137233
REMARK  6 active torsions:
REMARK  status: ('A' for Active; 'I' for Inactive)
REMARK    1  A    between atoms: O_3  and  C_24
REMARK    2  A    between atoms: N_5  and  C_12
REMARK    3  A    between atoms: C_8  and  C_13
REMARK    4  A    between atoms: C_12  and  C_14
REMARK    5  A    between atoms: C_17  and  C_20
REMARK    6  A    between atoms: C_21  and  C_24
REMARK                            x       y       z     vdW  Elec       q    Type
REMARK                         _______ _______ _______ _____ _____    ______ ____
ROOT
ATOM      5  N   UNL     1      14.557 -10.379  32.097  0.00  0.00    -0.297 NA
ATOM      8  C   UNL     1      15.703  -9.110  30.493  0.00  0.00    +0.092 C 
ATOM      9  C   UNL     1      16.359  -8.911  31.871  0.00  0.00    +0.029 C 
ATOM     10  C   UNL     1      14.337  -9.737  30.800  0.00  0.00    +0.097 C 
ATOM     11  C   UNL     1      15.325  -9.406  32.874  0.00  0.00    +0.085 C 
ENDROOT
BRANCH   8  13
ATOM      2  O   UNL     1      16.041  -7.943  28.366  0.00  0.00    -0.420 OA
ATOM      6  N   UNL     1      15.148  -6.670  29.973  0.00  0.00    -0.112 NA
ATOM      7  N   UNL     1      15.282  -5.892  28.839  0.00  0.00    -0.107 NA
ATOM     13  C   UNL     1      15.602  -7.857  29.652  0.00  0.00    +0.222 A 
ATOM     17  C   UNL     1      15.807  -6.676  27.926  0.00  0.00    +0.248 A 
BRANCH  17  20
ATOM      1 CL   UNL     1      17.295  -5.576  22.277  0.00  0.00    -0.084 Cl
ATOM     20  C   UNL     1      16.166  -6.410  26.563  0.00  0.00    +0.039 A 
ATOM     22  C   UNL     1      16.604  -7.449  25.743  0.00  0.00    +0.014 A 
ATOM     23  C   UNL     1      16.078  -5.113  26.058  0.00  0.00    +0.014 A 
ATOM     25  C   UNL     1      16.954  -7.192  24.417  0.00  0.00    +0.021 A 
ATOM     26  C   UNL     1      16.426  -4.855  24.733  0.00  0.00    +0.021 A 
ATOM     27  C   UNL     1      16.864  -5.895  23.912  0.00  0.00    +0.041 A 
ENDBRANCH  17  20
ENDBRANCH   8  13
BRANCH   5  12
ATOM     12  C   UNL     1      13.311 -10.751  32.751  0.00  0.00    +0.119 C 
BRANCH  12  14
ATOM     14  C   UNL     1      12.269  -9.670  32.628  0.00  0.00    -0.033 A 
ATOM     15  C   UNL     1      10.923 -10.012  32.501  0.00  0.00    +0.006 A 
ATOM     16  C   UNL     1      12.651  -8.329  32.640  0.00  0.00    +0.006 A 
ATOM     18  C   UNL     1       9.958  -9.011  32.386  0.00  0.00    +0.015 A 
ATOM     19  C   UNL     1      11.685  -7.328  32.525  0.00  0.00    +0.015 A 
ATOM     21  C   UNL     1      10.339  -7.669  32.398  0.00  0.00    +0.059 A 
BRANCH  21  24
ATOM      4  O   UNL     1       9.555  -5.411  32.306  0.00  0.00    -0.245 OA
ATOM     24  C   UNL     1       9.333  -6.626  32.280  0.00  0.00    +0.337 C 
BRANCH  24   3
ATOM      3  O   UNL     1       8.076  -7.128  32.132  0.00  0.00    -0.477 OA
ATOM     28  H   UNL     1       7.501  -6.524  31.615  0.00  0.00    +0.295 HD
ENDBRANCH  24   3
ENDBRANCH  21  24
ENDBRANCH  12  14
ENDBRANCH   5  12
TORSDOF 6
ENDMDL
MODEL 8
REMARK VINA RESULT:       2.5      4.058      6.047
REMARK  Name = 51137233
REMARK  6 active torsions:
REMARK  status: ('A' for Active; 'I' for Inactive)
REMARK    1  A    between atoms: O_3  and  C_24
REMARK    2  A    between atoms: N_5  and  C_12
REMARK    3  A    between atoms: C_8  and  C_13
REMARK    4  A    between atoms: C_12  and  C_14
REMARK    5  A    between atoms: C_17  and  C_20
REMARK    6  A    between atoms: C_21  and  C_24
REMARK                            x       y       z     vdW  Elec       q    Type
REMARK                         _______ _______ _______ _____ _____    ______ ____
ROOT
ATOM      5  N   UNL     1      -3.235  -0.660  25.092  0.00  0.00    -0.297 NA
ATOM      8  C   UNL     1      -1.427  -1.426  23.810  0.00  0.00    +0.092 C 
ATOM      9  C   UNL     1      -1.161  -1.712  25.299  0.00  0.00    +0.029 C 
ATOM     10  C   UNL     1      -2.575  -0.407  23.810  0.00  0.00    +0.097 C 
ATOM     11  C   UNL     1      -2.144  -0.826  26.052  0.00  0.00    +0.085 C 
ENDROOT
BRANCH   8  13
ATOM      2  O   UNL     1       0.974  -0.964  23.679  0.00  0.00    -0.420 OA
ATOM      6  N   UNL     1      -0.143  -0.531  21.790  0.00  0.00    -0.112 NA
ATOM      7  N   UNL     1       1.189  -0.228  21.578  0.00  0.00    -0.107 NA
ATOM     13  C   UNL     1      -0.221  -0.957  23.029  0.00  0.00    +0.222 A 
ATOM     17  C   UNL     1       1.803  -0.495  22.706  0.00  0.00    +0.248 A 
BRANCH  17  20
ATOM      1 CL   UNL     1       7.535   0.012  24.198  0.00  0.00    -0.084 Cl
ATOM     20  C   UNL     1       3.186  -0.374  23.067  0.00  0.00    +0.039 A 
ATOM     22  C   UNL     1       3.860   0.827  22.846  0.00  0.00    +0.014 A 
ATOM     23  C   UNL     1       3.857  -1.455  23.637  0.00  0.00    +0.014 A 
ATOM     25  C   UNL     1       5.206   0.947  23.195  0.00  0.00    +0.021 A 
ATOM     26  C   UNL     1       5.202  -1.336  23.988  0.00  0.00    +0.021 A 
ATOM     27  C   UNL     1       5.876  -0.134  23.766  0.00  0.00    +0.041 A 
ENDBRANCH  17  20
ENDBRANCH   8  13
BRANCH   5  12
ATOM     12  C   UNL     1      -4.146   0.411  25.468  0.00  0.00    +0.119 C 
BRANCH  12  14
ATOM     14  C   UNL     1      -3.498   1.766  25.349  0.00  0.00    -0.033 A 
ATOM     15  C   UNL     1      -2.173   1.941  25.747  0.00  0.00    +0.006 A 
ATOM     16  C   UNL     1      -4.223   2.843  24.840  0.00  0.00    +0.006 A 
ATOM     18  C   UNL     1      -1.573   3.195  25.638  0.00  0.00    +0.015 A 
ATOM     19  C   UNL     1      -3.623   4.097  24.731  0.00  0.00    +0.015 A 
ATOM     21  C   UNL     1      -2.297   4.274  25.129  0.00  0.00    +0.059 A 
BRANCH  21  24
ATOM      4  O   UNL     1      -2.230   6.663  25.224  0.00  0.00    -0.245 OA
ATOM     24  C   UNL     1      -1.672   5.581  25.014  0.00  0.00    +0.337 C 
BRANCH  24   3
ATOM      3  O   UNL     1      -0.365   5.502  24.639  0.00  0.00    -0.477 OA
ATOM     28  H   UNL     1      -0.153   4.632  24.238  0.00  0.00    +0.295 HD
ENDBRANCH  24   3
ENDBRANCH  21  24
ENDBRANCH  12  14
ENDBRANCH   5  12
TORSDOF 6
ENDMDL
MODEL 9
REMARK VINA RESULT:       2.9      3.334      7.512
REMARK  Name = 51137233
REMARK  6 active torsions:
REMARK  status: ('A' for Active; 'I' for Inactive)
REMARK    1  A    between atoms: O_3  and  C_24
REMARK    2  A    between atoms: N_5  and  C_12
REMARK    3  A    between atoms: C_8  and  C_13
REMARK    4  A    between atoms: C_12  and  C_14
REMARK    5  A    between atoms: C_17  and  C_20
REMARK    6  A    between atoms: C_21  and  C_24
REMARK                            x       y       z     vdW  Elec       q    Type
REMARK                         _______ _______ _______ _____ _____    ______ ____
ROOT
ATOM      5  N   UNL     1      -3.579  -2.492  25.029  0.00  0.00    -0.297 NA
ATOM      8  C   UNL     1      -4.867  -0.554  25.321  0.00  0.00    +0.092 C 
ATOM      9  C   UNL     1      -5.220  -1.209  23.974  0.00  0.00    +0.029 C 
ATOM     10  C   UNL     1      -3.543  -1.211  25.737  0.00  0.00    +0.097 C 
ATOM     11  C   UNL     1      -4.073  -2.170  23.691  0.00  0.00    +0.085 C 
ENDROOT
BRANCH   8  13
ATOM      2  O   UNL     1      -3.557   1.508  25.143  0.00  0.00    -0.420 OA
ATOM      6  N   UNL     1      -5.755   1.841  25.396  0.00  0.00    -0.112 NA
ATOM      7  N   UNL     1      -5.143   3.077  25.309  0.00  0.00    -0.107 NA
ATOM     13  C   UNL     1      -4.792   0.956  25.294  0.00  0.00    +0.222 A 
ATOM     17  C   UNL     1      -3.861   2.835  25.163  0.00  0.00    +0.248 A 
BRANCH  17  20
ATOM      1 CL   UNL     1       0.738   6.557  24.580  0.00  0.00    -0.084 Cl
ATOM     20  C   UNL     1      -2.752   3.733  25.022  0.00  0.00    +0.039 A 
ATOM     22  C   UNL     1      -1.489   3.236  24.699  0.00  0.00    +0.014 A 
ATOM     23  C   UNL     1      -2.935   5.103  25.209  0.00  0.00    +0.014 A 
ATOM     25  C   UNL     1      -0.410   4.109  24.562  0.00  0.00    +0.021 A 
ATOM     26  C   UNL     1      -1.856   5.976  25.072  0.00  0.00    +0.021 A 
ATOM     27  C   UNL     1      -0.594   5.479  24.748  0.00  0.00    +0.041 A 
ENDBRANCH  17  20
ENDBRANCH   8  13
BRANCH   5  12
ATOM     12  C   UNL     1      -2.279  -3.146  24.998  0.00  0.00    +0.119 C 
BRANCH  12  14
ATOM     14  C   UNL     1      -1.195  -2.215  24.521  0.00  0.00    -0.033 A 
ATOM     15  C   UNL     1       0.084  -2.295  25.072  0.00  0.00    +0.006 A 
ATOM     16  C   UNL     1      -1.471  -1.273  23.530  0.00  0.00    +0.006 A 
ATOM     18  C   UNL     1       1.088  -1.433  24.631  0.00  0.00    +0.015 A 
ATOM     19  C   UNL     1      -0.467  -0.411  23.089  0.00  0.00    +0.015 A 
ATOM     21  C   UNL     1       0.813  -0.491  23.640  0.00  0.00    +0.059 A 
BRANCH  21  24
ATOM      4  O   UNL     1       2.710   0.138  22.325  0.00  0.00    -0.245 OA
ATOM     24  C   UNL     1       1.859   0.408  23.179  0.00  0.00    +0.337 C 
BRANCH  24   3
ATOM      3  O   UNL     1       1.815   1.620  23.798  0.00  0.00    -0.477 OA
ATOM     28  H   UNL     1       1.780   1.529  24.774  0.00  0.00    +0.295 HD
ENDBRANCH  24   3
ENDBRANCH  21  24
ENDBRANCH  12  14
ENDBRANCH   5  12
TORSDOF 6
ENDMDL
