MODEL 1
REMARK VINA RESULT:      -1.1      0.000      0.000
REMARK  Name = 40781693
REMARK  8 active torsions:
REMARK  status: ('A' for Active; 'I' for Inactive)
REMARK    1  A    between atoms: O_5  and  C_26
REMARK    2  A    between atoms: N_8  and  C_10
REMARK    3  A    between atoms: C_15  and  C_17
REMARK    4  A    between atoms: C_15  and  C_20
REMARK    5  A    between atoms: C_15  and  C_22
REMARK    6  A    between atoms: C_15  and  C_23
REMARK    7  A    between atoms: C_17  and  C_18
REMARK    8  A    between atoms: C_20  and  C_26
REMARK                            x       y       z     vdW  Elec       q    Type
REMARK                         _______ _______ _______ _____ _____    ______ ____
ROOT
ATOM      1 CL   UNL     1       4.570   0.873  22.383  0.00  0.00    -0.083 Cl
ATOM      2  O   UNL     1      -2.428   2.400  23.651  0.00  0.00    -0.273 OA
ATOM      3  O   UNL     1      -0.283  -2.015  25.704  0.00  0.00    -0.270 OA
ATOM      7  N   UNL     1      -1.775  -0.765  24.479  0.00  0.00    -0.284 N 
ATOM      9  N   UNL     1      -0.286   1.641  23.641  0.00  0.00    -0.283 N 
ATOM     10  C   UNL     1      -4.114  -0.433  24.621  0.00  0.00    +0.092 C 
ATOM     11  C   UNL     1      -2.124   0.033  23.322  0.00  0.00    +0.164 C 
ATOM     12  C   UNL     1      -3.646  -0.111  23.200  0.00  0.00    +0.055 C 
ATOM     13  C   UNL     1      -2.958  -1.256  25.175  0.00  0.00    +0.131 C 
ATOM     14  C   UNL     1      -1.649   1.447  23.595  0.00  0.00    +0.238 C 
ATOM     16  C   UNL     1      -0.508  -1.203  24.805  0.00  0.00    +0.249 C 
ATOM     19  C   UNL     1       0.645  -0.652  24.048  0.00  0.00    +0.058 A 
ATOM     21  C   UNL     1       0.745   0.679  23.611  0.00  0.00    +0.047 A 
ATOM     24  C   UNL     1       1.758  -1.505  23.927  0.00  0.00    +0.016 A 
ATOM     25  C   UNL     1       1.982   1.140  23.125  0.00  0.00    +0.044 A 
ATOM     27  C   UNL     1       2.962  -1.042  23.399  0.00  0.00    +0.021 A 
ATOM     28  C   UNL     1       3.079   0.285  23.010  0.00  0.00    +0.043 A 
ATOM     30  H   UNL     1       0.014   2.612  23.595  0.00  0.00    +0.155 HD
ENDROOT
BRANCH  10   8
ATOM      4  O   UNL     1      -6.415   1.293  24.518  0.00  0.00    -0.276 OA
ATOM      8  N   UNL     1      -4.336   0.761  25.401  0.00  0.00    -0.311 N 
ATOM     18  C   UNL     1      -5.483   1.531  25.282  0.00  0.00    +0.214 C 
ATOM     29  H   UNL     1      -3.643   1.018  26.097  0.00  0.00    +0.149 HD
BRANCH  18  17
ATOM     17  C   UNL     1      -5.493   2.736  26.208  0.00  0.00    +0.102 C 
BRANCH  17  15
ATOM     15  C   UNL     1      -4.839   4.013  25.620  0.00  0.00    -0.017 C 
ATOM     22  C   UNL     1      -4.317   3.742  24.193  0.00  0.00    +0.012 C 
ATOM     23  C   UNL     1      -5.931   5.099  25.513  0.00  0.00    +0.012 C 
BRANCH  15  20
ATOM     20  C   UNL     1      -3.656   4.531  26.472  0.00  0.00    +0.127 C 
BRANCH  20  26
ATOM      6  O   UNL     1      -1.800   5.247  25.092  0.00  0.00    -0.251 OA
ATOM     26  C   UNL     1      -2.297   4.398  25.819  0.00  0.00    +0.305 C 
BRANCH  26   5
ATOM      5  O   UNL     1      -1.681   3.228  26.119  0.00  0.00    -0.481 OA
ATOM     31  H   UNL     1      -0.958   3.351  26.770  0.00  0.00    +0.295 HD
ENDBRANCH  26   5
ENDBRANCH  20  26
ENDBRANCH  15  20
ENDBRANCH  17  15
ENDBRANCH  18  17
ENDBRANCH  10   8
TORSDOF 6
ENDMDL
MODEL 2
REMARK VINA RESULT:      -0.4      3.383      7.137
REMARK  Name = 40781693
REMARK  8 active torsions:
REMARK  status: ('A' for Active; 'I' for Inactive)
REMARK    1  A    between atoms: O_5  and  C_26
REMARK    2  A    between atoms: N_8  and  C_10
REMARK    3  A    between atoms: C_15  and  C_17
REMARK    4  A    between atoms: C_15  and  C_20
REMARK    5  A    between atoms: C_15  and  C_22
REMARK    6  A    between atoms: C_15  and  C_23
REMARK    7  A    between atoms: C_17  and  C_18
REMARK    8  A    between atoms: C_20  and  C_26
REMARK                            x       y       z     vdW  Elec       q    Type
REMARK                         _______ _______ _______ _____ _____    ______ ____
ROOT
ATOM      1 CL   UNL     1      -6.534   5.226  25.774  0.00  0.00    -0.083 Cl
ATOM      2  O   UNL     1      -0.106   1.854  26.245  0.00  0.00    -0.273 OA
ATOM      3  O   UNL     1      -3.873  -0.093  23.029  0.00  0.00    -0.270 OA
ATOM      7  N   UNL     1      -2.333  -0.122  24.737  0.00  0.00    -0.284 N 
ATOM      9  N   UNL     1      -2.153   2.668  25.683  0.00  0.00    -0.283 N 
ATOM     10  C   UNL     1      -0.372  -1.387  25.132  0.00  0.00    +0.092 C 
ATOM     11  C   UNL     1      -1.894   0.248  26.066  0.00  0.00    +0.164 C 
ATOM     12  C   UNL     1      -0.901  -0.851  26.464  0.00  0.00    +0.055 C 
ATOM     13  C   UNL     1      -1.581  -1.258  24.215  0.00  0.00    +0.131 C 
ATOM     14  C   UNL     1      -1.287   1.634  25.967  0.00  0.00    +0.238 C 
ATOM     16  C   UNL     1      -3.445   0.370  24.088  0.00  0.00    +0.249 C 
ATOM     19  C   UNL     1      -4.153   1.532  24.684  0.00  0.00    +0.058 A 
ATOM     21  C   UNL     1      -3.517   2.605  25.328  0.00  0.00    +0.047 A 
ATOM     24  C   UNL     1      -5.534   1.605  24.420  0.00  0.00    +0.016 A 
ATOM     25  C   UNL     1      -4.269   3.755  25.631  0.00  0.00    +0.044 A 
ATOM     27  C   UNL     1      -6.272   2.734  24.770  0.00  0.00    +0.021 A 
ATOM     28  C   UNL     1      -5.637   3.816  25.364  0.00  0.00    +0.043 A 
ATOM     30  H   UNL     1      -1.780   3.600  25.845  0.00  0.00    +0.155 HD
ENDROOT
BRANCH  10   8
ATOM      4  O   UNL     1      -0.390   0.494  22.954  0.00  0.00    -0.276 OA
ATOM      8  N   UNL     1       0.747  -0.617  24.645  0.00  0.00    -0.311 N 
ATOM     18  C   UNL     1       0.641   0.270  23.584  0.00  0.00    +0.214 C 
ATOM     29  H   UNL     1       1.635  -0.696  25.130  0.00  0.00    +0.149 HD
BRANCH  18  17
ATOM     17  C   UNL     1       1.950   0.968  23.255  0.00  0.00    +0.102 C 
BRANCH  17  15
ATOM     15  C   UNL     1       3.025   0.061  22.603  0.00  0.00    -0.017 C 
ATOM     22  C   UNL     1       3.209  -1.231  23.428  0.00  0.00    +0.012 C 
ATOM     23  C   UNL     1       2.513  -0.353  21.206  0.00  0.00    +0.012 C 
BRANCH  15  20
ATOM     20  C   UNL     1       4.403   0.752  22.482  0.00  0.00    +0.127 C 
BRANCH  20  26
ATOM      6  O   UNL     1       6.441  -0.368  23.157  0.00  0.00    -0.251 OA
ATOM     26  C   UNL     1       5.444   0.271  23.468  0.00  0.00    +0.305 C 
BRANCH  26   5
ATOM      5  O   UNL     1       5.157   0.617  24.748  0.00  0.00    -0.481 OA
ATOM     31  H   UNL     1       4.207   0.829  24.865  0.00  0.00    +0.295 HD
ENDBRANCH  26   5
ENDBRANCH  20  26
ENDBRANCH  15  20
ENDBRANCH  17  15
ENDBRANCH  18  17
ENDBRANCH  10   8
TORSDOF 6
ENDMDL
