MODEL 1
REMARK VINA RESULT:      -4.3      0.000      0.000
REMARK  Name = 11886128
REMARK  5 active torsions:
REMARK  status: ('A' for Active; 'I' for Inactive)
REMARK    1  A    between atoms: S_1  and  N_8
REMARK    2  A    between atoms: S_1  and  C_19
REMARK    3  A    between atoms: N_7  and  C_14
REMARK    4  A    between atoms: N_8  and  C_15
REMARK    5  A    between atoms: C_18  and  C_20
REMARK                            x       y       z     vdW  Elec       q    Type
REMARK                         _______ _______ _______ _____ _____    ______ ____
ROOT
ATOM      3  O   UNL     1      -1.790   3.807  25.487  0.00  0.00    -0.370 OA
ATOM      4  O   UNL     1      -1.912   1.846  23.031  0.00  0.00    -0.370 OA
ATOM     12  C   UNL     1      -2.519   1.850  24.336  0.00  0.00    +0.175 C 
ATOM     13  C   UNL     1      -1.495   2.413  25.304  0.00  0.00    +0.170 C 
ATOM     14  C   UNL     1      -3.666   2.841  24.368  0.00  0.00    +0.168 C 
ATOM     15  C   UNL     1      -0.174   2.246  24.588  0.00  0.00    +0.133 C 
ATOM     16  C   UNL     1      -2.982   4.145  24.764  0.00  0.00    +0.190 C 
ATOM     17  C   UNL     1      -0.578   2.362  23.131  0.00  0.00    +0.183 C 
ENDROOT
BRANCH  14   7
ATOM      7  N   UNL     1      -4.751   2.415  25.257  0.00  0.00    -0.217 N 
ATOM      9  N   UNL     1      -5.565   3.317  25.815  0.00  0.00    -0.043 NA
ATOM     10  N   UNL     1      -6.135   1.256  26.447  0.00  0.00    -0.108 NA
ATOM     11  N   UNL     1      -6.413   2.601  26.544  0.00  0.00    -0.023 NA
ATOM     18  C   UNL     1      -5.101   1.165  25.643  0.00  0.00    +0.182 A 
BRANCH  18  20
ATOM     20  C   UNL     1      -4.431  -0.040  25.226  0.00  0.00    +0.021 A 
ATOM     22  C   UNL     1      -4.744  -0.624  23.997  0.00  0.00    +0.011 A 
ATOM     23  C   UNL     1      -3.470  -0.628  26.049  0.00  0.00    +0.011 A 
ATOM     26  C   UNL     1      -4.097  -1.792  23.593  0.00  0.00    +0.001 A 
ATOM     27  C   UNL     1      -2.823  -1.796  25.645  0.00  0.00    +0.001 A 
ATOM     28  C   UNL     1      -3.136  -2.378  24.416  0.00  0.00    +0.000 A 
ENDBRANCH  18  20
ENDBRANCH  14   7
BRANCH  15   8
ATOM      8  N   UNL     1       0.413   0.958  24.868  0.00  0.00    -0.182 NA
ATOM     29  H   UNL     1       0.961   0.876  25.733  0.00  0.00    +0.149 HD
BRANCH   8   1
ATOM      1  S   UNL     1       0.737  -0.118  23.595  0.00  0.00    +0.065 S 
ATOM      5  O   UNL     1       0.030   0.316  22.405  0.00  0.00    -0.153 OA
ATOM      6  O   UNL     1       0.585  -1.476  24.080  0.00  0.00    -0.153 OA
BRANCH   1  19
ATOM      2  S   UNL     1       3.453  -1.192  23.726  0.00  0.00    -0.077 S 
ATOM     19  C   UNL     1       2.464   0.143  23.327  0.00  0.00    +0.142 A 
ATOM     21  C   UNL     1       3.186   1.211  22.859  0.00  0.00    +0.036 A 
ATOM     24  C   UNL     1       4.583   0.931  22.825  0.00  0.00    +0.010 A 
ATOM     25  C   UNL     1       4.867  -0.340  23.270  0.00  0.00    +0.047 A 
ENDBRANCH   1  19
ENDBRANCH   8   1
ENDBRANCH  15   8
TORSDOF 5
ENDMDL
MODEL 2
REMARK VINA RESULT:      -3.6     18.646     20.381
REMARK  Name = 11886128
REMARK  5 active torsions:
REMARK  status: ('A' for Active; 'I' for Inactive)
REMARK    1  A    between atoms: S_1  and  N_8
REMARK    2  A    between atoms: S_1  and  C_19
REMARK    3  A    between atoms: N_7  and  C_14
REMARK    4  A    between atoms: N_8  and  C_15
REMARK    5  A    between atoms: C_18  and  C_20
REMARK                            x       y       z     vdW  Elec       q    Type
REMARK                         _______ _______ _______ _____ _____    ______ ____
ROOT
ATOM      3  O   UNL     1      14.655  -6.203  27.143  0.00  0.00    -0.370 OA
ATOM      4  O   UNL     1      17.396  -6.838  28.547  0.00  0.00    -0.370 OA
ATOM     12  C   UNL     1      16.852  -7.125  27.247  0.00  0.00    +0.175 C 
ATOM     13  C   UNL     1      15.374  -7.413  27.434  0.00  0.00    +0.170 C 
ATOM     14  C   UNL     1      16.896  -5.881  26.382  0.00  0.00    +0.168 C 
ATOM     15  C   UNL     1      15.244  -7.759  28.900  0.00  0.00    +0.133 C 
ATOM     16  C   UNL     1      15.573  -5.193  26.702  0.00  0.00    +0.190 C 
ATOM     17  C   UNL     1      16.354  -6.937  29.527  0.00  0.00    +0.183 C 
ENDROOT
BRANCH  14   7
ATOM      7  N   UNL     1      17.107  -6.188  24.965  0.00  0.00    -0.217 N 
ATOM      9  N   UNL     1      17.214  -7.456  24.554  0.00  0.00    -0.043 NA
ATOM     10  N   UNL     1      17.405  -6.058  22.828  0.00  0.00    -0.108 NA
ATOM     11  N   UNL     1      17.396  -7.371  23.242  0.00  0.00    -0.023 NA
ATOM     18  C   UNL     1      17.224  -5.343  23.913  0.00  0.00    +0.182 A 
BRANCH  18  20
ATOM     20  C   UNL     1      17.158  -3.907  24.004  0.00  0.00    +0.021 A 
ATOM     22  C   UNL     1      16.929  -3.143  22.858  0.00  0.00    +0.011 A 
ATOM     23  C   UNL     1      17.325  -3.275  25.237  0.00  0.00    +0.011 A 
ATOM     26  C   UNL     1      16.866  -1.753  22.945  0.00  0.00    +0.001 A 
ATOM     27  C   UNL     1      17.262  -1.884  25.324  0.00  0.00    +0.001 A 
ATOM     28  C   UNL     1      17.032  -1.123  24.178  0.00  0.00    +0.000 A 
ENDBRANCH  18  20
ENDBRANCH  14   7
BRANCH  15   8
ATOM      8  N   UNL     1      15.448  -9.170  29.124  0.00  0.00    -0.182 NA
ATOM     29  H   UNL     1      15.849  -9.709  28.347  0.00  0.00    +0.149 HD
BRANCH   8   1
ATOM      1  S   UNL     1      14.512  -9.986  30.282  0.00  0.00    +0.065 S 
ATOM      5  O   UNL     1      15.386 -10.599  31.264  0.00  0.00    -0.153 OA
ATOM      6  O   UNL     1      13.511 -10.781  29.598  0.00  0.00    -0.153 OA
BRANCH   1  19
ATOM      2  S   UNL     1      14.316  -8.185  32.577  0.00  0.00    -0.077 S 
ATOM     19  C   UNL     1      13.661  -8.652  31.069  0.00  0.00    +0.142 A 
ATOM     21  C   UNL     1      12.569  -7.903  30.715  0.00  0.00    +0.036 A 
ATOM     24  C   UNL     1      12.258  -6.922  31.701  0.00  0.00    +0.010 A 
ATOM     25  C   UNL     1      13.129  -6.965  32.766  0.00  0.00    +0.047 A 
ENDBRANCH   1  19
ENDBRANCH   8   1
ENDBRANCH  15   8
TORSDOF 5
ENDMDL
MODEL 3
REMARK VINA RESULT:      -3.4      1.700      3.614
REMARK  Name = 11886128
REMARK  5 active torsions:
REMARK  status: ('A' for Active; 'I' for Inactive)
REMARK    1  A    between atoms: S_1  and  N_8
REMARK    2  A    between atoms: S_1  and  C_19
REMARK    3  A    between atoms: N_7  and  C_14
REMARK    4  A    between atoms: N_8  and  C_15
REMARK    5  A    between atoms: C_18  and  C_20
REMARK                            x       y       z     vdW  Elec       q    Type
REMARK                         _______ _______ _______ _____ _____    ______ ____
ROOT
ATOM      3  O   UNL     1      -2.946  -1.033  23.347  0.00  0.00    -0.370 OA
ATOM      4  O   UNL     1      -1.761  -1.016  26.260  0.00  0.00    -0.370 OA
ATOM     12  C   UNL     1      -2.321  -0.003  25.405  0.00  0.00    +0.175 C 
ATOM     13  C   UNL     1      -1.878  -0.318  23.988  0.00  0.00    +0.170 C 
ATOM     14  C   UNL     1      -3.832  -0.131  25.374  0.00  0.00    +0.168 C 
ATOM     15  C   UNL     1      -0.677  -1.220  24.165  0.00  0.00    +0.133 C 
ATOM     16  C   UNL     1      -4.069  -1.118  24.236  0.00  0.00    +0.190 C 
ATOM     17  C   UNL     1      -0.994  -1.932  25.466  0.00  0.00    +0.183 C 
ENDROOT
BRANCH  14   7
ATOM      7  N   UNL     1      -4.502   1.163  25.222  0.00  0.00    -0.217 N 
ATOM      9  N   UNL     1      -5.835   1.233  25.149  0.00  0.00    -0.043 NA
ATOM     10  N   UNL     1      -4.939   3.269  25.007  0.00  0.00    -0.108 NA
ATOM     11  N   UNL     1      -6.098   2.527  25.017  0.00  0.00    -0.023 NA
ATOM     18  C   UNL     1      -3.962   2.402  25.135  0.00  0.00    +0.182 A 
BRANCH  18  20
ATOM     20  C   UNL     1      -2.550   2.686  25.180  0.00  0.00    +0.021 A 
ATOM     22  C   UNL     1      -1.852   2.574  26.383  0.00  0.00    +0.011 A 
ATOM     23  C   UNL     1      -1.878   3.078  24.021  0.00  0.00    +0.011 A 
ATOM     26  C   UNL     1      -0.485   2.850  26.428  0.00  0.00    +0.001 A 
ATOM     27  C   UNL     1      -0.512   3.355  24.065  0.00  0.00    +0.001 A 
ATOM     28  C   UNL     1       0.185   3.241  25.269  0.00  0.00    +0.000 A 
ENDBRANCH  18  20
ENDBRANCH  14   7
BRANCH  15   8
ATOM      8  N   UNL     1       0.541  -0.453  24.272  0.00  0.00    -0.182 NA
ATOM     29  H   UNL     1       0.691   0.059  25.150  0.00  0.00    +0.149 HD
BRANCH   8   1
ATOM      1  S   UNL     1       1.320   0.098  22.867  0.00  0.00    +0.065 S 
ATOM      5  O   UNL     1       1.193   1.540  22.779  0.00  0.00    -0.153 OA
ATOM      6  O   UNL     1       0.919  -0.739  21.753  0.00  0.00    -0.153 OA
BRANCH   1  19
ATOM      2  S   UNL     1       4.117   0.942  22.766  0.00  0.00    -0.077 S 
ATOM     19  C   UNL     1       3.010  -0.280  23.215  0.00  0.00    +0.142 A 
ATOM     21  C   UNL     1       3.627  -1.367  23.779  0.00  0.00    +0.036 A 
ATOM     24  C   UNL     1       5.040  -1.197  23.846  0.00  0.00    +0.010 A 
ATOM     25  C   UNL     1       5.441   0.014  23.329  0.00  0.00    +0.047 A 
ENDBRANCH   1  19
ENDBRANCH   8   1
ENDBRANCH  15   8
TORSDOF 5
ENDMDL
MODEL 4
REMARK VINA RESULT:      -3.1      1.242      1.367
REMARK  Name = 11886128
REMARK  5 active torsions:
REMARK  status: ('A' for Active; 'I' for Inactive)
REMARK    1  A    between atoms: S_1  and  N_8
REMARK    2  A    between atoms: S_1  and  C_19
REMARK    3  A    between atoms: N_7  and  C_14
REMARK    4  A    between atoms: N_8  and  C_15
REMARK    5  A    between atoms: C_18  and  C_20
REMARK                            x       y       z     vdW  Elec       q    Type
REMARK                         _______ _______ _______ _____ _____    ______ ____
ROOT
ATOM      3  O   UNL     1      -1.252   1.500  26.106  0.00  0.00    -0.370 OA
ATOM      4  O   UNL     1      -0.719   3.785  24.012  0.00  0.00    -0.370 OA
ATOM     12  C   UNL     1      -1.805   2.867  24.233  0.00  0.00    +0.175 C 
ATOM     13  C   UNL     1      -1.195   1.549  24.672  0.00  0.00    +0.170 C 
ATOM     14  C   UNL     1      -2.633   3.323  25.419  0.00  0.00    +0.168 C 
ATOM     15  C   UNL     1       0.241   1.630  24.207  0.00  0.00    +0.133 C 
ATOM     16  C   UNL     1      -1.932   2.662  26.601  0.00  0.00    +0.190 C 
ATOM     17  C   UNL     1       0.523   3.118  24.278  0.00  0.00    +0.183 C 
ENDROOT
BRANCH  14   7
ATOM      7  N   UNL     1      -4.053   2.990  25.274  0.00  0.00    -0.217 N 
ATOM      9  N   UNL     1      -4.985   3.945  25.344  0.00  0.00    -0.043 NA
ATOM     10  N   UNL     1      -5.932   1.956  25.001  0.00  0.00    -0.108 NA
ATOM     11  N   UNL     1      -6.136   3.306  25.175  0.00  0.00    -0.023 NA
ATOM     18  C   UNL     1      -4.632   1.784  25.066  0.00  0.00    +0.182 A 
BRANCH  18  20
ATOM     20  C   UNL     1      -3.915   0.540  24.942  0.00  0.00    +0.021 A 
ATOM     22  C   UNL     1      -3.434   0.132  23.697  0.00  0.00    +0.011 A 
ATOM     23  C   UNL     1      -3.703  -0.261  26.065  0.00  0.00    +0.011 A 
ATOM     26  C   UNL     1      -2.741  -1.073  23.575  0.00  0.00    +0.001 A 
ATOM     27  C   UNL     1      -3.011  -1.466  25.944  0.00  0.00    +0.001 A 
ATOM     28  C   UNL     1      -2.529  -1.872  24.699  0.00  0.00    +0.000 A 
ENDBRANCH  18  20
ENDBRANCH  14   7
BRANCH  15   8
ATOM      8  N   UNL     1       0.382   1.135  22.858  0.00  0.00    -0.182 NA
ATOM     29  H   UNL     1      -0.284   1.491  22.162  0.00  0.00    +0.149 HD
BRANCH   8   1
ATOM      1  S   UNL     1       1.121  -0.369  22.582  0.00  0.00    +0.065 S 
ATOM      5  O   UNL     1       1.008  -0.710  21.177  0.00  0.00    -0.153 OA
ATOM      6  O   UNL     1       0.674  -1.302  23.598  0.00  0.00    -0.153 OA
BRANCH   1  19
ATOM      2  S   UNL     1       3.679  -1.288  23.657  0.00  0.00    -0.077 S 
ATOM     19  C   UNL     1       2.817  -0.009  22.921  0.00  0.00    +0.142 A 
ATOM     21  C   UNL     1       3.597   1.099  22.712  0.00  0.00    +0.036 A 
ATOM     24  C   UNL     1       4.933   0.899  23.166  0.00  0.00    +0.010 A 
ATOM     25  C   UNL     1       5.115  -0.356  23.702  0.00  0.00    +0.047 A 
ENDBRANCH   1  19
ENDBRANCH   8   1
ENDBRANCH  15   8
TORSDOF 5
ENDMDL
MODEL 5
REMARK VINA RESULT:      -2.8      2.439      6.813
REMARK  Name = 11886128
REMARK  5 active torsions:
REMARK  status: ('A' for Active; 'I' for Inactive)
REMARK    1  A    between atoms: S_1  and  N_8
REMARK    2  A    between atoms: S_1  and  C_19
REMARK    3  A    between atoms: N_7  and  C_14
REMARK    4  A    between atoms: N_8  and  C_15
REMARK    5  A    between atoms: C_18  and  C_20
REMARK                            x       y       z     vdW  Elec       q    Type
REMARK                         _______ _______ _______ _____ _____    ______ ____
ROOT
ATOM      3  O   UNL     1      -0.455   3.300  23.743  0.00  0.00    -0.370 OA
ATOM      4  O   UNL     1      -0.352   1.336  26.198  0.00  0.00    -0.370 OA
ATOM     12  C   UNL     1      -0.521   1.154  24.781  0.00  0.00    +0.175 C 
ATOM     13  C   UNL     1      -1.356   2.316  24.277  0.00  0.00    +0.170 C 
ATOM     14  C   UNL     1       0.814   1.304  24.077  0.00  0.00    +0.168 C 
ATOM     15  C   UNL     1      -2.040   2.849  25.515  0.00  0.00    +0.133 C 
ATOM     16  C   UNL     1       0.889   2.801  23.800  0.00  0.00    +0.190 C 
ATOM     17  C   UNL     1      -1.033   2.531  26.604  0.00  0.00    +0.183 C 
ENDROOT
BRANCH  14   7
ATOM      7  N   UNL     1       0.924   0.448  22.893  0.00  0.00    -0.217 N 
ATOM      9  N   UNL     1      -0.146   0.205  22.129  0.00  0.00    -0.043 NA
ATOM     10  N   UNL     1       1.645  -0.848  21.319  0.00  0.00    -0.108 NA
ATOM     11  N   UNL     1       0.302  -0.590  21.164  0.00  0.00    -0.023 NA
ATOM     18  C   UNL     1       2.009  -0.194  22.398  0.00  0.00    +0.182 A 
BRANCH  18  20
ATOM     20  C   UNL     1       3.326  -0.146  22.980  0.00  0.00    +0.021 A 
ATOM     22  C   UNL     1       4.087   1.021  22.893  0.00  0.00    +0.011 A 
ATOM     23  C   UNL     1       3.845  -1.267  23.629  0.00  0.00    +0.011 A 
ATOM     26  C   UNL     1       5.363   1.067  23.455  0.00  0.00    +0.001 A 
ATOM     27  C   UNL     1       5.121  -1.221  24.191  0.00  0.00    +0.001 A 
ATOM     28  C   UNL     1       5.880  -0.054  24.104  0.00  0.00    +0.000 A 
ENDBRANCH  18  20
ENDBRANCH  14   7
BRANCH  15   8
ATOM      8  N   UNL     1      -3.295   2.176  25.750  0.00  0.00    -0.182 NA
ATOM     29  H   UNL     1      -3.395   1.681  26.645  0.00  0.00    +0.149 HD
BRANCH   8   1
ATOM      1  S   UNL     1      -4.246   1.679  24.435  0.00  0.00    +0.065 S 
ATOM      5  O   UNL     1      -3.673   2.191  23.204  0.00  0.00    -0.153 OA
ATOM      6  O   UNL     1      -5.641   1.925  24.747  0.00  0.00    -0.153 OA
BRANCH   1  19
ATOM      2  S   UNL     1      -3.362  -0.682  25.915  0.00  0.00    -0.077 S 
ATOM     19  C   UNL     1      -4.013  -0.072  24.457  0.00  0.00    +0.142 A 
ATOM     21  C   UNL     1      -4.252  -1.058  23.535  0.00  0.00    +0.036 A 
ATOM     24  C   UNL     1      -3.892  -2.345  24.031  0.00  0.00    +0.010 A 
ATOM     25  C   UNL     1      -3.395  -2.284  25.313  0.00  0.00    +0.047 A 
ENDBRANCH   1  19
ENDBRANCH   8   1
ENDBRANCH  15   8
TORSDOF 5
ENDMDL
MODEL 6
REMARK VINA RESULT:      -2.6      1.444      1.853
REMARK  Name = 11886128
REMARK  5 active torsions:
REMARK  status: ('A' for Active; 'I' for Inactive)
REMARK    1  A    between atoms: S_1  and  N_8
REMARK    2  A    between atoms: S_1  and  C_19
REMARK    3  A    between atoms: N_7  and  C_14
REMARK    4  A    between atoms: N_8  and  C_15
REMARK    5  A    between atoms: C_18  and  C_20
REMARK                            x       y       z     vdW  Elec       q    Type
REMARK                         _______ _______ _______ _____ _____    ______ ____
ROOT
ATOM      3  O   UNL     1      -1.160   1.262  26.019  0.00  0.00    -0.370 OA
ATOM      4  O   UNL     1      -0.461   3.692  24.148  0.00  0.00    -0.370 OA
ATOM     12  C   UNL     1      -1.583   2.796  24.243  0.00  0.00    +0.175 C 
ATOM     13  C   UNL     1      -1.034   1.427  24.598  0.00  0.00    +0.170 C 
ATOM     14  C   UNL     1      -2.453   3.181  25.425  0.00  0.00    +0.168 C 
ATOM     15  C   UNL     1       0.425   1.497  24.205  0.00  0.00    +0.133 C 
ATOM     16  C   UNL     1      -1.828   2.402  26.578  0.00  0.00    +0.190 C 
ATOM     17  C   UNL     1       0.746   2.964  24.413  0.00  0.00    +0.183 C 
ENDROOT
BRANCH  14   7
ATOM      7  N   UNL     1      -3.873   2.908  25.189  0.00  0.00    -0.217 N 
ATOM      9  N   UNL     1      -4.762   3.906  25.171  0.00  0.00    -0.043 NA
ATOM     10  N   UNL     1      -5.775   1.954  24.810  0.00  0.00    -0.108 NA
ATOM     11  N   UNL     1      -5.928   3.315  24.937  0.00  0.00    -0.023 NA
ATOM     18  C   UNL     1      -4.493   1.724  24.970  0.00  0.00    +0.182 A 
BRANCH  18  20
ATOM     20  C   UNL     1      -3.828   0.447  24.926  0.00  0.00    +0.021 A 
ATOM     22  C   UNL     1      -3.689  -0.310  26.091  0.00  0.00    +0.011 A 
ATOM     23  C   UNL     1      -3.319  -0.037  23.720  0.00  0.00    +0.011 A 
ATOM     26  C   UNL     1      -3.045  -1.546  26.050  0.00  0.00    +0.001 A 
ATOM     27  C   UNL     1      -2.674  -1.273  23.678  0.00  0.00    +0.001 A 
ATOM     28  C   UNL     1      -2.537  -2.028  24.843  0.00  0.00    +0.000 A 
ENDBRANCH  18  20
ENDBRANCH  14   7
BRANCH  15   8
ATOM      8  N   UNL     1       0.614   1.110  22.828  0.00  0.00    -0.182 NA
ATOM     29  H   UNL     1       0.051   1.605  22.126  0.00  0.00    +0.149 HD
BRANCH   8   1
ATOM      1  S   UNL     1       1.194  -0.443  22.459  0.00  0.00    +0.065 S 
ATOM      5  O   UNL     1       1.190  -0.630  21.020  0.00  0.00    -0.153 OA
ATOM      6  O   UNL     1       0.536  -1.405  23.321  0.00  0.00    -0.153 OA
BRANCH   1  19
ATOM      2  S   UNL     1       3.663   1.118  22.574  0.00  0.00    -0.077 S 
ATOM     19  C   UNL     1       2.876  -0.340  22.990  0.00  0.00    +0.142 A 
ATOM     21  C   UNL     1       3.692  -1.201  23.678  0.00  0.00    +0.036 A 
ATOM     24  C   UNL     1       4.995  -0.655  23.870  0.00  0.00    +0.010 A 
ATOM     25  C   UNL     1       5.115   0.601  23.318  0.00  0.00    +0.047 A 
ENDBRANCH   1  19
ENDBRANCH   8   1
ENDBRANCH  15   8
TORSDOF 5
ENDMDL
MODEL 7
REMARK VINA RESULT:      -2.3      1.928      2.520
REMARK  Name = 11886128
REMARK  5 active torsions:
REMARK  status: ('A' for Active; 'I' for Inactive)
REMARK    1  A    between atoms: S_1  and  N_8
REMARK    2  A    between atoms: S_1  and  C_19
REMARK    3  A    between atoms: N_7  and  C_14
REMARK    4  A    between atoms: N_8  and  C_15
REMARK    5  A    between atoms: C_18  and  C_20
REMARK                            x       y       z     vdW  Elec       q    Type
REMARK                         _______ _______ _______ _____ _____    ______ ____
ROOT
ATOM      3  O   UNL     1      -3.313   4.891  24.237  0.00  0.00    -0.370 OA
ATOM      4  O   UNL     1      -1.953   2.240  23.231  0.00  0.00    -0.370 OA
ATOM     12  C   UNL     1      -2.713   2.589  24.401  0.00  0.00    +0.175 C 
ATOM     13  C   UNL     1      -2.323   4.005  24.783  0.00  0.00    +0.170 C 
ATOM     14  C   UNL     1      -4.187   2.676  24.053  0.00  0.00    +0.168 C 
ATOM     15  C   UNL     1      -0.992   4.221  24.099  0.00  0.00    +0.133 C 
ATOM     16  C   UNL     1      -4.349   4.125  23.606  0.00  0.00    +0.190 C 
ATOM     17  C   UNL     1      -1.112   3.343  22.868  0.00  0.00    +0.183 C 
ENDROOT
BRANCH  14   7
ATOM      7  N   UNL     1      -5.052   2.270  25.164  0.00  0.00    -0.217 N 
ATOM      9  N   UNL     1      -5.807   3.170  25.801  0.00  0.00    -0.043 NA
ATOM     10  N   UNL     1      -6.101   1.143  26.682  0.00  0.00    -0.108 NA
ATOM     11  N   UNL     1      -6.449   2.473  26.731  0.00  0.00    -0.023 NA
ATOM     18  C   UNL     1      -5.234   1.040  25.702  0.00  0.00    +0.182 A 
BRANCH  18  20
ATOM     20  C   UNL     1      -4.571  -0.158  25.252  0.00  0.00    +0.021 A 
ATOM     22  C   UNL     1      -4.659  -0.545  23.914  0.00  0.00    +0.011 A 
ATOM     23  C   UNL     1      -3.843  -0.936  26.154  0.00  0.00    +0.011 A 
ATOM     26  C   UNL     1      -4.020  -1.706  23.478  0.00  0.00    +0.001 A 
ATOM     27  C   UNL     1      -3.203  -2.096  25.718  0.00  0.00    +0.001 A 
ATOM     28  C   UNL     1      -3.291  -2.481  24.380  0.00  0.00    +0.000 A 
ENDBRANCH  18  20
ENDBRANCH  14   7
BRANCH  15   8
ATOM      8  N   UNL     1       0.102   3.796  24.940  0.00  0.00    -0.182 NA
ATOM     29  H   UNL     1       1.051   3.959  24.582  0.00  0.00    +0.149 HD
BRANCH   8   1
ATOM      1  S   UNL     1      -0.137   2.559  26.078  0.00  0.00    +0.065 S 
ATOM      5  O   UNL     1      -1.501   2.614  26.570  0.00  0.00    -0.153 OA
ATOM      6  O   UNL     1       0.975   2.559  27.008  0.00  0.00    -0.153 OA
BRANCH   1  19
ATOM      2  S   UNL     1       1.174   1.239  23.823  0.00  0.00    -0.077 S 
ATOM     19  C   UNL     1       0.024   1.110  25.080  0.00  0.00    +0.142 A 
ATOM     21  C   UNL     1      -0.591  -0.115  25.107  0.00  0.00    +0.036 A 
ATOM     24  C   UNL     1      -0.111  -0.971  24.073  0.00  0.00    +0.010 A 
ATOM     25  C   UNL     1       0.851  -0.360  23.301  0.00  0.00    +0.047 A 
ENDBRANCH   1  19
ENDBRANCH   8   1
ENDBRANCH  15   8
TORSDOF 5
ENDMDL
MODEL 8
REMARK VINA RESULT:      -1.8      3.286      5.938
REMARK  Name = 11886128
REMARK  5 active torsions:
REMARK  status: ('A' for Active; 'I' for Inactive)
REMARK    1  A    between atoms: S_1  and  N_8
REMARK    2  A    between atoms: S_1  and  C_19
REMARK    3  A    between atoms: N_7  and  C_14
REMARK    4  A    between atoms: N_8  and  C_15
REMARK    5  A    between atoms: C_18  and  C_20
REMARK                            x       y       z     vdW  Elec       q    Type
REMARK                         _______ _______ _______ _____ _____    ______ ____
ROOT
ATOM      3  O   UNL     1       0.162   4.076  25.082  0.00  0.00    -0.370 OA
ATOM      4  O   UNL     1      -2.351   2.566  26.222  0.00  0.00    -0.370 OA
ATOM     12  C   UNL     1      -1.498   2.364  25.081  0.00  0.00    +0.175 C 
ATOM     13  C   UNL     1      -1.128   3.735  24.549  0.00  0.00    +0.170 C 
ATOM     14  C   UNL     1      -0.181   1.753  25.522  0.00  0.00    +0.168 C 
ATOM     15  C   UNL     1      -2.188   4.653  25.116  0.00  0.00    +0.133 C 
ATOM     16  C   UNL     1       0.671   2.975  25.849  0.00  0.00    +0.190 C 
ATOM     17  C   UNL     1      -2.539   3.973  26.426  0.00  0.00    +0.183 C 
ENDROOT
BRANCH  14   7
ATOM      7  N   UNL     1       0.386   0.853  24.515  0.00  0.00    -0.217 N 
ATOM      9  N   UNL     1       1.495   1.192  23.849  0.00  0.00    -0.043 NA
ATOM     10  N   UNL     1       0.765  -0.807  23.183  0.00  0.00    -0.108 NA
ATOM     11  N   UNL     1       1.724   0.170  23.033  0.00  0.00    -0.023 NA
ATOM     18  C   UNL     1      -0.053  -0.361  24.107  0.00  0.00    +0.182 A 
BRANCH  18  20
ATOM     20  C   UNL     1      -1.225  -1.024  24.620  0.00  0.00    +0.021 A 
ATOM     22  C   UNL     1      -1.914  -1.942  23.825  0.00  0.00    +0.011 A 
ATOM     23  C   UNL     1      -1.678  -0.747  25.911  0.00  0.00    +0.011 A 
ATOM     26  C   UNL     1      -3.049  -2.583  24.320  0.00  0.00    +0.001 A 
ATOM     27  C   UNL     1      -2.813  -1.388  26.406  0.00  0.00    +0.001 A 
ATOM     28  C   UNL     1      -3.499  -2.307  25.611  0.00  0.00    +0.000 A 
ENDBRANCH  18  20
ENDBRANCH  14   7
BRANCH  15   8
ATOM      8  N   UNL     1      -3.334   4.730  24.243  0.00  0.00    -0.182 NA
ATOM     29  H   UNL     1      -4.078   5.386  24.511  0.00  0.00    +0.149 HD
BRANCH   8   1
ATOM      1  S   UNL     1      -3.732   3.410  23.252  0.00  0.00    +0.065 S 
ATOM      5  O   UNL     1      -2.527   2.670  22.928  0.00  0.00    -0.153 OA
ATOM      6  O   UNL     1      -4.613   3.867  22.195  0.00  0.00    -0.153 OA
BRANCH   1  19
ATOM      2  S   UNL     1      -5.688   3.303  25.421  0.00  0.00    -0.077 S 
ATOM     19  C   UNL     1      -4.705   2.416  24.342  0.00  0.00    +0.142 A 
ATOM     21  C   UNL     1      -4.838   1.061  24.502  0.00  0.00    +0.036 A 
ATOM     24  C   UNL     1      -5.766   0.738  25.534  0.00  0.00    +0.010 A 
ATOM     25  C   UNL     1      -6.302   1.864  26.117  0.00  0.00    +0.047 A 
ENDBRANCH   1  19
ENDBRANCH   8   1
ENDBRANCH  15   8
TORSDOF 5
ENDMDL
MODEL 9
REMARK VINA RESULT:      -1.6      2.488      3.963
REMARK  Name = 11886128
REMARK  5 active torsions:
REMARK  status: ('A' for Active; 'I' for Inactive)
REMARK    1  A    between atoms: S_1  and  N_8
REMARK    2  A    between atoms: S_1  and  C_19
REMARK    3  A    between atoms: N_7  and  C_14
REMARK    4  A    between atoms: N_8  and  C_15
REMARK    5  A    between atoms: C_18  and  C_20
REMARK                            x       y       z     vdW  Elec       q    Type
REMARK                         _______ _______ _______ _____ _____    ______ ____
ROOT
ATOM      3  O   UNL     1      -1.830   0.558  23.130  0.00  0.00    -0.370 OA
ATOM      4  O   UNL     1      -0.538  -0.328  25.857  0.00  0.00    -0.370 OA
ATOM     12  C   UNL     1      -0.528   0.895  25.098  0.00  0.00    +0.175 C 
ATOM     13  C   UNL     1      -0.485   0.511  23.631  0.00  0.00    +0.170 C 
ATOM     14  C   UNL     1      -1.849   1.620  25.269  0.00  0.00    +0.168 C 
ATOM     15  C   UNL     1       0.024  -0.913  23.633  0.00  0.00    +0.133 C 
ATOM     16  C   UNL     1      -2.712   1.026  24.160  0.00  0.00    +0.190 C 
ATOM     17  C   UNL     1      -0.497  -1.442  24.955  0.00  0.00    +0.183 C 
ENDROOT
BRANCH  14   7
ATOM      7  N   UNL     1      -1.700   3.077  25.226  0.00  0.00    -0.217 N 
ATOM      9  N   UNL     1      -0.492   3.632  25.078  0.00  0.00    -0.043 NA
ATOM     10  N   UNL     1      -2.061   5.208  25.231  0.00  0.00    -0.108 NA
ATOM     11  N   UNL     1      -0.720   4.940  25.082  0.00  0.00    -0.023 NA
ATOM     18  C   UNL     1      -2.649   4.038  25.319  0.00  0.00    +0.182 A 
BRANCH  18  20
ATOM     20  C   UNL     1      -4.058   3.785  25.485  0.00  0.00    +0.021 A 
ATOM     22  C   UNL     1      -4.511   2.490  25.741  0.00  0.00    +0.011 A 
ATOM     23  C   UNL     1      -4.974   4.834  25.388  0.00  0.00    +0.011 A 
ATOM     26  C   UNL     1      -5.875   2.244  25.901  0.00  0.00    +0.001 A 
ATOM     27  C   UNL     1      -6.337   4.589  25.548  0.00  0.00    +0.001 A 
ATOM     28  C   UNL     1      -6.788   3.293  25.805  0.00  0.00    +0.000 A 
ENDBRANCH  18  20
ENDBRANCH  14   7
BRANCH  15   8
ATOM      8  N   UNL     1       1.466  -0.952  23.585  0.00  0.00    -0.182 NA
ATOM     29  H   UNL     1       1.943  -1.420  24.366  0.00  0.00    +0.149 HD
BRANCH   8   1
ATOM      1  S   UNL     1       2.315   0.223  22.700  0.00  0.00    +0.065 S 
ATOM      5  O   UNL     1       1.897   1.544  23.128  0.00  0.00    -0.153 OA
ATOM      6  O   UNL     1       2.280  -0.135  21.296  0.00  0.00    -0.153 OA
BRANCH   1  19
ATOM      2  S   UNL     1       4.285  -1.595  23.867  0.00  0.00    -0.077 S 
ATOM     19  C   UNL     1       3.974  -0.030  23.256  0.00  0.00    +0.142 A 
ATOM     21  C   UNL     1       5.078   0.781  23.297  0.00  0.00    +0.036 A 
ATOM     24  C   UNL     1       6.209   0.106  23.844  0.00  0.00    +0.010 A 
ATOM     25  C   UNL     1       5.917  -1.192  24.195  0.00  0.00    +0.047 A 
ENDBRANCH   1  19
ENDBRANCH   8   1
ENDBRANCH  15   8
TORSDOF 5
ENDMDL
MODEL 10
REMARK VINA RESULT:      -1.5      3.046      6.493
REMARK  Name = 11886128
REMARK  5 active torsions:
REMARK  status: ('A' for Active; 'I' for Inactive)
REMARK    1  A    between atoms: S_1  and  N_8
REMARK    2  A    between atoms: S_1  and  C_19
REMARK    3  A    between atoms: N_7  and  C_14
REMARK    4  A    between atoms: N_8  and  C_15
REMARK    5  A    between atoms: C_18  and  C_20
REMARK                            x       y       z     vdW  Elec       q    Type
REMARK                         _______ _______ _______ _____ _____    ______ ____
ROOT
ATOM      3  O   UNL     1      -2.882  -0.742  26.501  0.00  0.00    -0.370 OA
ATOM      4  O   UNL     1      -2.897  -0.919  23.361  0.00  0.00    -0.370 OA
ATOM     12  C   UNL     1      -2.576   0.123  24.300  0.00  0.00    +0.175 C 
ATOM     13  C   UNL     1      -3.544  -0.005  25.460  0.00  0.00    +0.170 C 
ATOM     14  C   UNL     1      -1.210  -0.133  24.907  0.00  0.00    +0.168 C 
ATOM     15  C   UNL     1      -4.694  -0.811  24.899  0.00  0.00    +0.133 C 
ATOM     16  C   UNL     1      -1.529  -1.016  26.109  0.00  0.00    +0.190 C 
ATOM     17  C   UNL     1      -4.007  -1.677  23.861  0.00  0.00    +0.183 C 
ENDROOT
BRANCH  14   7
ATOM      7  N   UNL     1      -0.493   1.106  25.221  0.00  0.00    -0.217 N 
ATOM      9  N   UNL     1      -0.936   1.922  26.182  0.00  0.00    -0.043 NA
ATOM     10  N   UNL     1       0.916   2.745  25.254  0.00  0.00    -0.108 NA
ATOM     11  N   UNL     1      -0.067   2.926  26.199  0.00  0.00    -0.023 NA
ATOM     18  C   UNL     1       0.632   1.610  24.660  0.00  0.00    +0.182 A 
BRANCH  18  20
ATOM     20  C   UNL     1       1.368   0.981  23.592  0.00  0.00    +0.021 A 
ATOM     22  C   UNL     1       2.729   1.248  23.430  0.00  0.00    +0.011 A 
ATOM     23  C   UNL     1       0.722   0.107  22.716  0.00  0.00    +0.011 A 
ATOM     26  C   UNL     1       3.442   0.642  22.396  0.00  0.00    +0.001 A 
ATOM     27  C   UNL     1       1.436  -0.499  21.682  0.00  0.00    +0.001 A 
ATOM     28  C   UNL     1       2.796  -0.232  21.522  0.00  0.00    +0.000 A 
ENDBRANCH  18  20
ENDBRANCH  14   7
BRANCH  15   8
ATOM      8  N   UNL     1      -5.685   0.045  24.293  0.00  0.00    -0.182 NA
ATOM     29  H   UNL     1      -5.784  -0.011  23.272  0.00  0.00    +0.149 HD
BRANCH   8   1
ATOM      1  S   UNL     1      -6.165   1.472  25.079  0.00  0.00    +0.065 S 
ATOM      5  O   UNL     1      -6.127   1.267  26.515  0.00  0.00    -0.153 OA
ATOM      6  O   UNL     1      -7.368   1.973  24.444  0.00  0.00    -0.153 OA
BRANCH   1  19
ATOM      2  S   UNL     1      -4.314   3.564  25.939  0.00  0.00    -0.077 S 
ATOM     19  C   UNL     1      -4.857   2.581  24.652  0.00  0.00    +0.142 A 
ATOM     21  C   UNL     1      -4.177   2.818  23.485  0.00  0.00    +0.036 A 
ATOM     24  C   UNL     1      -3.187   3.831  23.647  0.00  0.00    +0.010 A 
ATOM     25  C   UNL     1      -3.155   4.322  24.932  0.00  0.00    +0.047 A 
ENDBRANCH   1  19
ENDBRANCH   8   1
ENDBRANCH  15   8
TORSDOF 5
ENDMDL
