MODEL 1
REMARK VINA RESULT:      11.1      0.000      0.000
REMARK  Name = 7135225
REMARK  15 active torsions:
REMARK  status: ('A' for Active; 'I' for Inactive)
REMARK    1  A    between atoms: O_3  and  C_16
REMARK    2  A    between atoms: O_4  and  C_21
REMARK    3  A    between atoms: O_6  and  C_29
REMARK    4  A    between atoms: N_9  and  CA_27
REMARK    5  A    between atoms: C_11  and  C_19
REMARK    6  A    between atoms: C_13  and  C_21
REMARK    7  A    between atoms: C_13  and  C_22
REMARK    8  A    between atoms: C_14  and  C_24
REMARK    9  A    between atoms: C_24  and  C_25
REMARK   10  A    between atoms: CA_27  and  CB_28
REMARK   11  A    between atoms: CA_27  and  C_29
REMARK   12  A    between atoms: CB_28  and  CG_31
REMARK   13  A    between atoms: C_30  and  C_32
REMARK   14  A    between atoms: CG_31  and  CD1_33
REMARK   15  A    between atoms: CG_31  and  CD2_34
REMARK                            x       y       z     vdW  Elec       q    Type
REMARK                         _______ _______ _______ _____ _____    ______ ____
ROOT
ATOM      1  S   UNL     1       0.265   2.191  25.888  0.00  0.00    -0.057 S 
ATOM      7  O   UNL     1       1.737  -0.057  22.086  0.00  0.00    -0.270 OA
ATOM      8  N   UNL     1      -0.442   1.286  23.570  0.00  0.00    -0.229 NA
ATOM     10  N   UNL     1       1.851   0.930  24.223  0.00  0.00    -0.261 N 
ATOM     11  C   UNL     1      -4.064   2.290  24.426  0.00  0.00    -0.019 C 
ATOM     12  C   UNL     1      -3.595   3.513  25.332  0.00  0.00    +0.011 C 
ATOM     13  C   UNL     1      -4.719   4.300  26.109  0.00  0.00    +0.021 C 
ATOM     14  C   UNL     1      -2.874   1.936  23.420  0.00  0.00    +0.054 C 
ATOM     15  C   UNL     1      -5.301   2.711  23.590  0.00  0.00    +0.010 C 
ATOM     16  C   UNL     1      -5.896   4.602  25.140  0.00  0.00    +0.123 C 
ATOM     17  C   UNL     1      -2.371   3.129  26.215  0.00  0.00    +0.049 C 
ATOM     18  C   UNL     1      -6.405   3.363  24.411  0.00  0.00    +0.032 C 
ATOM     19  C   UNL     1      -4.429   1.033  25.255  0.00  0.00    +0.012 C 
ATOM     20  C   UNL     1      -1.554   1.873  24.144  0.00  0.00    +0.058 A 
ATOM     22  C   UNL     1      -4.146   5.668  26.580  0.00  0.00    +0.016 C 
ATOM     23  C   UNL     1      -1.345   2.431  25.388  0.00  0.00    +0.015 A 
ATOM     26  C   UNL     1       0.573   1.387  24.401  0.00  0.00    +0.165 A 
ATOM     30  C   UNL     1       2.352   0.248  23.102  0.00  0.00    +0.250 C 
ATOM     43  H   UNL     1       2.474   1.170  24.987  0.00  0.00    +0.157 HD
ENDROOT
BRANCH  30  32
ATOM      2  F   UNL     1       5.887  -2.862  24.204  0.00  0.00    -0.205 F 
ATOM     32  C   UNL     1       3.795  -0.106  23.164  0.00  0.00    +0.040 A 
ATOM     35  C   UNL     1       4.156  -1.339  23.665  0.00  0.00    +0.051 A 
ATOM     36  C   UNL     1       4.724   0.811  22.719  0.00  0.00    +0.013 A 
ATOM     37  C   UNL     1       5.509  -1.670  23.722  0.00  0.00    +0.124 A 
ATOM     38  C   UNL     1       6.077   0.479  22.776  0.00  0.00    +0.004 A 
ATOM     39  C   UNL     1       6.469  -0.762  23.278  0.00  0.00    +0.038 A 
ENDBRANCH  30  32
BRANCH  16   3
ATOM      3  O   UNL     1      -6.985   5.200  25.844  0.00  0.00    -0.391 OA
ATOM     40  H   UNL     1      -7.811   4.858  25.465  0.00  0.00    +0.210 HD
ENDBRANCH  16   3
BRANCH  13  21
ATOM     21  C   UNL     1      -5.223   3.599  27.390  0.00  0.00    +0.165 C 
BRANCH  21   4
ATOM      4  O   UNL     1      -6.205   2.662  27.010  0.00  0.00    -0.394 OA
ATOM     41  H   UNL     1      -6.920   2.691  27.668  0.00  0.00    +0.209 HD
ENDBRANCH  21   4
ENDBRANCH  13  21
BRANCH  14  24
ATOM     24  C   UNL     1      -3.110   0.680  22.571  0.00  0.00    +0.106 C 
BRANCH  24  25
ATOM      5  O   UNL     1      -4.896  -0.594  23.593  0.00  0.00    -0.276 OA
ATOM      9  N   UNL     1      -2.694  -1.293  23.852  0.00  0.00    -0.310 N 
ATOM     25  C   ACE A   0      -3.694  -0.453  23.384  0.00  0.00    +0.214 C 
ATOM     42  H   UNL     1      -1.729  -1.092  23.618  0.00  0.00    +0.149 HD
BRANCH   9  27
ATOM     27  CA  UNL     1      -2.959  -2.460  24.662  0.00  0.00    +0.098 C 
BRANCH  27  28
ATOM     28  CB  UNL     1      -1.696  -2.903  25.422  0.00  0.00    +0.027 C 
BRANCH  28  31
ATOM     31  CG  UNL     1      -0.572  -1.847  25.493  0.00  0.00    -0.015 C 
ATOM     33  CD1 UNL     1      -0.710  -0.924  26.705  0.00  0.00    +0.007 C 
ATOM     34  CD2 UNL     1       0.790  -2.546  25.532  0.00  0.00    +0.007 C 
ENDBRANCH  28  31
ENDBRANCH  27  28
BRANCH  27  29
ATOM     29  C   UNL     1      -3.524  -3.586  23.789  0.00  0.00    +0.178 C 
BRANCH  29   6
ATOM      6  O   UNL     1      -4.891  -3.345  23.478  0.00  0.00    -0.393 OA
ATOM     44  H   UNL     1      -5.432  -3.758  24.171  0.00  0.00    +0.209 HD
ENDBRANCH  29   6
ENDBRANCH  27  29
ENDBRANCH   9  27
ENDBRANCH  24  25
ENDBRANCH  14  24
TORSDOF 11
ENDMDL
MODEL 2
REMARK VINA RESULT:      11.2      0.857      1.374
REMARK  Name = 7135225
REMARK  15 active torsions:
REMARK  status: ('A' for Active; 'I' for Inactive)
REMARK    1  A    between atoms: O_3  and  C_16
REMARK    2  A    between atoms: O_4  and  C_21
REMARK    3  A    between atoms: O_6  and  C_29
REMARK    4  A    between atoms: N_9  and  CA_27
REMARK    5  A    between atoms: C_11  and  C_19
REMARK    6  A    between atoms: C_13  and  C_21
REMARK    7  A    between atoms: C_13  and  C_22
REMARK    8  A    between atoms: C_14  and  C_24
REMARK    9  A    between atoms: C_24  and  C_25
REMARK   10  A    between atoms: CA_27  and  CB_28
REMARK   11  A    between atoms: CA_27  and  C_29
REMARK   12  A    between atoms: CB_28  and  CG_31
REMARK   13  A    between atoms: C_30  and  C_32
REMARK   14  A    between atoms: CG_31  and  CD1_33
REMARK   15  A    between atoms: CG_31  and  CD2_34
REMARK                            x       y       z     vdW  Elec       q    Type
REMARK                         _______ _______ _______ _____ _____    ______ ____
ROOT
ATOM      1  S   UNL     1       0.273   2.130  25.889  0.00  0.00    -0.057 S 
ATOM      7  O   UNL     1       1.818   0.001  22.048  0.00  0.00    -0.270 OA
ATOM      8  N   UNL     1      -0.389   1.297  23.532  0.00  0.00    -0.229 NA
ATOM     10  N   UNL     1       1.891   0.922  24.217  0.00  0.00    -0.261 N 
ATOM     11  C   UNL     1      -4.028   2.274  24.350  0.00  0.00    -0.019 C 
ATOM     12  C   UNL     1      -3.577   3.468  25.302  0.00  0.00    +0.011 C 
ATOM     13  C   UNL     1      -4.715   4.231  26.082  0.00  0.00    +0.021 C 
ATOM     14  C   UNL     1      -2.819   1.951  23.356  0.00  0.00    +0.054 C 
ATOM     15  C   UNL     1      -5.249   2.721  23.504  0.00  0.00    +0.010 C 
ATOM     16  C   UNL     1      -5.875   4.562  25.101  0.00  0.00    +0.123 C 
ATOM     17  C   UNL     1      -2.370   3.058  26.195  0.00  0.00    +0.049 C 
ATOM     18  C   UNL     1      -6.369   3.347  24.324  0.00  0.00    +0.032 C 
ATOM     19  C   UNL     1      -4.408   0.992  25.132  0.00  0.00    +0.012 C 
ATOM     20  C   UNL     1      -1.512   1.866  24.102  0.00  0.00    +0.058 A 
ATOM     22  C   UNL     1      -4.152   5.584  26.605  0.00  0.00    +0.016 C 
ATOM     23  C   UNL     1      -1.327   2.385  25.367  0.00  0.00    +0.015 A 
ATOM     26  C   UNL     1       0.609   1.373  24.385  0.00  0.00    +0.165 A 
ATOM     30  C   UNL     1       2.413   0.275  23.084  0.00  0.00    +0.250 C 
ATOM     43  H   UNL     1       2.500   1.137  25.000  0.00  0.00    +0.157 HD
ENDROOT
BRANCH  30  32
ATOM      2  F   UNL     1       5.932  -2.842  24.220  0.00  0.00    -0.205 F 
ATOM     32  C   UNL     1       3.856  -0.080  23.162  0.00  0.00    +0.040 A 
ATOM     35  C   UNL     1       4.209  -1.315  23.664  0.00  0.00    +0.051 A 
ATOM     36  C   UNL     1       4.790   0.836  22.731  0.00  0.00    +0.013 A 
ATOM     37  C   UNL     1       5.561  -1.649  23.737  0.00  0.00    +0.124 A 
ATOM     38  C   UNL     1       6.143   0.503  22.804  0.00  0.00    +0.004 A 
ATOM     39  C   UNL     1       6.528  -0.740  23.307  0.00  0.00    +0.038 A 
ENDBRANCH  30  32
BRANCH  16   3
ATOM      3  O   UNL     1      -6.977   5.138  25.802  0.00  0.00    -0.391 OA
ATOM     40  H   UNL     1      -6.864   6.103  25.798  0.00  0.00    +0.210 HD
ENDBRANCH  16   3
BRANCH  13  21
ATOM     21  C   UNL     1      -5.243   3.491  27.331  0.00  0.00    +0.165 C 
BRANCH  21   4
ATOM      4  O   UNL     1      -6.287   2.638  26.917  0.00  0.00    -0.394 OA
ATOM     41  H   UNL     1      -6.358   2.696  25.949  0.00  0.00    +0.209 HD
ENDBRANCH  21   4
ENDBRANCH  13  21
BRANCH  14  24
ATOM     24  C   UNL     1      -3.038   0.722  22.464  0.00  0.00    +0.106 C 
BRANCH  24  25
ATOM      5  O   UNL     1      -4.402  -0.938  23.577  0.00  0.00    -0.276 OA
ATOM      9  N   UNL     1      -2.086  -1.138  23.623  0.00  0.00    -0.310 N 
ATOM     25  C   ACE A   0      -3.284  -0.530  23.275  0.00  0.00    +0.214 C 
ATOM     42  H   UNL     1      -1.214  -0.723  23.318  0.00  0.00    +0.149 HD
BRANCH   9  27
ATOM     27  CA  UNL     1      -2.016  -2.353  24.402  0.00  0.00    +0.098 C 
BRANCH  27  28
ATOM     28  CB  UNL     1      -3.155  -2.413  25.435  0.00  0.00    +0.027 C 
BRANCH  28  31
ATOM     31  CG  UNL     1      -3.024  -1.424  26.612  0.00  0.00    -0.015 C 
ATOM     33  CD1 UNL     1      -3.248  -2.093  27.969  0.00  0.00    +0.007 C 
ATOM     34  CD2 UNL     1      -1.638  -0.772  26.584  0.00  0.00    +0.007 C 
ENDBRANCH  28  31
ENDBRANCH  27  28
BRANCH  27  29
ATOM     29  C   UNL     1      -0.638  -2.472  25.064  0.00  0.00    +0.178 C 
BRANCH  29   6
ATOM      6  O   UNL     1       0.285  -1.566  24.472  0.00  0.00    -0.393 OA
ATOM     44  H   UNL     1      -0.215  -0.797  24.151  0.00  0.00    +0.209 HD
ENDBRANCH  29   6
ENDBRANCH  27  29
ENDBRANCH   9  27
ENDBRANCH  24  25
ENDBRANCH  14  24
TORSDOF 11
ENDMDL
