MODEL 1
REMARK VINA RESULT:      -3.9      0.000      0.000
REMARK  Name = 56775117
REMARK  6 active torsions:
REMARK  status: ('A' for Active; 'I' for Inactive)
REMARK    1  A    between atoms: O_3  and  C_16
REMARK    2  A    between atoms: O_3  and  C_24
REMARK    3  A    between atoms: N_4  and  C_11
REMARK    4  A    between atoms: N_5  and  C_14
REMARK    5  A    between atoms: C_11  and  C_15
REMARK    6  A    between atoms: C_14  and  C_16
REMARK                            x       y       z     vdW  Elec       q    Type
REMARK                         _______ _______ _______ _____ _____    ______ ____
ROOT
ATOM      1  O   UNL     1      -1.162   1.469  25.956  0.00  0.00    -0.364 OA
ATOM      2  O   UNL     1       1.509   2.479  23.891  0.00  0.00    -0.273 OA
ATOM      4  N   UNL     1      -2.970  -0.937  24.614  0.00  0.00    -0.294 NA
ATOM      5  N   UNL     1       0.297   0.492  23.834  0.00  0.00    -0.291 N 
ATOM      7  C   UNL     1      -0.745  -0.346  24.420  0.00  0.00    +0.120 C 
ATOM      8  C   UNL     1      -1.170   0.048  25.831  0.00  0.00    +0.154 C 
ATOM      9  C   UNL     1      -2.067  -0.293  23.661  0.00  0.00    +0.110 C 
ATOM     10  C   UNL     1      -2.624  -0.422  25.946  0.00  0.00    +0.118 C 
ATOM     12  C   UNL     1       0.702   1.699  24.399  0.00  0.00    +0.242 C 
ATOM     13  C   UNL     1       0.136   1.983  25.773  0.00  0.00    +0.256 C 
ENDROOT
BRANCH   4  11
ATOM     11  C   UNL     1      -4.372  -0.744  24.279  0.00  0.00    +0.121 C 
BRANCH  11  15
ATOM      6  N   UNL     1      -6.121   1.990  26.013  0.00  0.00    -0.360 N 
ATOM     15  C   UNL     1      -4.909   0.546  24.842  0.00  0.00    -0.008 A 
ATOM     17  C   UNL     1      -4.458   1.859  24.533  0.00  0.00    +0.004 A 
ATOM     18  C   UNL     1      -5.932   0.658  25.756  0.00  0.00    +0.088 A 
ATOM     19  C   UNL     1      -5.234   2.746  25.280  0.00  0.00    +0.047 A 
ATOM     20  C   UNL     1      -3.460   2.379  23.684  0.00  0.00    +0.010 A 
ATOM     21  C   UNL     1      -5.063   4.134  25.223  0.00  0.00    +0.026 A 
ATOM     22  C   UNL     1      -3.277   3.766  23.617  0.00  0.00    +0.001 A 
ATOM     23  C   UNL     1      -4.068   4.627  24.375  0.00  0.00    +0.002 A 
ATOM     25  H   UNL     1      -6.811   2.364  26.650  0.00  0.00    +0.165 HD
ENDBRANCH  11  15
ENDBRANCH   4  11
BRANCH   5  14
ATOM     14  C   UNL     1       0.849   0.064  22.555  0.00  0.00    +0.136 C 
BRANCH  14  16
ATOM     16  C   UNL     1       2.270  -0.447  22.703  0.00  0.00    +0.178 C 
BRANCH  16   3
ATOM      3  O   UNL     1       3.175   0.515  22.176  0.00  0.00    -0.381 OA
ATOM     24  C   UNL     1       4.368   0.584  22.945  0.00  0.00    +0.194 C 
ENDBRANCH  16   3
ENDBRANCH  14  16
ENDBRANCH   5  14
TORSDOF 5
ENDMDL
MODEL 2
REMARK VINA RESULT:      -3.9      2.378      7.036
REMARK  Name = 56775117
REMARK  6 active torsions:
REMARK  status: ('A' for Active; 'I' for Inactive)
REMARK    1  A    between atoms: O_3  and  C_16
REMARK    2  A    between atoms: O_3  and  C_24
REMARK    3  A    between atoms: N_4  and  C_11
REMARK    4  A    between atoms: N_5  and  C_14
REMARK    5  A    between atoms: C_11  and  C_15
REMARK    6  A    between atoms: C_14  and  C_16
REMARK                            x       y       z     vdW  Elec       q    Type
REMARK                         _______ _______ _______ _____ _____    ______ ____
ROOT
ATOM      1  O   UNL     1      -3.311  -0.849  24.685  0.00  0.00    -0.364 OA
ATOM      2  O   UNL     1      -5.577   1.837  24.436  0.00  0.00    -0.273 OA
ATOM      4  N   UNL     1      -0.178   0.083  24.263  0.00  0.00    -0.294 NA
ATOM      5  N   UNL     1      -3.289   1.899  24.859  0.00  0.00    -0.291 N 
ATOM      7  C   UNL     1      -2.047   1.167  25.085  0.00  0.00    +0.120 C 
ATOM      8  C   UNL     1      -2.222  -0.309  25.430  0.00  0.00    +0.154 C 
ATOM      9  C   UNL     1      -1.144   1.103  23.857  0.00  0.00    +0.110 C 
ATOM     10  C   UNL     1      -0.938  -0.981  24.935  0.00  0.00    +0.118 C 
ATOM     12  C   UNL     1      -4.522   1.268  24.719  0.00  0.00    +0.242 C 
ATOM     13  C   UNL     1      -4.520  -0.214  25.025  0.00  0.00    +0.256 C 
ENDROOT
BRANCH   4  11
ATOM     11  C   UNL     1       0.623  -0.408  23.153  0.00  0.00    +0.121 C 
BRANCH  11  15
ATOM      6  N   UNL     1       3.536   1.812  22.806  0.00  0.00    -0.360 N 
ATOM     15  C   UNL     1       1.966   0.269  23.090  0.00  0.00    -0.008 A 
ATOM     17  C   UNL     1       3.228  -0.322  23.376  0.00  0.00    +0.004 A 
ATOM     18  C   UNL     1       2.188   1.583  22.744  0.00  0.00    +0.088 A 
ATOM     19  C   UNL     1       4.196   0.666  23.190  0.00  0.00    +0.047 A 
ATOM     20  C   UNL     1       3.641  -1.610  23.775  0.00  0.00    +0.010 A 
ATOM     21  C   UNL     1       5.562   0.433  23.384  0.00  0.00    +0.026 A 
ATOM     22  C   UNL     1       5.004  -1.858  23.973  0.00  0.00    +0.001 A 
ATOM     23  C   UNL     1       5.948  -0.851  23.780  0.00  0.00    +0.002 A 
ATOM     25  H   UNL     1       3.983   2.695  22.601  0.00  0.00    +0.165 HD
ENDBRANCH  11  15
ENDBRANCH   4  11
BRANCH   5  14
ATOM     14  C   UNL     1      -3.184   3.342  24.682  0.00  0.00    +0.136 C 
BRANCH  14  16
ATOM     16  C   UNL     1      -2.563   4.009  25.896  0.00  0.00    +0.178 C 
BRANCH  16   3
ATOM      3  O   UNL     1      -1.784   5.122  25.477  0.00  0.00    -0.381 OA
ATOM     24  C   UNL     1      -0.631   4.709  24.756  0.00  0.00    +0.194 C 
ENDBRANCH  16   3
ENDBRANCH  14  16
ENDBRANCH   5  14
TORSDOF 5
ENDMDL
MODEL 3
REMARK VINA RESULT:      -3.3      2.531      6.148
REMARK  Name = 56775117
REMARK  6 active torsions:
REMARK  status: ('A' for Active; 'I' for Inactive)
REMARK    1  A    between atoms: O_3  and  C_16
REMARK    2  A    between atoms: O_3  and  C_24
REMARK    3  A    between atoms: N_4  and  C_11
REMARK    4  A    between atoms: N_5  and  C_14
REMARK    5  A    between atoms: C_11  and  C_15
REMARK    6  A    between atoms: C_14  and  C_16
REMARK                            x       y       z     vdW  Elec       q    Type
REMARK                         _______ _______ _______ _____ _____    ______ ____
ROOT
ATOM      1  O   UNL     1      -2.766   4.382  26.538  0.00  0.00    -0.364 OA
ATOM      2  O   UNL     1      -5.882   2.739  26.544  0.00  0.00    -0.273 OA
ATOM      4  N   UNL     1      -0.771   3.321  24.139  0.00  0.00    -0.294 NA
ATOM      5  N   UNL     1      -4.336   2.917  24.814  0.00  0.00    -0.291 N 
ATOM      7  C   UNL     1      -3.070   3.458  24.329  0.00  0.00    +0.120 C 
ATOM      8  C   UNL     1      -2.503   4.609  25.155  0.00  0.00    +0.154 C 
ATOM      9  C   UNL     1      -1.925   2.450  24.358  0.00  0.00    +0.110 C 
ATOM     10  C   UNL     1      -0.987   4.529  24.948  0.00  0.00    +0.118 C 
ATOM     12  C   UNL     1      -4.868   3.242  26.059  0.00  0.00    +0.242 C 
ATOM     13  C   UNL     1      -4.150   4.355  26.790  0.00  0.00    +0.256 C 
ENDROOT
BRANCH   4  11
ATOM     11  C   UNL     1       0.493   2.664  24.431  0.00  0.00    +0.121 C 
BRANCH  11  15
ATOM      6  N   UNL     1       0.870  -0.736  23.074  0.00  0.00    -0.360 N 
ATOM     15  C   UNL     1       0.457   1.200  24.078  0.00  0.00    -0.008 A 
ATOM     17  C   UNL     1      -0.319   0.193  24.717  0.00  0.00    +0.004 A 
ATOM     18  C   UNL     1       1.179   0.598  23.073  0.00  0.00    +0.088 A 
ATOM     19  C   UNL     1      -0.041  -1.011  24.068  0.00  0.00    +0.047 A 
ATOM     20  C   UNL     1      -1.235   0.192  25.788  0.00  0.00    +0.010 A 
ATOM     21  C   UNL     1      -0.636  -2.224  24.438  0.00  0.00    +0.026 A 
ATOM     22  C   UNL     1      -1.837  -1.013  26.170  0.00  0.00    +0.001 A 
ATOM     23  C   UNL     1      -1.541  -2.200  25.503  0.00  0.00    +0.002 A 
ATOM     25  H   UNL     1       1.257  -1.420  22.439  0.00  0.00    +0.165 HD
ENDBRANCH  11  15
ENDBRANCH   4  11
BRANCH   5  14
ATOM     14  C   UNL     1      -4.996   1.925  23.974  0.00  0.00    +0.136 C 
BRANCH  14  16
ATOM     16  C   UNL     1      -4.854   0.527  24.545  0.00  0.00    +0.178 C 
BRANCH  16   3
ATOM      3  O   UNL     1      -4.048  -0.258  23.675  0.00  0.00    -0.381 OA
ATOM     24  C   UNL     1      -4.345  -1.642  23.797  0.00  0.00    +0.194 C 
ENDBRANCH  16   3
ENDBRANCH  14  16
ENDBRANCH   5  14
TORSDOF 5
ENDMDL
MODEL 4
REMARK VINA RESULT:      -3.1     19.053     20.573
REMARK  Name = 56775117
REMARK  6 active torsions:
REMARK  status: ('A' for Active; 'I' for Inactive)
REMARK    1  A    between atoms: O_3  and  C_16
REMARK    2  A    between atoms: O_3  and  C_24
REMARK    3  A    between atoms: N_4  and  C_11
REMARK    4  A    between atoms: N_5  and  C_14
REMARK    5  A    between atoms: C_11  and  C_15
REMARK    6  A    between atoms: C_14  and  C_16
REMARK                            x       y       z     vdW  Elec       q    Type
REMARK                         _______ _______ _______ _____ _____    ______ ____
ROOT
ATOM      1  O   UNL     1      14.738  -6.285  28.277  0.00  0.00    -0.364 OA
ATOM      2  O   UNL     1      15.829  -7.237  31.489  0.00  0.00    -0.273 OA
ATOM      4  N   UNL     1      16.654  -7.476  25.875  0.00  0.00    -0.294 NA
ATOM      5  N   UNL     1      16.326  -8.214  29.436  0.00  0.00    -0.291 N 
ATOM      7  C   UNL     1      16.123  -8.240  27.990  0.00  0.00    +0.120 C 
ATOM      8  C   UNL     1      14.904  -7.467  27.497  0.00  0.00    +0.154 C 
ATOM      9  C   UNL     1      17.256  -7.588  27.203  0.00  0.00    +0.110 C 
ATOM     10  C   UNL     1      15.265  -7.037  26.071  0.00  0.00    +0.118 C 
ATOM     12  C   UNL     1      15.625  -7.357  30.280  0.00  0.00    +0.242 C 
ATOM     13  C   UNL     1      14.488  -6.602  29.626  0.00  0.00    +0.256 C 
ENDROOT
BRANCH   4  11
ATOM     11  C   UNL     1      17.405  -6.599  24.991  0.00  0.00    +0.121 C 
BRANCH  11  15
ATOM      6  N   UNL     1      17.256  -3.327  26.668  0.00  0.00    -0.360 N 
ATOM     15  C   UNL     1      17.301  -5.156  25.412  0.00  0.00    -0.008 A 
ATOM     17  C   UNL     1      17.083  -4.038  24.561  0.00  0.00    +0.004 A 
ATOM     18  C   UNL     1      17.405  -4.688  26.702  0.00  0.00    +0.088 A 
ATOM     19  C   UNL     1      17.059  -2.903  25.373  0.00  0.00    +0.047 A 
ATOM     20  C   UNL     1      16.901  -3.883  23.172  0.00  0.00    +0.010 A 
ATOM     21  C   UNL     1      16.861  -1.614  24.865  0.00  0.00    +0.026 A 
ATOM     22  C   UNL     1      16.703  -2.599  22.649  0.00  0.00    +0.001 A 
ATOM     23  C   UNL     1      16.684  -1.484  23.485  0.00  0.00    +0.002 A 
ATOM     25  H   UNL     1      17.288  -2.721  27.476  0.00  0.00    +0.165 HD
ENDBRANCH  11  15
ENDBRANCH   4  11
BRANCH   5  14
ATOM     14  C   UNL     1      17.381  -9.064  29.971  0.00  0.00    +0.136 C 
BRANCH  14  16
ATOM     16  C   UNL     1      16.985 -10.529  29.945  0.00  0.00    +0.178 C 
BRANCH  16   3
ATOM      3  O   UNL     1      15.767 -10.701  30.658  0.00  0.00    -0.381 OA
ATOM     24  C   UNL     1      15.986 -10.741  32.061  0.00  0.00    +0.194 C 
ENDBRANCH  16   3
ENDBRANCH  14  16
ENDBRANCH   5  14
TORSDOF 5
ENDMDL
MODEL 5
REMARK VINA RESULT:      -2.8      2.032      4.329
REMARK  Name = 56775117
REMARK  6 active torsions:
REMARK  status: ('A' for Active; 'I' for Inactive)
REMARK    1  A    between atoms: O_3  and  C_16
REMARK    2  A    between atoms: O_3  and  C_24
REMARK    3  A    between atoms: N_4  and  C_11
REMARK    4  A    between atoms: N_5  and  C_14
REMARK    5  A    between atoms: C_11  and  C_15
REMARK    6  A    between atoms: C_14  and  C_16
REMARK                            x       y       z     vdW  Elec       q    Type
REMARK                         _______ _______ _______ _____ _____    ______ ____
ROOT
ATOM      1  O   UNL     1       0.311   0.791  23.063  0.00  0.00    -0.364 OA
ATOM      2  O   UNL     1      -0.942  -2.431  23.740  0.00  0.00    -0.273 OA
ATOM      4  N   UNL     1      -0.689   3.035  25.260  0.00  0.00    -0.294 NA
ATOM      5  N   UNL     1      -0.746  -0.615  25.182  0.00  0.00    -0.291 N 
ATOM      7  C   UNL     1      -0.304   0.760  25.396  0.00  0.00    +0.120 C 
ATOM      8  C   UNL     1       0.666   1.296  24.348  0.00  0.00    +0.154 C 
ATOM      9  C   UNL     1      -1.437   1.780  25.334  0.00  0.00    +0.110 C 
ATOM     10  C   UNL     1       0.432   2.810  24.337  0.00  0.00    +0.118 C 
ATOM     12  C   UNL     1      -0.509  -1.307  23.997  0.00  0.00    +0.242 C 
ATOM     13  C   UNL     1       0.418  -0.612  23.024  0.00  0.00    +0.256 C 
ENDROOT
BRANCH   4  11
ATOM     11  C   UNL     1      -1.521   4.164  24.876  0.00  0.00    +0.121 C 
BRANCH  11  15
ATOM      6  N   UNL     1      -4.724   4.450  26.665  0.00  0.00    -0.360 N 
ATOM     15  C   UNL     1      -2.910   4.056  25.447  0.00  0.00    -0.008 A 
ATOM     17  C   UNL     1      -3.905   3.105  25.085  0.00  0.00    +0.004 A 
ATOM     18  C   UNL     1      -3.443   4.870  26.420  0.00  0.00    +0.088 A 
ATOM     19  C   UNL     1      -5.031   3.374  25.863  0.00  0.00    +0.047 A 
ATOM     20  C   UNL     1      -3.953   2.037  24.167  0.00  0.00    +0.010 A 
ATOM     21  C   UNL     1      -6.211   2.626  25.770  0.00  0.00    +0.026 A 
ATOM     22  C   UNL     1      -5.126   1.280  24.062  0.00  0.00    +0.001 A 
ATOM     23  C   UNL     1      -6.236   1.572  24.852  0.00  0.00    +0.002 A 
ATOM     25  H   UNL     1      -5.352   4.870  27.336  0.00  0.00    +0.165 HD
ENDBRANCH  11  15
ENDBRANCH   4  11
BRANCH   5  14
ATOM     14  C   UNL     1      -1.546  -1.224  26.236  0.00  0.00    +0.136 C 
BRANCH  14  16
ATOM     16  C   UNL     1      -3.032  -1.085  25.961  0.00  0.00    +0.178 C 
BRANCH  16   3
ATOM      3  O   UNL     1      -3.541  -2.321  25.479  0.00  0.00    -0.381 OA
ATOM     24  C   UNL     1      -4.104  -2.183  24.181  0.00  0.00    +0.194 C 
ENDBRANCH  16   3
ENDBRANCH  14  16
ENDBRANCH   5  14
TORSDOF 5
ENDMDL
MODEL 6
REMARK VINA RESULT:      -2.5      2.109      2.936
REMARK  Name = 56775117
REMARK  6 active torsions:
REMARK  status: ('A' for Active; 'I' for Inactive)
REMARK    1  A    between atoms: O_3  and  C_16
REMARK    2  A    between atoms: O_3  and  C_24
REMARK    3  A    between atoms: N_4  and  C_11
REMARK    4  A    between atoms: N_5  and  C_14
REMARK    5  A    between atoms: C_11  and  C_15
REMARK    6  A    between atoms: C_14  and  C_16
REMARK                            x       y       z     vdW  Elec       q    Type
REMARK                         _______ _______ _______ _____ _____    ______ ____
ROOT
ATOM      1  O   UNL     1      -2.971  -2.456  25.192  0.00  0.00    -0.364 OA
ATOM      2  O   UNL     1       0.538  -2.544  25.495  0.00  0.00    -0.273 OA
ATOM      4  N   UNL     1      -4.104   0.527  24.370  0.00  0.00    -0.294 NA
ATOM      5  N   UNL     1      -0.785  -0.994  24.371  0.00  0.00    -0.291 N 
ATOM      7  C   UNL     1      -2.117  -0.574  23.946  0.00  0.00    +0.120 C 
ATOM      8  C   UNL     1      -3.193  -1.652  24.036  0.00  0.00    +0.154 C 
ATOM      9  C   UNL     1      -2.708   0.540  24.806  0.00  0.00    +0.110 C 
ATOM     10  C   UNL     1      -4.501  -0.882  24.246  0.00  0.00    +0.118 C 
ATOM     12  C   UNL     1      -0.551  -2.194  25.038  0.00  0.00    +0.242 C 
ATOM     13  C   UNL     1      -1.737  -3.130  25.109  0.00  0.00    +0.256 C 
ENDROOT
BRANCH   4  11
ATOM     11  C   UNL     1      -4.976   1.284  25.255  0.00  0.00    +0.121 C 
BRANCH  11  15
ATOM      6  N   UNL     1      -4.762   4.955  25.394  0.00  0.00    -0.360 N 
ATOM     15  C   UNL     1      -4.605   2.743  25.292  0.00  0.00    -0.008 A 
ATOM     17  C   UNL     1      -3.291   3.286  25.233  0.00  0.00    +0.004 A 
ATOM     18  C   UNL     1      -5.488   3.794  25.392  0.00  0.00    +0.088 A 
ATOM     19  C   UNL     1      -3.418   4.674  25.299  0.00  0.00    +0.047 A 
ATOM     20  C   UNL     1      -2.002   2.726  25.128  0.00  0.00    +0.010 A 
ATOM     21  C   UNL     1      -2.315   5.537  25.265  0.00  0.00    +0.026 A 
ATOM     22  C   UNL     1      -0.889   3.576  25.094  0.00  0.00    +0.001 A 
ATOM     23  C   UNL     1      -1.047   4.959  25.161  0.00  0.00    +0.002 A 
ATOM     25  H   UNL     1      -5.156   5.884  25.458  0.00  0.00    +0.165 HD
ENDBRANCH  11  15
ENDBRANCH   4  11
BRANCH   5  14
ATOM     14  C   UNL     1       0.306  -0.053  24.157  0.00  0.00    +0.136 C 
BRANCH  14  16
ATOM     16  C   UNL     1       0.906  -0.200  22.771  0.00  0.00    +0.178 C 
BRANCH  16   3
ATOM      3  O   UNL     1       2.301  -0.448  22.884  0.00  0.00    -0.381 OA
ATOM     24  C   UNL     1       3.055   0.750  22.771  0.00  0.00    +0.194 C 
ENDBRANCH  16   3
ENDBRANCH  14  16
ENDBRANCH   5  14
TORSDOF 5
ENDMDL
MODEL 7
REMARK VINA RESULT:      -2.4      2.450      6.004
REMARK  Name = 56775117
REMARK  6 active torsions:
REMARK  status: ('A' for Active; 'I' for Inactive)
REMARK    1  A    between atoms: O_3  and  C_16
REMARK    2  A    between atoms: O_3  and  C_24
REMARK    3  A    between atoms: N_4  and  C_11
REMARK    4  A    between atoms: N_5  and  C_14
REMARK    5  A    between atoms: C_11  and  C_15
REMARK    6  A    between atoms: C_14  and  C_16
REMARK                            x       y       z     vdW  Elec       q    Type
REMARK                         _______ _______ _______ _____ _____    ______ ____
ROOT
ATOM      1  O   UNL     1      -0.645   4.499  24.932  0.00  0.00    -0.364 OA
ATOM      2  O   UNL     1      -3.482   5.502  26.766  0.00  0.00    -0.273 OA
ATOM      4  N   UNL     1      -0.827   1.370  23.914  0.00  0.00    -0.294 NA
ATOM      5  N   UNL     1      -3.262   3.718  25.287  0.00  0.00    -0.291 N 
ATOM      7  C   UNL     1      -2.427   2.982  24.343  0.00  0.00    +0.120 C 
ATOM      8  C   UNL     1      -1.187   3.728  23.862  0.00  0.00    +0.154 C 
ATOM      9  C   UNL     1      -1.826   1.707  24.928  0.00  0.00    +0.110 C 
ATOM     10  C   UNL     1      -0.176   2.628  23.521  0.00  0.00    +0.118 C 
ATOM     12  C   UNL     1      -2.849   4.899  25.898  0.00  0.00    +0.242 C 
ATOM     13  C   UNL     1      -1.560   5.481  25.360  0.00  0.00    +0.256 C 
ENDROOT
BRANCH   4  11
ATOM     11  C   UNL     1       0.117   0.362  24.369  0.00  0.00    +0.121 C 
BRANCH  11  15
ATOM      6  N   UNL     1      -0.912  -3.039  25.322  0.00  0.00    -0.360 N 
ATOM     15  C   UNL     1      -0.560  -0.952  24.654  0.00  0.00    -0.008 A 
ATOM     17  C   UNL     1      -1.916  -1.285  24.378  0.00  0.00    +0.004 A 
ATOM     18  C   UNL     1       0.031  -2.050  25.235  0.00  0.00    +0.088 A 
ATOM     19  C   UNL     1      -2.110  -2.599  24.806  0.00  0.00    +0.047 A 
ATOM     20  C   UNL     1      -2.998  -0.591  23.802  0.00  0.00    +0.010 A 
ATOM     21  C   UNL     1      -3.340  -3.258  24.687  0.00  0.00    +0.026 A 
ATOM     22  C   UNL     1      -4.234  -1.237  23.676  0.00  0.00    +0.001 A 
ATOM     23  C   UNL     1      -4.399  -2.550  24.113  0.00  0.00    +0.002 A 
ATOM     25  H   UNL     1      -0.753  -3.959  25.709  0.00  0.00    +0.165 HD
ENDBRANCH  11  15
ENDBRANCH   4  11
BRANCH   5  14
ATOM     14  C   UNL     1      -4.537   3.114  25.654  0.00  0.00    +0.136 C 
BRANCH  14  16
ATOM     16  C   UNL     1      -5.132   2.325  24.503  0.00  0.00    +0.178 C 
BRANCH  16   3
ATOM      3  O   UNL     1      -6.263   1.596  24.965  0.00  0.00    -0.381 OA
ATOM     24  C   UNL     1      -6.380   1.657  26.380  0.00  0.00    +0.194 C 
ENDBRANCH  16   3
ENDBRANCH  14  16
ENDBRANCH   5  14
TORSDOF 5
ENDMDL
MODEL 8
REMARK VINA RESULT:      -2.0     18.036     20.480
REMARK  Name = 56775117
REMARK  6 active torsions:
REMARK  status: ('A' for Active; 'I' for Inactive)
REMARK    1  A    between atoms: O_3  and  C_16
REMARK    2  A    between atoms: O_3  and  C_24
REMARK    3  A    between atoms: N_4  and  C_11
REMARK    4  A    between atoms: N_5  and  C_14
REMARK    5  A    between atoms: C_11  and  C_15
REMARK    6  A    between atoms: C_14  and  C_16
REMARK                            x       y       z     vdW  Elec       q    Type
REMARK                         _______ _______ _______ _____ _____    ______ ____
ROOT
ATOM      1  O   UNL     1      12.961  -8.379  31.115  0.00  0.00    -0.364 OA
ATOM      2  O   UNL     1      11.770  -5.090  31.535  0.00  0.00    -0.273 OA
ATOM      4  N   UNL     1      16.177  -8.664  31.777  0.00  0.00    -0.294 NA
ATOM      5  N   UNL     1      13.695  -6.063  32.411  0.00  0.00    -0.291 N 
ATOM      7  C   UNL     1      14.525  -7.253  32.567  0.00  0.00    +0.120 C 
ATOM      8  C   UNL     1      13.835  -8.570  32.225  0.00  0.00    +0.154 C 
ATOM      9  C   UNL     1      15.736  -7.277  31.638  0.00  0.00    +0.110 C 
ATOM     10  C   UNL     1      14.967  -9.499  31.774  0.00  0.00    +0.118 C 
ATOM     12  C   UNL     1      12.459  -6.084  31.770  0.00  0.00    +0.242 C 
ATOM     13  C   UNL     1      11.939  -7.464  31.428  0.00  0.00    +0.256 C 
ENDROOT
BRANCH   4  11
ATOM     11  C   UNL     1      17.136  -9.055  30.757  0.00  0.00    +0.121 C 
BRANCH  11  15
ATOM      6  N   UNL     1      15.389  -9.784  27.601  0.00  0.00    -0.360 N 
ATOM     15  C   UNL     1      16.512  -9.092  29.387  0.00  0.00    -0.008 A 
ATOM     17  C   UNL     1      16.567  -8.067  28.402  0.00  0.00    +0.004 A 
ATOM     18  C   UNL     1      15.779 -10.134  28.866  0.00  0.00    +0.088 A 
ATOM     19  C   UNL     1      15.855  -8.526  27.292  0.00  0.00    +0.047 A 
ATOM     20  C   UNL     1      17.158  -6.789  28.348  0.00  0.00    +0.010 A 
ATOM     21  C   UNL     1      15.703  -7.768  26.125  0.00  0.00    +0.026 A 
ATOM     22  C   UNL     1      17.014  -6.019  27.187  0.00  0.00    +0.001 A 
ATOM     23  C   UNL     1      16.298  -6.504  26.095  0.00  0.00    +0.002 A 
ATOM     25  H   UNL     1      14.837 -10.364  26.985  0.00  0.00    +0.165 HD
ENDBRANCH  11  15
ENDBRANCH   4  11
BRANCH   5  14
ATOM     14  C   UNL     1      14.255  -4.800  32.874  0.00  0.00    +0.136 C 
BRANCH  14  16
ATOM     16  C   UNL     1      14.860  -4.005  31.731  0.00  0.00    +0.178 C 
BRANCH  16   3
ATOM      3  O   UNL     1      15.572  -2.892  32.254  0.00  0.00    -0.381 OA
ATOM     24  C   UNL     1      16.250  -2.179  31.230  0.00  0.00    +0.194 C 
ENDBRANCH  16   3
ENDBRANCH  14  16
ENDBRANCH   5  14
TORSDOF 5
ENDMDL
MODEL 9
REMARK VINA RESULT:      -1.5      2.785      5.568
REMARK  Name = 56775117
REMARK  6 active torsions:
REMARK  status: ('A' for Active; 'I' for Inactive)
REMARK    1  A    between atoms: O_3  and  C_16
REMARK    2  A    between atoms: O_3  and  C_24
REMARK    3  A    between atoms: N_4  and  C_11
REMARK    4  A    between atoms: N_5  and  C_14
REMARK    5  A    between atoms: C_11  and  C_15
REMARK    6  A    between atoms: C_14  and  C_16
REMARK                            x       y       z     vdW  Elec       q    Type
REMARK                         _______ _______ _______ _____ _____    ______ ____
ROOT
ATOM      1  O   UNL     1      -1.812  -2.623  24.452  0.00  0.00    -0.364 OA
ATOM      2  O   UNL     1      -5.101  -2.762  23.196  0.00  0.00    -0.273 OA
ATOM      4  N   UNL     1      -0.904   0.425  25.312  0.00  0.00    -0.294 NA
ATOM      5  N   UNL     1      -4.116  -1.116  24.514  0.00  0.00    -0.291 N 
ATOM      7  C   UNL     1      -2.948  -0.652  25.257  0.00  0.00    +0.120 C 
ATOM      8  C   UNL     1      -1.906  -1.726  25.556  0.00  0.00    +0.154 C 
ATOM      9  C   UNL     1      -2.124   0.392  24.508  0.00  0.00    +0.110 C 
ATOM     10  C   UNL     1      -0.579  -0.966  25.654  0.00  0.00    +0.118 C 
ATOM     12  C   UNL     1      -4.176  -2.367  23.907  0.00  0.00    +0.242 C 
ATOM     13  C   UNL     1      -3.030  -3.297  24.244  0.00  0.00    +0.256 C 
ENDROOT
BRANCH   4  11
ATOM     11  C   UNL     1       0.190   1.114  24.646  0.00  0.00    +0.121 C 
BRANCH  11  15
ATOM      6  N   UNL     1      -0.035   4.652  23.661  0.00  0.00    -0.360 N 
ATOM     15  C   UNL     1      -0.111   2.575  24.440  0.00  0.00    -0.008 A 
ATOM     17  C   UNL     1      -1.093   3.343  25.125  0.00  0.00    +0.004 A 
ATOM     18  C   UNL     1       0.522   3.407  23.545  0.00  0.00    +0.088 A 
ATOM     19  C   UNL     1      -1.025   4.642  24.618  0.00  0.00    +0.047 A 
ATOM     20  C   UNL     1      -2.037   3.056  26.132  0.00  0.00    +0.010 A 
ATOM     21  C   UNL     1      -1.856   5.674  25.069  0.00  0.00    +0.026 A 
ATOM     22  C   UNL     1      -2.875   4.079  26.593  0.00  0.00    +0.001 A 
ATOM     23  C   UNL     1      -2.784   5.366  26.068  0.00  0.00    +0.002 A 
ATOM     25  H   UNL     1       0.239   5.461  23.121  0.00  0.00    +0.165 HD
ENDBRANCH  11  15
ENDBRANCH   4  11
BRANCH   5  14
ATOM     14  C   UNL     1      -5.209  -0.168  24.342  0.00  0.00    +0.136 C 
BRANCH  14  16
ATOM     16  C   UNL     1      -5.179   0.918  25.401  0.00  0.00    +0.178 C 
BRANCH  16   3
ATOM      3  O   UNL     1      -5.169   2.193  24.772  0.00  0.00    -0.381 OA
ATOM     24  C   UNL     1      -5.837   3.168  25.560  0.00  0.00    +0.194 C 
ENDBRANCH  16   3
ENDBRANCH  14  16
ENDBRANCH   5  14
TORSDOF 5
ENDMDL
MODEL 10
REMARK VINA RESULT:      -0.8      1.794      3.097
REMARK  Name = 56775117
REMARK  6 active torsions:
REMARK  status: ('A' for Active; 'I' for Inactive)
REMARK    1  A    between atoms: O_3  and  C_16
REMARK    2  A    between atoms: O_3  and  C_24
REMARK    3  A    between atoms: N_4  and  C_11
REMARK    4  A    between atoms: N_5  and  C_14
REMARK    5  A    between atoms: C_11  and  C_15
REMARK    6  A    between atoms: C_14  and  C_16
REMARK                            x       y       z     vdW  Elec       q    Type
REMARK                         _______ _______ _______ _____ _____    ______ ____
ROOT
ATOM      1  O   UNL     1      -2.624  -0.297  24.585  0.00  0.00    -0.364 OA
ATOM      2  O   UNL     1       0.098  -2.208  25.748  0.00  0.00    -0.273 OA
ATOM      4  N   UNL     1      -1.678   2.416  22.971  0.00  0.00    -0.294 NA
ATOM      5  N   UNL     1       0.064  -0.600  24.067  0.00  0.00    -0.291 N 
ATOM      7  C   UNL     1      -0.710   0.337  23.258  0.00  0.00    +0.120 C 
ATOM      8  C   UNL     1      -2.219   0.113  23.281  0.00  0.00    +0.154 C 
ATOM      9  C   UNL     1      -0.595   1.785  23.724  0.00  0.00    +0.110 C 
ATOM     10  C   UNL     1      -2.823   1.497  23.018  0.00  0.00    +0.118 C 
ATOM     12  C   UNL     1      -0.522  -1.470  24.982  0.00  0.00    +0.242 C 
ATOM     13  C   UNL     1      -2.033  -1.527  24.933  0.00  0.00    +0.256 C 
ENDROOT
BRANCH   4  11
ATOM     11  C   UNL     1      -2.001   3.747  23.458  0.00  0.00    +0.121 C 
BRANCH  11  15
ATOM      6  N   UNL     1      -3.366   3.992  26.867  0.00  0.00    -0.360 N 
ATOM     15  C   UNL     1      -2.780   3.698  24.746  0.00  0.00    -0.008 A 
ATOM     17  C   UNL     1      -4.045   3.078  24.949  0.00  0.00    +0.004 A 
ATOM     18  C   UNL     1      -2.389   4.252  25.943  0.00  0.00    +0.088 A 
ATOM     19  C   UNL     1      -4.389   3.277  26.287  0.00  0.00    +0.047 A 
ATOM     20  C   UNL     1      -4.932   2.364  24.119  0.00  0.00    +0.010 A 
ATOM     21  C   UNL     1      -5.581   2.795  26.840  0.00  0.00    +0.026 A 
ATOM     22  C   UNL     1      -6.128   1.876  24.658  0.00  0.00    +0.001 A 
ATOM     23  C   UNL     1      -6.445   2.090  25.998  0.00  0.00    +0.002 A 
ATOM     25  H   UNL     1      -3.340   4.284  27.834  0.00  0.00    +0.165 HD
ENDBRANCH  11  15
ENDBRANCH   4  11
BRANCH   5  14
ATOM     14  C   UNL     1       1.515  -0.528  23.954  0.00  0.00    +0.136 C 
BRANCH  14  16
ATOM     16  C   UNL     1       1.945  -0.028  22.587  0.00  0.00    +0.178 C 
BRANCH  16   3
ATOM      3  O   UNL     1       2.921   0.994  22.743  0.00  0.00    -0.381 OA
ATOM     24  C   UNL     1       4.228   0.451  22.871  0.00  0.00    +0.194 C 
ENDBRANCH  16   3
ENDBRANCH  14  16
ENDBRANCH   5  14
TORSDOF 5
ENDMDL
