MODEL 1
REMARK VINA RESULT:      15.3      0.000      0.000
REMARK  Name = 11883074
REMARK  9 active torsions:
REMARK  status: ('A' for Active; 'I' for Inactive)
REMARK    1  A    between atoms: O_2  and  C_17
REMARK    2  A    between atoms: O_3  and  C_22
REMARK    3  A    between atoms: C_12  and  C_20
REMARK    4  A    between atoms: C_14  and  C_22
REMARK    5  A    between atoms: C_14  and  C_23
REMARK    6  A    between atoms: C_15  and  C_25
REMARK    7  A    between atoms: C_25  and  C_26
REMARK    8  A    between atoms: C_32  and  C_34
REMARK    9  A    between atoms: C_33  and  C_35
REMARK                            x       y       z     vdW  Elec       q    Type
REMARK                         _______ _______ _______ _____ _____    ______ ____
ROOT
ATOM      1  S   UNL     1       1.954  -1.941  23.294  0.00  0.00    -0.057 S 
ATOM      5  O   UNL     1       4.902   1.569  23.892  0.00  0.00    -0.266 OA
ATOM      8  N   UNL     1       2.168   0.553  23.947  0.00  0.00    -0.229 NA
ATOM     10  N   UNL     1       4.207  -0.602  23.383  0.00  0.00    -0.258 N 
ATOM     12  C   UNL     1      -1.683   0.723  24.044  0.00  0.00    -0.019 C 
ATOM     13  C   UNL     1      -1.817  -0.800  24.488  0.00  0.00    +0.011 C 
ATOM     14  C   UNL     1      -3.276  -1.391  24.585  0.00  0.00    +0.021 C 
ATOM     15  C   UNL     1      -0.215   1.222  24.433  0.00  0.00    +0.054 C 
ATOM     16  C   UNL     1      -2.713   1.581  24.825  0.00  0.00    +0.010 C 
ATOM     17  C   UNL     1      -4.185  -0.389  25.353  0.00  0.00    +0.123 C 
ATOM     18  C   UNL     1      -0.823  -1.709  23.709  0.00  0.00    +0.049 C 
ATOM     19  C   UNL     1      -4.129   1.026  24.790  0.00  0.00    +0.032 C 
ATOM     20  C   UNL     1      -1.913   0.930  22.527  0.00  0.00    +0.012 C 
ATOM     21  C   UNL     1       0.828   0.219  24.009  0.00  0.00    +0.058 A 
ATOM     23  C   UNL     1      -3.236  -2.707  25.413  0.00  0.00    +0.016 C 
ATOM     24  C   UNL     1       0.535  -1.095  23.707  0.00  0.00    +0.015 A 
ATOM     27  C   UNL     1       2.854  -0.505  23.573  0.00  0.00    +0.165 A 
ATOM     33  C   UNL     1       5.168   0.421  23.545  0.00  0.00    +0.285 C 
ATOM     41  H   UNL     1       4.534  -1.518  23.085  0.00  0.00    +0.157 HD
ENDROOT
BRANCH  33  35
ATOM      7  O   UNL     1       6.738  -1.025  22.388  0.00  0.00    -0.458 OA
ATOM     35  C   UNL     1       6.552   0.033  23.220  0.00  0.00    +0.189 A 
ATOM     36  C   UNL     1       7.762   0.558  23.612  0.00  0.00    +0.054 A 
ATOM     37  C   UNL     1       8.755  -0.229  22.980  0.00  0.00    +0.042 A 
ATOM     38  C   UNL     1       8.081  -1.179  22.247  0.00  0.00    +0.196 A 
ENDBRANCH  33  35
BRANCH  17   2
ATOM      2  O   UNL     1      -5.541  -0.834  25.348  0.00  0.00    -0.391 OA
ATOM     39  H   UNL     1      -5.549  -1.760  25.643  0.00  0.00    +0.210 HD
ENDBRANCH  17   2
BRANCH  14  22
ATOM     22  C   UNL     1      -3.905  -1.773  23.227  0.00  0.00    +0.165 C 
BRANCH  22   3
ATOM      3  O   UNL     1      -4.737  -2.893  23.436  0.00  0.00    -0.394 OA
ATOM     40  H   UNL     1      -5.121  -3.132  22.576  0.00  0.00    +0.209 HD
ENDBRANCH  22   3
ENDBRANCH  14  22
BRANCH  15  25
ATOM     25  C   UNL     1       0.130   2.634  23.940  0.00  0.00    +0.106 C 
BRANCH  25  26
ATOM      4  O   UNL     1       0.456   3.864  25.938  0.00  0.00    -0.276 OA
ATOM      9  N   UNL     1      -1.502   4.295  24.765  0.00  0.00    -0.301 N 
ATOM     26  C   UNL     1      -0.283   3.651  24.974  0.00  0.00    +0.216 C 
ATOM     28  C   UNL     1      -2.401   4.063  23.628  0.00  0.00    +0.108 C 
ATOM     29  C   UNL     1      -1.954   5.324  25.703  0.00  0.00    +0.108 C 
ATOM     30  C   UNL     1      -3.807   3.716  24.113  0.00  0.00    +0.032 C 
ATOM     31  C   UNL     1      -3.349   5.004  26.232  0.00  0.00    +0.032 C 
ATOM     32  C   UNL     1      -4.336   4.777  25.083  0.00  0.00    +0.078 C 
BRANCH  32  34
ATOM      6  O   UNL     1      -5.863   3.204  26.033  0.00  0.00    -0.276 OA
ATOM     11  N   UNL     1      -6.605   5.348  25.648  0.00  0.00    -0.329 N 
ATOM     34  C   UNL     1      -5.659   4.350  25.640  0.00  0.00    +0.214 C 
ATOM     42  H   UNL     1      -7.542   5.175  25.998  0.00  0.00    +0.145 HD
ATOM     43  H   UNL     1      -6.414   6.284  25.305  0.00  0.00    +0.145 HD
ENDBRANCH  32  34
ENDBRANCH  25  26
ENDBRANCH  15  25
TORSDOF 7
ENDMDL
MODEL 2
REMARK VINA RESULT:      18.0      2.382      5.181
REMARK  Name = 11883074
REMARK  9 active torsions:
REMARK  status: ('A' for Active; 'I' for Inactive)
REMARK    1  A    between atoms: O_2  and  C_17
REMARK    2  A    between atoms: O_3  and  C_22
REMARK    3  A    between atoms: C_12  and  C_20
REMARK    4  A    between atoms: C_14  and  C_22
REMARK    5  A    between atoms: C_14  and  C_23
REMARK    6  A    between atoms: C_15  and  C_25
REMARK    7  A    between atoms: C_25  and  C_26
REMARK    8  A    between atoms: C_32  and  C_34
REMARK    9  A    between atoms: C_33  and  C_35
REMARK                            x       y       z     vdW  Elec       q    Type
REMARK                         _______ _______ _______ _____ _____    ______ ____
ROOT
ATOM      1  S   UNL     1       0.588   2.221  25.774  0.00  0.00    -0.057 S 
ATOM      5  O   UNL     1       2.114   0.105  21.958  0.00  0.00    -0.266 OA
ATOM      8  N   UNL     1      -0.072   1.361  23.425  0.00  0.00    -0.229 NA
ATOM     10  N   UNL     1       2.217   1.026  24.101  0.00  0.00    -0.258 N 
ATOM     12  C   UNL     1      -3.722   2.287  24.255  0.00  0.00    -0.019 C 
ATOM     13  C   UNL     1      -3.284   3.495  25.196  0.00  0.00    +0.011 C 
ATOM     14  C   UNL     1      -4.431   4.245  25.977  0.00  0.00    +0.021 C 
ATOM     15  C   UNL     1      -2.513   1.976  23.258  0.00  0.00    +0.054 C 
ATOM     16  C   UNL     1      -4.954   2.710  23.413  0.00  0.00    +0.010 C 
ATOM     17  C   UNL     1      -5.601   4.551  24.999  0.00  0.00    +0.123 C 
ATOM     18  C   UNL     1      -2.068   3.110  26.086  0.00  0.00    +0.049 C 
ATOM     19  C   UNL     1      -6.080   3.324  24.232  0.00  0.00    +0.032 C 
ATOM     20  C   UNL     1      -4.079   1.005  25.048  0.00  0.00    +0.012 C 
ATOM     21  C   UNL     1      -1.201   1.916  23.998  0.00  0.00    +0.058 A 
ATOM     23  C   UNL     1      -3.886   5.610  26.488  0.00  0.00    +0.016 C 
ATOM     24  C   UNL     1      -1.019   2.447  25.259  0.00  0.00    +0.015 A 
ATOM     27  C   UNL     1       0.929   1.459  24.273  0.00  0.00    +0.165 A 
ATOM     33  C   UNL     1       2.756   0.376  22.969  0.00  0.00    +0.285 C 
ATOM     41  H   UNL     1       2.835   1.197  24.891  0.00  0.00    +0.157 HD
ENDROOT
BRANCH  33  35
ATOM      7  O   UNL     1       4.454  -1.193  23.710  0.00  0.00    -0.458 OA
ATOM     35  C   UNL     1       4.171  -0.017  23.091  0.00  0.00    +0.189 A 
ATOM     36  C   UNL     1       5.329   0.603  22.680  0.00  0.00    +0.054 A 
ATOM     37  C   UNL     1       6.391  -0.247  23.072  0.00  0.00    +0.042 A 
ATOM     38  C   UNL     1       5.806  -1.326  23.695  0.00  0.00    +0.196 A 
ENDBRANCH  33  35
BRANCH  17   2
ATOM      2  O   UNL     1      -6.709   5.115  25.701  0.00  0.00    -0.391 OA
ATOM     39  H   UNL     1      -6.804   6.038  25.409  0.00  0.00    +0.210 HD
ENDBRANCH  17   2
BRANCH  14  22
ATOM     22  C   UNL     1      -4.942   3.506  27.233  0.00  0.00    +0.165 C 
BRANCH  22   3
ATOM      3  O   UNL     1      -6.077   2.756  26.861  0.00  0.00    -0.394 OA
ATOM     40  H   UNL     1      -5.897   2.372  25.987  0.00  0.00    +0.209 HD
ENDBRANCH  22   3
ENDBRANCH  14  22
BRANCH  15  25
ATOM     25  C   UNL     1      -2.717   0.737  22.375  0.00  0.00    +0.106 C 
BRANCH  25  26
ATOM      4  O   UNL     1      -4.770  -0.326  22.889  0.00  0.00    -0.276 OA
ATOM      9  N   UNL     1      -2.889  -1.115  24.001  0.00  0.00    -0.301 N 
ATOM     26  C   UNL     1      -3.557  -0.279  23.106  0.00  0.00    +0.216 C 
ATOM     28  C   UNL     1      -1.448  -1.083  24.279  0.00  0.00    +0.108 C 
ATOM     29  C   UNL     1      -3.629  -2.153  24.720  0.00  0.00    +0.108 C 
ATOM     30  C   UNL     1      -1.189  -0.936  25.777  0.00  0.00    +0.032 C 
ATOM     31  C   UNL     1      -3.417  -2.029  26.226  0.00  0.00    +0.032 C 
ATOM     32  C   UNL     1      -1.926  -2.016  26.575  0.00  0.00    +0.078 C 
BRANCH  32  34
ATOM      6  O   UNL     1      -2.615  -2.106  28.860  0.00  0.00    -0.276 OA
ATOM     11  N   UNL     1      -0.584  -1.140  28.371  0.00  0.00    -0.329 N 
ATOM     34  C   UNL     1      -1.759  -1.774  28.043  0.00  0.00    +0.214 C 
ATOM     42  H   UNL     1      -0.363  -0.919  29.336  0.00  0.00    +0.145 HD
ATOM     43  H   UNL     1       0.101  -0.865  27.673  0.00  0.00    +0.145 HD
ENDBRANCH  32  34
ENDBRANCH  25  26
ENDBRANCH  15  25
TORSDOF 7
ENDMDL
