MODEL 1
REMARK VINA RESULT:      15.4      0.000      0.000
REMARK  Name = 7135144
REMARK  9 active torsions:
REMARK  status: ('A' for Active; 'I' for Inactive)
REMARK    1  A    between atoms: O_3  and  C_15
REMARK    2  A    between atoms: O_4  and  C_20
REMARK    3  A    between atoms: C_10  and  C_18
REMARK    4  A    between atoms: C_12  and  C_20
REMARK    5  A    between atoms: C_12  and  C_21
REMARK    6  A    between atoms: C_13  and  C_23
REMARK    7  A    between atoms: C_23  and  C_24
REMARK    8  A    between atoms: C_30  and  C_31
REMARK    9  A    between atoms: C_32  and  C_33
REMARK                            x       y       z     vdW  Elec       q    Type
REMARK                         _______ _______ _______ _____ _____    ______ ____
ROOT
ATOM      1  S   UNL     1       0.453   2.328  25.809  0.00  0.00    -0.057 S 
ATOM      6  O   UNL     1       2.002   0.282  21.924  0.00  0.00    -0.270 OA
ATOM      7  N   UNL     1      -0.226   1.469  23.465  0.00  0.00    -0.229 NA
ATOM      9  N   UNL     1       2.085   1.201  24.093  0.00  0.00    -0.261 N 
ATOM     10  C   UNL     1      -3.887   2.269  24.376  0.00  0.00    -0.019 C 
ATOM     11  C   UNL     1      -3.469   3.482  25.320  0.00  0.00    +0.011 C 
ATOM     12  C   UNL     1      -4.623   4.188  26.131  0.00  0.00    +0.021 C 
ATOM     13  C   UNL     1      -2.688   2.007  23.352  0.00  0.00    +0.054 C 
ATOM     14  C   UNL     1      -5.148   2.659  23.563  0.00  0.00    +0.010 C 
ATOM     15  C   UNL     1      -5.822   4.465  25.180  0.00  0.00    +0.123 C 
ATOM     16  C   UNL     1      -2.223   3.128  26.184  0.00  0.00    +0.049 C 
ATOM     17  C   UNL     1      -6.277   3.230  24.411  0.00  0.00    +0.032 C 
ATOM     18  C   UNL     1      -4.185   0.970  25.164  0.00  0.00    +0.012 C 
ATOM     19  C   UNL     1      -1.361   1.982  24.066  0.00  0.00    +0.058 A 
ATOM     21  C   UNL     1      -4.113   5.564  26.645  0.00  0.00    +0.016 C 
ATOM     22  C   UNL     1      -1.171   2.507  25.328  0.00  0.00    +0.015 A 
ATOM     25  C   UNL     1       0.788   1.591  24.295  0.00  0.00    +0.165 A 
ATOM     32  C   UNL     1       2.609   0.583  22.946  0.00  0.00    +0.250 C 
ATOM     41  H   UNL     1       2.703   1.438  24.863  0.00  0.00    +0.157 HD
ENDROOT
BRANCH  32  33
ATOM      2  F   UNL     1       8.118  -0.498  23.105  0.00  0.00    -0.205 F 
ATOM     33  C   UNL     1       4.068   0.297  22.988  0.00  0.00    +0.037 A 
ATOM     34  C   UNL     1       4.791   0.531  24.158  0.00  0.00    +0.016 A 
ATOM     35  C   UNL     1       4.713  -0.204  21.858  0.00  0.00    +0.016 A 
ATOM     36  C   UNL     1       6.159   0.262  24.198  0.00  0.00    +0.039 A 
ATOM     37  C   UNL     1       6.081  -0.473  21.897  0.00  0.00    +0.039 A 
ATOM     38  C   UNL     1       6.804  -0.240  23.067  0.00  0.00    +0.123 A 
ENDBRANCH  32  33
BRANCH  15   3
ATOM      3  O   UNL     1      -6.933   4.986  25.910  0.00  0.00    -0.391 OA
ATOM     39  H   UNL     1      -7.738   4.784  25.404  0.00  0.00    +0.210 HD
ENDBRANCH  15   3
BRANCH  12  20
ATOM     20  C   UNL     1      -5.084   3.421  27.390  0.00  0.00    +0.165 C 
BRANCH  20   4
ATOM      4  O   UNL     1      -6.167   2.595  27.021  0.00  0.00    -0.394 OA
ATOM     40  H   UNL     1      -5.822   1.919  26.414  0.00  0.00    +0.209 HD
ENDBRANCH  20   4
ENDBRANCH  12  20
BRANCH  13  23
ATOM     23  C   UNL     1      -2.870   0.771  22.461  0.00  0.00    +0.106 C 
BRANCH  23  24
ATOM      5  O   UNL     1      -4.524  -0.436  23.653  0.00  0.00    -0.276 OA
ATOM      8  N   UNL     1      -2.396  -1.365  23.607  0.00  0.00    -0.301 N 
ATOM     24  C   UNL     1      -3.345  -0.394  23.293  0.00  0.00    +0.216 C 
ATOM     26  C   UNL     1      -0.988  -1.343  23.193  0.00  0.00    +0.108 C 
ATOM     27  C   UNL     1      -2.789  -2.547  24.378  0.00  0.00    +0.108 C 
ATOM     28  C   UNL     1      -0.065  -1.485  24.403  0.00  0.00    +0.022 C 
ATOM     29  C   UNL     1      -1.905  -2.709  25.613  0.00  0.00    +0.022 C 
ATOM     30  C   UNL     1      -0.416  -2.729  25.232  0.00  0.00    -0.011 C 
ATOM     31  C   UNL     1       0.462  -2.818  26.477  0.00  0.00    +0.007 C 
ENDBRANCH  23  24
ENDBRANCH  13  23
TORSDOF 6
ENDMDL
MODEL 2
REMARK VINA RESULT:      17.5      2.240      5.087
REMARK  Name = 7135144
REMARK  9 active torsions:
REMARK  status: ('A' for Active; 'I' for Inactive)
REMARK    1  A    between atoms: O_3  and  C_15
REMARK    2  A    between atoms: O_4  and  C_20
REMARK    3  A    between atoms: C_10  and  C_18
REMARK    4  A    between atoms: C_12  and  C_20
REMARK    5  A    between atoms: C_12  and  C_21
REMARK    6  A    between atoms: C_13  and  C_23
REMARK    7  A    between atoms: C_23  and  C_24
REMARK    8  A    between atoms: C_30  and  C_31
REMARK    9  A    between atoms: C_32  and  C_33
REMARK                            x       y       z     vdW  Elec       q    Type
REMARK                         _______ _______ _______ _____ _____    ______ ____
ROOT
ATOM      1  S   UNL     1       1.843  -1.789  23.216  0.00  0.00    -0.057 S 
ATOM      6  O   UNL     1       4.787   1.752  23.904  0.00  0.00    -0.270 OA
ATOM      7  N   UNL     1       2.026   0.690  23.933  0.00  0.00    -0.229 NA
ATOM      9  N   UNL     1       4.079  -0.425  23.340  0.00  0.00    -0.261 N 
ATOM     10  C   UNL     1      -1.826   0.812  24.033  0.00  0.00    -0.019 C 
ATOM     11  C   UNL     1      -1.943  -0.725  24.438  0.00  0.00    +0.011 C 
ATOM     12  C   UNL     1      -3.394  -1.335  24.520  0.00  0.00    +0.021 C 
ATOM     13  C   UNL     1      -0.365   1.317  24.436  0.00  0.00    +0.054 C 
ATOM     14  C   UNL     1      -2.866   1.636  24.835  0.00  0.00    +0.010 C 
ATOM     15  C   UNL     1      -4.315  -0.365  25.313  0.00  0.00    +0.123 C 
ATOM     16  C   UNL     1      -0.937  -1.602  23.635  0.00  0.00    +0.049 C 
ATOM     17  C   UNL     1      -4.277   1.065  24.786  0.00  0.00    +0.032 C 
ATOM     18  C   UNL     1      -2.058   1.054  22.522  0.00  0.00    +0.012 C 
ATOM     19  C   UNL     1       0.690   0.339  23.986  0.00  0.00    +0.058 A 
ATOM     21  C   UNL     1      -3.339  -2.672  25.313  0.00  0.00    +0.016 C 
ATOM     22  C   UNL     1       0.413  -0.971  23.650  0.00  0.00    +0.015 A 
ATOM     25  C   UNL     1       2.725  -0.350  23.533  0.00  0.00    +0.165 A 
ATOM     32  C   UNL     1       5.014   0.605  23.531  0.00  0.00    +0.250 C 
ATOM     41  H   UNL     1       4.399  -1.349  23.067  0.00  0.00    +0.157 HD
ENDROOT
BRANCH  32  33
ATOM      2  F   UNL     1      10.366  -0.795  22.565  0.00  0.00    -0.205 F 
ATOM     33  C   UNL     1       6.431   0.234  23.275  0.00  0.00    +0.037 A 
ATOM     34  C   UNL     1       7.462   1.032  23.773  0.00  0.00    +0.016 A 
ATOM     35  C   UNL     1       6.729  -0.911  22.536  0.00  0.00    +0.016 A 
ATOM     36  C   UNL     1       8.790   0.684  23.533  0.00  0.00    +0.039 A 
ATOM     37  C   UNL     1       8.059  -1.259  22.297  0.00  0.00    +0.039 A 
ATOM     38  C   UNL     1       9.089  -0.461  22.795  0.00  0.00    +0.123 A 
ENDBRANCH  32  33
BRANCH  15   3
ATOM      3  O   UNL     1      -5.666  -0.826  25.295  0.00  0.00    -0.391 OA
ATOM     39  H   UNL     1      -6.122  -0.430  26.057  0.00  0.00    +0.210 HD
ENDBRANCH  15   3
BRANCH  12  20
ATOM     20  C   UNL     1      -4.018  -1.691  23.152  0.00  0.00    +0.165 C 
BRANCH  20   4
ATOM      4  O   UNL     1      -4.697  -2.918  23.293  0.00  0.00    -0.394 OA
ATOM     40  H   UNL     1      -4.049  -3.628  23.147  0.00  0.00    +0.209 HD
ENDBRANCH  20   4
ENDBRANCH  12  20
BRANCH  13  23
ATOM     23  C   UNL     1      -0.037   2.746  23.980  0.00  0.00    +0.106 C 
BRANCH  23  24
ATOM      5  O   UNL     1       0.228   3.914  26.024  0.00  0.00    -0.276 OA
ATOM      8  N   UNL     1      -1.691   4.386  24.803  0.00  0.00    -0.301 N 
ATOM     24  C   UNL     1      -0.481   3.733  25.030  0.00  0.00    +0.216 C 
ATOM     26  C   UNL     1      -2.554   4.192  23.632  0.00  0.00    +0.108 C 
ATOM     27  C   UNL     1      -2.170   5.388  25.757  0.00  0.00    +0.108 C 
ATOM     28  C   UNL     1      -3.977   3.838  24.061  0.00  0.00    +0.022 C 
ATOM     29  C   UNL     1      -3.583   5.055  26.232  0.00  0.00    +0.022 C 
ATOM     30  C   UNL     1      -4.540   4.876  25.043  0.00  0.00    -0.011 C 
ATOM     31  C   UNL     1      -5.932   4.472  25.522  0.00  0.00    +0.007 C 
ENDBRANCH  23  24
ENDBRANCH  13  23
TORSDOF 6
ENDMDL
