MODEL 1
REMARK VINA RESULT:       4.9      0.000      0.000
REMARK  Name = 9391268
REMARK  6 active torsions:
REMARK  status: ('A' for Active; 'I' for Inactive)
REMARK    1  A    between atoms: S_1  and  N_9
REMARK    2  A    between atoms: S_1  and  C_23
REMARK    3  A    between atoms: N_9  and  C_18
REMARK    4  A    between atoms: N_10  and  C_24
REMARK    5  A    between atoms: C_23  and  C_25
REMARK    6  A    between atoms: C_25  and  C_28
REMARK                            x       y       z     vdW  Elec       q    Type
REMARK                         _______ _______ _______ _____ _____    ______ ____
ROOT
ATOM      3  O   UNL     1      -4.078   3.401  21.777  0.00  0.00    -0.268 OA
ATOM      4  O   UNL     1       0.762   4.046  23.205  0.00  0.00    -0.252 OA
ATOM      7  N   UNL     1      -3.285   3.046  23.953  0.00  0.00    -0.310 N 
ATOM      8  N   UNL     1      -0.409   3.563  25.137  0.00  0.00    -0.284 N 
ATOM     10  N   UNL     1       0.793   1.872  24.018  0.00  0.00    -0.269 N 
ATOM     11  C   UNL     1      -2.436   4.973  25.414  0.00  0.00    +0.027 C 
ATOM     12  C   UNL     1      -2.411   2.669  26.284  0.00  0.00    +0.055 C 
ATOM     13  C   UNL     1      -2.888   4.094  26.571  0.00  0.00    +0.018 C 
ATOM     14  C   UNL     1      -3.155   4.497  24.150  0.00  0.00    +0.130 C 
ATOM     15  C   UNL     1      -0.902   4.936  25.260  0.00  0.00    +0.114 C 
ATOM     16  C   UNL     1      -0.872   2.663  26.206  0.00  0.00    +0.119 C 
ATOM     17  C   UNL     1      -2.998   2.125  24.983  0.00  0.00    +0.049 A 
ATOM     18  C   UNL     1      -3.220   0.814  24.753  0.00  0.00    +0.068 A 
ATOM     19  C   UNL     1      -3.795   2.640  22.704  0.00  0.00    +0.252 A 
ATOM     20  C   UNL     1       0.427   3.218  24.055  0.00  0.00    +0.306 C 
ATOM     21  C   UNL     1      -3.744   0.336  23.506  0.00  0.00    +0.031 A 
ATOM     22  C   UNL     1      -4.016   1.184  22.511  0.00  0.00    +0.072 A 
ATOM     33  H   UNL     1       0.167   1.193  24.434  0.00  0.00    +0.156 HD
ENDROOT
BRANCH  10  24
ATOM      2  F   UNL     1       5.276  -0.323  21.611  0.00  0.00    -0.205 F 
ATOM     24  C   UNL     1       1.939   1.311  23.402  0.00  0.00    +0.035 A 
ATOM     26  C   UNL     1       1.838   0.097  22.728  0.00  0.00    +0.026 A 
ATOM     27  C   UNL     1       3.160   1.976  23.476  0.00  0.00    +0.026 A 
ATOM     29  C   UNL     1       2.966  -0.455  22.122  0.00  0.00    +0.040 A 
ATOM     30  C   UNL     1       4.288   1.424  22.869  0.00  0.00    +0.040 A 
ATOM     31  C   UNL     1       4.192   0.208  22.193  0.00  0.00    +0.124 A 
ENDBRANCH  10  24
BRANCH  18   9
ATOM      9  N   UNL     1      -2.904  -0.131  25.758  0.00  0.00    -0.219 N 
ATOM     32  H   UNL     1      -3.125   0.127  26.725  0.00  0.00    +0.173 HD
BRANCH   9   1
ATOM      1  S   UNL     1      -1.416  -0.931  25.554  0.00  0.00    +0.043 S 
ATOM      5  O   UNL     1      -0.734  -0.413  24.384  0.00  0.00    -0.155 OA
ATOM      6  O   UNL     1      -0.741  -1.027  26.834  0.00  0.00    -0.155 OA
BRANCH   1  23
ATOM     23  C   UNL     1      -2.014  -2.551  25.141  0.00  0.00    +0.188 C 
BRANCH  23  25
ATOM     25  C   UNL     1      -3.528  -2.626  25.249  0.00  0.00    +0.021 C 
ATOM     28  C   UNL     1      -4.166  -2.929  23.903  0.00  0.00    +0.005 C 
ENDBRANCH  23  25
ENDBRANCH   1  23
ENDBRANCH   9   1
ENDBRANCH  18   9
TORSDOF 5
ENDMDL
MODEL 2
REMARK VINA RESULT:       7.7      2.700      5.957
REMARK  Name = 9391268
REMARK  6 active torsions:
REMARK  status: ('A' for Active; 'I' for Inactive)
REMARK    1  A    between atoms: S_1  and  N_9
REMARK    2  A    between atoms: S_1  and  C_23
REMARK    3  A    between atoms: N_9  and  C_18
REMARK    4  A    between atoms: N_10  and  C_24
REMARK    5  A    between atoms: C_23  and  C_25
REMARK    6  A    between atoms: C_25  and  C_28
REMARK                            x       y       z     vdW  Elec       q    Type
REMARK                         _______ _______ _______ _____ _____    ______ ____
ROOT
ATOM      3  O   UNL     1      -1.568   3.475  28.488  0.00  0.00    -0.268 OA
ATOM      4  O   UNL     1      -4.839   1.183  25.336  0.00  0.00    -0.252 OA
ATOM      7  N   UNL     1      -1.441   3.576  26.150  0.00  0.00    -0.310 N 
ATOM      8  N   UNL     1      -3.433   2.430  23.992  0.00  0.00    -0.284 N 
ATOM     10  N   UNL     1      -3.059   0.121  24.290  0.00  0.00    -0.269 N 
ATOM     11  C   UNL     1      -3.214   4.786  24.750  0.00  0.00    +0.027 C 
ATOM     12  C   UNL     1      -1.321   3.670  23.637  0.00  0.00    +0.055 C 
ATOM     13  C   UNL     1      -2.075   4.996  23.764  0.00  0.00    +0.018 C 
ATOM     14  C   UNL     1      -2.604   4.474  26.119  0.00  0.00    +0.130 C 
ATOM     15  C   UNL     1      -4.162   3.669  24.267  0.00  0.00    +0.114 C 
ATOM     16  C   UNL     1      -2.284   2.600  23.087  0.00  0.00    +0.119 C 
ATOM     17  C   UNL     1      -0.747   3.212  24.976  0.00  0.00    +0.049 A 
ATOM     18  C   UNL     1       0.361   2.451  25.094  0.00  0.00    +0.068 A 
ATOM     19  C   UNL     1      -1.012   3.174  27.430  0.00  0.00    +0.252 A 
ATOM     20  C   UNL     1      -3.859   1.225  24.588  0.00  0.00    +0.306 C 
ATOM     21  C   UNL     1       0.853   2.013  26.368  0.00  0.00    +0.031 A 
ATOM     22  C   UNL     1       0.212   2.335  27.494  0.00  0.00    +0.072 A 
ATOM     33  H   UNL     1      -2.083   0.282  24.072  0.00  0.00    +0.156 HD
ENDROOT
BRANCH  10  24
ATOM      2  F   UNL     1      -4.537  -5.219  24.362  0.00  0.00    -0.205 F 
ATOM     24  C   UNL     1      -3.437  -1.244  24.309  0.00  0.00    +0.035 A 
ATOM     26  C   UNL     1      -2.865  -2.108  25.238  0.00  0.00    +0.026 A 
ATOM     27  C   UNL     1      -4.378  -1.714  23.396  0.00  0.00    +0.026 A 
ATOM     29  C   UNL     1      -3.237  -3.451  25.257  0.00  0.00    +0.040 A 
ATOM     30  C   UNL     1      -4.750  -3.058  23.416  0.00  0.00    +0.040 A 
ATOM     31  C   UNL     1      -4.180  -3.928  24.345  0.00  0.00    +0.124 A 
ENDBRANCH  10  24
BRANCH  18   9
ATOM      9  N   UNL     1       1.050   2.043  23.927  0.00  0.00    -0.219 N 
ATOM     32  H   UNL     1       1.152   2.737  23.180  0.00  0.00    +0.173 HD
BRANCH   9   1
ATOM      1  S   UNL     1       0.698   0.466  23.394  0.00  0.00    +0.043 S 
ATOM      5  O   UNL     1       0.074  -0.288  24.465  0.00  0.00    -0.155 OA
ATOM      6  O   UNL     1       0.102   0.525  22.074  0.00  0.00    -0.155 OA
BRANCH   1  23
ATOM     23  C   UNL     1       2.351  -0.153  23.210  0.00  0.00    +0.188 C 
BRANCH  23  25
ATOM     25  C   UNL     1       3.312   0.950  22.800  0.00  0.00    +0.021 C 
ATOM     28  C   UNL     1       4.739   0.624  23.211  0.00  0.00    +0.005 C 
ENDBRANCH  23  25
ENDBRANCH   1  23
ENDBRANCH   9   1
ENDBRANCH  18   9
TORSDOF 5
ENDMDL
MODEL 3
REMARK VINA RESULT:       8.8      3.243      4.049
REMARK  Name = 9391268
REMARK  6 active torsions:
REMARK  status: ('A' for Active; 'I' for Inactive)
REMARK    1  A    between atoms: S_1  and  N_9
REMARK    2  A    between atoms: S_1  and  C_23
REMARK    3  A    between atoms: N_9  and  C_18
REMARK    4  A    between atoms: N_10  and  C_24
REMARK    5  A    between atoms: C_23  and  C_25
REMARK    6  A    between atoms: C_25  and  C_28
REMARK                            x       y       z     vdW  Elec       q    Type
REMARK                         _______ _______ _______ _____ _____    ______ ____
ROOT
ATOM      3  O   UNL     1      -2.385   2.757  21.278  0.00  0.00    -0.268 OA
ATOM      4  O   UNL     1      -1.475   4.853  25.823  0.00  0.00    -0.252 OA
ATOM      7  N   UNL     1      -3.650   2.334  23.204  0.00  0.00    -0.310 N 
ATOM      8  N   UNL     1      -3.427   3.642  26.064  0.00  0.00    -0.284 N 
ATOM     10  N   UNL     1      -1.367   2.732  26.760  0.00  0.00    -0.269 N 
ATOM     11  C   UNL     1      -5.098   4.145  24.295  0.00  0.00    +0.027 C 
ATOM     12  C   UNL     1      -4.995   1.892  25.285  0.00  0.00    +0.055 C 
ATOM     13  C   UNL     1      -5.946   2.971  24.764  0.00  0.00    +0.018 C 
ATOM     14  C   UNL     1      -4.250   3.673  23.112  0.00  0.00    +0.130 C 
ATOM     15  C   UNL     1      -4.235   4.696  25.448  0.00  0.00    +0.114 C 
ATOM     16  C   UNL     1      -4.203   2.460  26.478  0.00  0.00    +0.119 C 
ATOM     17  C   UNL     1      -4.030   1.413  24.203  0.00  0.00    +0.049 A 
ATOM     18  C   UNL     1      -3.496   0.174  24.172  0.00  0.00    +0.068 A 
ATOM     19  C   UNL     1      -2.739   2.000  22.182  0.00  0.00    +0.252 A 
ATOM     20  C   UNL     1      -2.036   3.822  26.204  0.00  0.00    +0.306 C 
ATOM     21  C   UNL     1      -2.568  -0.231  23.156  0.00  0.00    +0.031 A 
ATOM     22  C   UNL     1      -2.184   0.622  22.204  0.00  0.00    +0.072 A 
ATOM     33  H   UNL     1      -1.767   1.809  26.633  0.00  0.00    +0.156 HD
ENDROOT
BRANCH  10  24
ATOM      2  F   UNL     1       3.464   2.779  29.473  0.00  0.00    -0.205 F 
ATOM     24  C   UNL     1      -0.133   2.744  27.454  0.00  0.00    +0.035 A 
ATOM     26  C   UNL     1      -0.115   2.600  28.838  0.00  0.00    +0.026 A 
ATOM     27  C   UNL     1       1.057   2.901  26.747  0.00  0.00    +0.026 A 
ATOM     29  C   UNL     1       1.101   2.611  29.521  0.00  0.00    +0.040 A 
ATOM     30  C   UNL     1       2.272   2.912  27.430  0.00  0.00    +0.040 A 
ATOM     31  C   UNL     1       2.296   2.767  28.817  0.00  0.00    +0.124 A 
ENDBRANCH  10  24
BRANCH  18   9
ATOM      9  N   UNL     1      -3.835  -0.753  25.186  0.00  0.00    -0.219 N 
ATOM     32  H   UNL     1      -3.687  -0.457  26.155  0.00  0.00    +0.173 HD
BRANCH   9   1
ATOM      1  S   UNL     1      -3.410  -2.368  24.859  0.00  0.00    +0.043 S 
ATOM      5  O   UNL     1      -3.365  -3.126  26.095  0.00  0.00    -0.155 OA
ATOM      6  O   UNL     1      -4.165  -2.843  23.716  0.00  0.00    -0.155 OA
BRANCH   1  23
ATOM     23  C   UNL     1      -1.732  -2.124  24.330  0.00  0.00    +0.188 C 
BRANCH  23  25
ATOM     25  C   UNL     1      -0.784  -2.051  25.515  0.00  0.00    +0.021 C 
ATOM     28  C   UNL     1      -0.776  -0.663  26.134  0.00  0.00    +0.005 C 
ENDBRANCH  23  25
ENDBRANCH   1  23
ENDBRANCH   9   1
ENDBRANCH  18   9
TORSDOF 5
ENDMDL
MODEL 4
REMARK VINA RESULT:       8.8      3.185      5.583
REMARK  Name = 9391268
REMARK  6 active torsions:
REMARK  status: ('A' for Active; 'I' for Inactive)
REMARK    1  A    between atoms: S_1  and  N_9
REMARK    2  A    between atoms: S_1  and  C_23
REMARK    3  A    between atoms: N_9  and  C_18
REMARK    4  A    between atoms: N_10  and  C_24
REMARK    5  A    between atoms: C_23  and  C_25
REMARK    6  A    between atoms: C_25  and  C_28
REMARK                            x       y       z     vdW  Elec       q    Type
REMARK                         _______ _______ _______ _____ _____    ______ ____
ROOT
ATOM      3  O   UNL     1      -6.146   0.924  26.883  0.00  0.00    -0.268 OA
ATOM      4  O   UNL     1      -1.260  -0.471  27.123  0.00  0.00    -0.252 OA
ATOM      7  N   UNL     1      -4.630   1.113  25.106  0.00  0.00    -0.310 N 
ATOM      8  N   UNL     1      -1.635   0.145  24.928  0.00  0.00    -0.284 N 
ATOM     10  N   UNL     1      -0.637   1.657  26.436  0.00  0.00    -0.269 N 
ATOM     11  C   UNL     1      -3.640  -0.949  23.950  0.00  0.00    +0.027 C 
ATOM     12  C   UNL     1      -2.985   1.307  23.211  0.00  0.00    +0.055 C 
ATOM     13  C   UNL     1      -3.545  -0.035  22.736  0.00  0.00    +0.018 C 
ATOM     14  C   UNL     1      -4.660  -0.345  24.918  0.00  0.00    +0.130 C 
ATOM     15  C   UNL     1      -2.257  -1.141  24.605  0.00  0.00    +0.114 C 
ATOM     16  C   UNL     1      -1.577   1.083  23.794  0.00  0.00    +0.119 C 
ATOM     17  C   UNL     1      -3.883   1.959  24.260  0.00  0.00    +0.049 A 
ATOM     18  C   UNL     1      -3.973   3.293  24.444  0.00  0.00    +0.068 A 
ATOM     19  C   UNL     1      -5.461   1.615  26.127  0.00  0.00    +0.252 A 
ATOM     20  C   UNL     1      -1.166   0.382  26.236  0.00  0.00    +0.306 C 
ATOM     21  C   UNL     1      -4.804   3.869  25.461  0.00  0.00    +0.031 A 
ATOM     22  C   UNL     1      -5.514   3.091  26.282  0.00  0.00    +0.072 A 
ATOM     33  H   UNL     1      -0.981   2.414  25.856  0.00  0.00    +0.156 HD
ENDROOT
BRANCH  10  24
ATOM      2  F   UNL     1       3.063   3.203  30.260  0.00  0.00    -0.205 F 
ATOM     24  C   UNL     1       0.309   2.052  27.414  0.00  0.00    +0.035 A 
ATOM     26  C   UNL     1       0.101   1.724  28.750  0.00  0.00    +0.026 A 
ATOM     27  C   UNL     1       1.441   2.767  27.032  0.00  0.00    +0.026 A 
ATOM     29  C   UNL     1       1.032   2.112  29.713  0.00  0.00    +0.040 A 
ATOM     30  C   UNL     1       2.372   3.155  27.995  0.00  0.00    +0.040 A 
ATOM     31  C   UNL     1       2.169   2.829  29.336  0.00  0.00    +0.124 A 
ENDBRANCH  10  24
BRANCH  18   9
ATOM      9  N   UNL     1      -3.203   4.159  23.631  0.00  0.00    -0.219 N 
ATOM     32  H   UNL     1      -3.034   3.862  22.665  0.00  0.00    +0.173 HD
BRANCH   9   1
ATOM      1  S   UNL     1      -1.867   4.876  24.403  0.00  0.00    +0.043 S 
ATOM      5  O   UNL     1      -1.912   6.316  24.229  0.00  0.00    -0.155 OA
ATOM      6  O   UNL     1      -1.694   4.285  25.716  0.00  0.00    -0.155 OA
BRANCH   1  23
ATOM     23  C   UNL     1      -0.567   4.261  23.362  0.00  0.00    +0.188 C 
BRANCH  23  25
ATOM     25  C   UNL     1       0.529   3.597  24.179  0.00  0.00    +0.021 C 
ATOM     28  C   UNL     1       0.916   2.247  23.596  0.00  0.00    +0.005 C 
ENDBRANCH  23  25
ENDBRANCH   1  23
ENDBRANCH   9   1
ENDBRANCH  18   9
TORSDOF 5
ENDMDL
