MODEL 1
REMARK VINA RESULT:      -3.2      0.000      0.000
REMARK  Name = 11885156
REMARK  3 active torsions:
REMARK  status: ('A' for Active; 'I' for Inactive)
REMARK    1  A    between atoms: S_1  and  N_6
REMARK    2  A    between atoms: S_1  and  C_19
REMARK    3  A    between atoms: C_17  and  C_20
REMARK                            x       y       z     vdW  Elec       q    Type
REMARK                         _______ _______ _______ _____ _____    ______ ____
ROOT
ATOM      5  O   UNL     1      11.764  -6.834  30.168  0.00  0.00    -0.267 OA
ATOM      6  N   UNL     1      16.415  -8.175  28.977  0.00  0.00    -0.175 NA
ATOM      7  N   UNL     1      14.011  -7.108  30.729  0.00  0.00    -0.311 N 
ATOM      8  C   UNL     1      15.890  -5.808  29.572  0.00  0.00    +0.025 C 
ATOM      9  C   UNL     1      16.433  -7.418  31.346  0.00  0.00    +0.052 C 
ATOM     10  C   UNL     1      16.627  -5.972  30.895  0.00  0.00    +0.017 C 
ATOM     11  C   UNL     1      16.466  -6.760  28.511  0.00  0.00    +0.114 C 
ATOM     12  C   UNL     1      17.062  -8.367  30.310  0.00  0.00    +0.119 C 
ATOM     13  C   UNL     1      14.391  -6.029  29.806  0.00  0.00    +0.130 C 
ATOM     14  C   UNL     1      14.963  -7.740  31.532  0.00  0.00    +0.026 A 
ATOM     15  C   UNL     1      14.577  -8.641  32.451  0.00  0.00    +0.022 A 
ATOM     16  C   UNL     1      12.636  -7.395  30.835  0.00  0.00    +0.259 A 
ATOM     17  C   UNL     1      12.238  -8.435  31.846  0.00  0.00    +0.047 A 
ATOM     18  C   UNL     1      13.195  -8.995  32.602  0.00  0.00    +0.015 A 
ENDROOT
BRANCH  17  20
ATOM     20  C   UNL     1      10.833  -8.845  32.008  0.00  0.00    -0.012 A 
ATOM     22  C   UNL     1       9.852  -7.891  32.284  0.00  0.00    +0.017 A 
ATOM     23  C   UNL     1      10.481 -10.187  31.886  0.00  0.00    +0.009 A 
ATOM     26  C   UNL     1       8.508  -8.267  32.442  0.00  0.00    -0.017 A 
ATOM     27  C   UNL     1       9.151 -10.579  32.039  0.00  0.00    +0.009 A 
ATOM     28  C   UNL     1       8.153  -9.631  32.318  0.00  0.00    -0.018 A 
ATOM     29  C   UNL     1       7.510  -7.320  32.720  0.00  0.00    +0.008 A 
ATOM     30  C   UNL     1       6.809 -10.007  32.474  0.00  0.00    +0.008 A 
ATOM     31  C   UNL     1       6.180  -7.711  32.873  0.00  0.00    +0.001 A 
ATOM     32  C   UNL     1       5.830  -9.052  32.751  0.00  0.00    +0.001 A 
ENDBRANCH  17  20
BRANCH   6   1
ATOM      1  S   UNL     1      16.786  -9.357  27.797  0.00  0.00    +0.067 S 
ATOM      3  O   UNL     1      17.394 -10.493  28.457  0.00  0.00    -0.152 OA
ATOM      4  O   UNL     1      17.405  -8.713  26.657  0.00  0.00    -0.152 OA
BRANCH   1  19
ATOM      2  S   UNL     1      15.211 -10.130  25.459  0.00  0.00    -0.077 S 
ATOM     19  C   UNL     1      15.238  -9.978  27.152  0.00  0.00    +0.143 A 
ATOM     21  C   UNL     1      14.082 -10.349  27.757  0.00  0.00    +0.036 A 
ATOM     24  C   UNL     1      13.119 -10.781  26.800  0.00  0.00    +0.010 A 
ATOM     25  C   UNL     1      13.602 -10.714  25.512  0.00  0.00    +0.047 A 
ENDBRANCH   1  19
ENDBRANCH   6   1
TORSDOF 3
ENDMDL
