MODEL 1
REMARK VINA RESULT:       9.1      0.000      0.000
REMARK  Name = 11939797
REMARK  7 active torsions:
REMARK  status: ('A' for Active; 'I' for Inactive)
REMARK    1  A    between atoms: N_4  and  C_12
REMARK    2  A    between atoms: N_5  and  C_13
REMARK    3  A    between atoms: N_6  and  C_16
REMARK    4  A    between atoms: N_9  and  C_32
REMARK    5  A    between atoms: N_9  and  C_33
REMARK    6  A    between atoms: N_9  and  C_34
REMARK    7  A    between atoms: C_24  and  C_27
REMARK                            x       y       z     vdW  Elec       q    Type
REMARK                         _______ _______ _______ _____ _____    ______ ____
ROOT
ATOM      1  O   UNL     1      -2.538  -1.328  25.973  0.00  0.00    -0.370 OA
ATOM      2  O   UNL     1      -3.556  -1.223  23.026  0.00  0.00    -0.370 OA
ATOM     10  C   UNL     1      -2.441  -0.620  23.704  0.00  0.00    +0.171 C 
ATOM     11  C   UNL     1      -2.909  -0.249  25.098  0.00  0.00    +0.171 C 
ATOM     12  C   UNL     1      -1.354  -1.644  23.941  0.00  0.00    +0.131 C 
ATOM     13  C   UNL     1      -4.412  -0.169  24.975  0.00  0.00    +0.130 C 
ATOM     14  C   UNL     1      -1.812  -2.314  25.224  0.00  0.00    +0.185 C 
ATOM     15  C   UNL     1      -4.710  -1.175  23.878  0.00  0.00    +0.185 C 
ENDROOT
BRANCH  13   5
ATOM      5  N   UNL     1      -4.804   1.158  24.557  0.00  0.00    -0.306 N 
ATOM      7  N   UNL     1      -2.991   2.135  25.630  0.00  0.00    -0.214 NA
ATOM      8  N   UNL     1      -4.591   3.466  24.416  0.00  0.00    -0.223 NA
ATOM     23  C   UNL     1      -4.098   2.303  24.882  0.00  0.00    +0.216 A 
ATOM     24  C   UNL     1      -2.327   3.270  25.928  0.00  0.00    +0.076 A 
ATOM     25  C   UNL     1      -3.878   4.562  24.751  0.00  0.00    +0.116 A 
ATOM     26  C   UNL     1      -2.727   4.524  25.512  0.00  0.00    +0.048 A 
ATOM     36  H   UNL     1      -5.609   1.272  23.951  0.00  0.00    +0.149 HD
BRANCH  24  27
ATOM     27  C   UNL     1      -1.140   3.094  26.730  0.00  0.00    +0.001 A 
ATOM     28  C   UNL     1       0.092   2.870  26.114  0.00  0.00    +0.012 A 
ATOM     29  C   UNL     1      -1.225   3.145  28.122  0.00  0.00    +0.012 A 
ATOM     30  C   UNL     1       1.237   2.698  26.889  0.00  0.00    +0.024 A 
ATOM     31  C   UNL     1      -0.079   2.973  28.897  0.00  0.00    +0.024 A 
ATOM     32  C   UNL     1       1.153   2.750  28.281  0.00  0.00    +0.029 A 
BRANCH  32   9
ATOM      9  N   UNL     1       2.312   2.576  29.064  0.00  0.00    -0.336 N 
ATOM     33  C   UNL     1       2.267   1.782  30.276  0.00  0.00    +0.129 C 
ATOM     34  C   UNL     1       3.562   3.201  28.676  0.00  0.00    +0.129 C 
ENDBRANCH  32   9
ENDBRANCH  24  27
ENDBRANCH  13   5
BRANCH  12   4
ATOM      3  O   UNL     1       0.530  -0.988  21.869  0.00  0.00    -0.253 OA
ATOM      4  N   UNL     1      -0.069  -1.009  24.112  0.00  0.00    -0.292 N 
ATOM      6  N   UNL     1       1.955  -0.115  23.481  0.00  0.00    -0.297 N 
ATOM     19  C   UNL     1       0.783  -0.728  23.044  0.00  0.00    +0.300 C 
ATOM     35  H   UNL     1       0.260  -0.817  25.053  0.00  0.00    +0.151 HD
ATOM     37  H   UNL     1       2.093  -0.013  24.482  0.00  0.00    +0.151 HD
BRANCH   6  16
ATOM     16  C   UNL     1       3.017   0.287  22.587  0.00  0.00    +0.074 C 
ATOM     17  C   UNL     1       3.820   1.452  23.175  0.00  0.00    +0.022 C 
ATOM     18  C   UNL     1       3.928  -0.898  22.245  0.00  0.00    +0.022 C 
ATOM     20  C   UNL     1       4.697   1.025  24.352  0.00  0.00    +0.002 C 
ATOM     21  C   UNL     1       4.804  -1.321  23.424  0.00  0.00    +0.002 C 
ATOM     22  C   UNL     1       5.601  -0.147  23.984  0.00  0.00    +0.000 C 
ENDBRANCH   6  16
ENDBRANCH  12   4
TORSDOF 5
ENDMDL
MODEL 2
REMARK VINA RESULT:       9.4      2.013      5.611
REMARK  Name = 11939797
REMARK  7 active torsions:
REMARK  status: ('A' for Active; 'I' for Inactive)
REMARK    1  A    between atoms: N_4  and  C_12
REMARK    2  A    between atoms: N_5  and  C_13
REMARK    3  A    between atoms: N_6  and  C_16
REMARK    4  A    between atoms: N_9  and  C_32
REMARK    5  A    between atoms: N_9  and  C_33
REMARK    6  A    between atoms: N_9  and  C_34
REMARK    7  A    between atoms: C_24  and  C_27
REMARK                            x       y       z     vdW  Elec       q    Type
REMARK                         _______ _______ _______ _____ _____    ______ ____
ROOT
ATOM      1  O   UNL     1      -2.744   3.479  23.323  0.00  0.00    -0.370 OA
ATOM      2  O   UNL     1      -4.689   3.474  25.762  0.00  0.00    -0.370 OA
ATOM     10  C   UNL     1      -3.291   3.175  25.619  0.00  0.00    +0.171 C 
ATOM     11  C   UNL     1      -3.115   2.475  24.285  0.00  0.00    +0.171 C 
ATOM     12  C   UNL     1      -2.493   4.451  25.473  0.00  0.00    +0.131 C 
ATOM     13  C   UNL     1      -4.487   1.930  23.969  0.00  0.00    +0.130 C 
ATOM     14  C   UNL     1      -2.616   4.744  23.989  0.00  0.00    +0.185 C 
ATOM     15  C   UNL     1      -5.406   2.931  24.644  0.00  0.00    +0.185 C 
ENDROOT
BRANCH  13   5
ATOM      5  N   UNL     1      -4.648   0.621  24.563  0.00  0.00    -0.306 N 
ATOM      7  N   UNL     1      -2.388   0.136  24.336  0.00  0.00    -0.214 NA
ATOM      8  N   UNL     1      -3.915  -1.449  25.316  0.00  0.00    -0.223 NA
ATOM     23  C   UNL     1      -3.604  -0.270  24.747  0.00  0.00    +0.216 A 
ATOM     24  C   UNL     1      -1.396  -0.757  24.529  0.00  0.00    +0.076 A 
ATOM     25  C   UNL     1      -2.876  -2.294  25.480  0.00  0.00    +0.116 A 
ATOM     26  C   UNL     1      -1.582  -1.998  25.102  0.00  0.00    +0.048 A 
ATOM     36  H   UNL     1      -5.556   0.344  24.918  0.00  0.00    +0.149 HD
BRANCH  24  27
ATOM     27  C   UNL     1      -0.090  -0.326  24.090  0.00  0.00    +0.001 A 
ATOM     28  C   UNL     1       0.866  -1.269  23.711  0.00  0.00    +0.012 A 
ATOM     29  C   UNL     1       0.218   1.034  24.049  0.00  0.00    +0.012 A 
ATOM     30  C   UNL     1       2.127  -0.852  23.288  0.00  0.00    +0.024 A 
ATOM     31  C   UNL     1       1.480   1.452  23.626  0.00  0.00    +0.024 A 
ATOM     32  C   UNL     1       2.435   0.509  23.246  0.00  0.00    +0.029 A 
BRANCH  32   9
ATOM      9  N   UNL     1       3.711   0.929  22.819  0.00  0.00    -0.336 N 
ATOM     33  C   UNL     1       4.882   0.124  23.103  0.00  0.00    +0.129 C 
ATOM     34  C   UNL     1       3.871   2.180  22.102  0.00  0.00    +0.129 C 
ENDBRANCH  32   9
ENDBRANCH  24  27
ENDBRANCH  13   5
BRANCH  12   4
ATOM      3  O   UNL     1      -1.415   2.203  26.907  0.00  0.00    -0.253 OA
ATOM      4  N   UNL     1      -1.116   4.252  25.856  0.00  0.00    -0.292 N 
ATOM      6  N   UNL     1       0.689   3.180  26.797  0.00  0.00    -0.297 N 
ATOM     19  C   UNL     1      -0.681   3.125  26.553  0.00  0.00    +0.300 C 
ATOM     35  H   UNL     1      -0.445   4.990  25.669  0.00  0.00    +0.151 HD
ATOM     37  H   UNL     1       1.187   4.022  26.525  0.00  0.00    +0.151 HD
BRANCH   6  16
ATOM     16  C   UNL     1       1.408   2.142  27.502  0.00  0.00    +0.074 C 
ATOM     17  C   UNL     1       2.795   2.631  27.934  0.00  0.00    +0.022 C 
ATOM     18  C   UNL     1       0.601   1.630  28.701  0.00  0.00    +0.022 C 
ATOM     20  C   UNL     1       2.729   3.645  29.076  0.00  0.00    +0.002 C 
ATOM     21  C   UNL     1       0.539   2.647  29.841  0.00  0.00    +0.002 C 
ATOM     22  C   UNL     1       1.931   3.108  30.261  0.00  0.00    +0.000 C 
ENDBRANCH   6  16
ENDBRANCH  12   4
TORSDOF 5
ENDMDL
