MODEL 1
REMARK VINA RESULT:       5.5      0.000      0.000
REMARK  Name = 7155430
REMARK  2 active torsions:
REMARK  status: ('A' for Active; 'I' for Inactive)
REMARK    1  A    between atoms: N_6  and  C_22
REMARK    2  A    between atoms: C_14  and  C_19
REMARK                            x       y       z     vdW  Elec       q    Type
REMARK                         _______ _______ _______ _____ _____    ______ ____
ROOT
ATOM      2  O   UNL     1      -2.787   3.246  20.869  0.00  0.00    -0.268 OA
ATOM      3  O   UNL     1       0.592   3.889  24.369  0.00  0.00    -0.252 OA
ATOM      4  N   UNL     1      -3.096   2.555  23.086  0.00  0.00    -0.311 N 
ATOM      5  N   UNL     1      -1.205   3.039  25.553  0.00  0.00    -0.284 N 
ATOM      6  N   UNL     1       0.465   1.601  24.714  0.00  0.00    -0.269 N 
ATOM      7  C   UNL     1      -3.304   4.250  24.996  0.00  0.00    +0.027 C 
ATOM      8  C   UNL     1      -3.371   1.838  25.483  0.00  0.00    +0.054 C 
ATOM      9  C   UNL     1      -4.116   3.159  25.681  0.00  0.00    +0.018 C 
ATOM     10  C   UNL     1      -3.279   3.956  23.496  0.00  0.00    +0.130 C 
ATOM     11  C   UNL     1      -1.888   4.334  25.595  0.00  0.00    +0.114 C 
ATOM     12  C   UNL     1      -1.980   1.938  26.149  0.00  0.00    +0.119 C 
ATOM     13  C   UNL     1      -3.222   1.488  23.998  0.00  0.00    +0.034 A 
ATOM     14  C   UNL     1      -3.169   0.207  23.549  0.00  0.00    +0.002 A 
ATOM     15  C   UNL     1      -2.891   2.352  21.710  0.00  0.00    +0.252 A 
ATOM     16  C   UNL     1       0.004   2.911  24.837  0.00  0.00    +0.306 C 
ATOM     17  C   UNL     1      -2.957  -0.042  22.135  0.00  0.00    +0.015 A 
ATOM     18  C   UNL     1      -2.810   0.946  21.254  0.00  0.00    +0.071 A 
ATOM     31  H   UNL     1       0.222   0.930  25.433  0.00  0.00    +0.156 HD
ENDROOT
BRANCH   6  22
ATOM      1  F   UNL     1       4.765   1.245  22.617  0.00  0.00    -0.205 F 
ATOM     22  C   UNL     1       1.297   1.081  23.694  0.00  0.00    +0.037 A 
ATOM     26  C   UNL     1       2.645   1.427  23.659  0.00  0.00    +0.061 A 
ATOM     27  C   UNL     1       0.764   0.228  22.733  0.00  0.00    +0.023 A 
ATOM     28  C   UNL     1       3.467   0.915  22.654  0.00  0.00    +0.125 A 
ATOM     29  C   UNL     1       1.585  -0.283  21.727  0.00  0.00    +0.005 A 
ATOM     30  C   UNL     1       2.937   0.060  21.689  0.00  0.00    +0.038 A 
ENDBRANCH   6  22
BRANCH  14  19
ATOM     19  C   UNL     1      -3.291  -0.948  24.467  0.00  0.00    -0.016 A 
ATOM     20  C   UNL     1      -3.678  -2.188  23.970  0.00  0.00    +0.008 A 
ATOM     21  C   UNL     1      -3.017  -0.785  25.821  0.00  0.00    +0.008 A 
ATOM     23  C   UNL     1      -3.792  -3.277  24.835  0.00  0.00    +0.001 A 
ATOM     24  C   UNL     1      -3.131  -1.873  26.687  0.00  0.00    +0.001 A 
ATOM     25  C   UNL     1      -3.518  -3.119  26.193  0.00  0.00    +0.000 A 
ENDBRANCH  14  19
TORSDOF 2
ENDMDL
MODEL 2
REMARK VINA RESULT:       8.4      3.030      4.870
REMARK  Name = 7155430
REMARK  2 active torsions:
REMARK  status: ('A' for Active; 'I' for Inactive)
REMARK    1  A    between atoms: N_6  and  C_22
REMARK    2  A    between atoms: C_14  and  C_19
REMARK                            x       y       z     vdW  Elec       q    Type
REMARK                         _______ _______ _______ _____ _____    ______ ____
ROOT
ATOM      2  O   UNL     1      -1.188   2.131  21.056  0.00  0.00    -0.268 OA
ATOM      3  O   UNL     1       0.306  -0.103  25.162  0.00  0.00    -0.252 OA
ATOM      4  N   UNL     1      -1.689   2.930  23.200  0.00  0.00    -0.311 N 
ATOM      5  N   UNL     1      -0.679   1.829  25.969  0.00  0.00    -0.284 N 
ATOM      6  N   UNL     1      -1.929  -0.162  25.774  0.00  0.00    -0.269 N 
ATOM      7  C   UNL     1       0.140   3.835  24.750  0.00  0.00    +0.027 C 
ATOM      8  C   UNL     1      -2.192   3.742  25.530  0.00  0.00    +0.054 C 
ATOM      9  C   UNL     1      -0.984   4.663  25.355  0.00  0.00    +0.018 C 
ATOM     10  C   UNL     1      -0.297   3.380  23.358  0.00  0.00    +0.130 C 
ATOM     11  C   UNL     1       0.497   2.647  25.663  0.00  0.00    +0.114 C 
ATOM     12  C   UNL     1      -1.818   2.597  26.499  0.00  0.00    +0.119 C 
ATOM     13  C   UNL     1      -2.665   3.165  24.190  0.00  0.00    +0.034 A 
ATOM     14  C   UNL     1      -3.963   2.844  23.947  0.00  0.00    +0.002 A 
ATOM     15  C   UNL     1      -1.998   2.347  21.959  0.00  0.00    +0.252 A 
ATOM     16  C   UNL     1      -0.697   0.468  25.599  0.00  0.00    +0.306 C 
ATOM     17  C   UNL     1      -4.318   2.238  22.678  0.00  0.00    +0.015 A 
ATOM     18  C   UNL     1      -3.414   1.982  21.734  0.00  0.00    +0.071 A 
ATOM     31  H   UNL     1      -2.551   0.181  26.496  0.00  0.00    +0.156 HD
ENDROOT
BRANCH   6  22
ATOM      1  F   UNL     1      -5.506  -2.467  23.560  0.00  0.00    -0.205 F 
ATOM     22  C   UNL     1      -2.418  -1.289  25.073  0.00  0.00    +0.037 A 
ATOM     26  C   UNL     1      -3.746  -1.321  24.656  0.00  0.00    +0.061 A 
ATOM     27  C   UNL     1      -1.571  -2.360  24.805  0.00  0.00    +0.023 A 
ATOM     28  C   UNL     1      -4.229  -2.433  23.965  0.00  0.00    +0.125 A 
ATOM     29  C   UNL     1      -2.053  -3.472  24.115  0.00  0.00    +0.005 A 
ATOM     30  C   UNL     1      -3.383  -3.508  23.694  0.00  0.00    +0.038 A 
ENDBRANCH   6  22
BRANCH  14  19
ATOM     19  C   UNL     1      -5.023   3.066  24.955  0.00  0.00    -0.016 A 
ATOM     20  C   UNL     1      -5.467   4.358  25.219  0.00  0.00    +0.008 A 
ATOM     21  C   UNL     1      -5.570   1.980  25.633  0.00  0.00    +0.008 A 
ATOM     23  C   UNL     1      -6.467   4.567  26.169  0.00  0.00    +0.001 A 
ATOM     24  C   UNL     1      -6.570   2.189  26.582  0.00  0.00    +0.001 A 
ATOM     25  C   UNL     1      -7.019   3.482  26.850  0.00  0.00    +0.000 A 
ENDBRANCH  14  19
TORSDOF 2
ENDMDL
MODEL 3
REMARK VINA RESULT:       9.0      2.374      5.798
REMARK  Name = 7155430
REMARK  2 active torsions:
REMARK  status: ('A' for Active; 'I' for Inactive)
REMARK    1  A    between atoms: N_6  and  C_22
REMARK    2  A    between atoms: C_14  and  C_19
REMARK                            x       y       z     vdW  Elec       q    Type
REMARK                         _______ _______ _______ _____ _____    ______ ____
ROOT
ATOM      2  O   UNL     1      -1.736   3.070  27.905  0.00  0.00    -0.268 OA
ATOM      3  O   UNL     1      -4.748   2.182  24.134  0.00  0.00    -0.252 OA
ATOM      4  N   UNL     1      -1.082   3.293  25.668  0.00  0.00    -0.311 N 
ATOM      5  N   UNL     1      -2.856   3.006  23.086  0.00  0.00    -0.284 N 
ATOM      6  N   UNL     1      -3.142   0.685  23.389  0.00  0.00    -0.269 N 
ATOM      7  C   UNL     1      -2.077   5.110  24.159  0.00  0.00    +0.027 C 
ATOM      8  C   UNL     1      -0.437   3.518  23.244  0.00  0.00    +0.054 C 
ATOM      9  C   UNL     1      -0.757   5.005  23.407  0.00  0.00    +0.018 C 
ATOM     10  C   UNL     1      -1.878   4.525  25.558  0.00  0.00    +0.130 C 
ATOM     11  C   UNL     1      -3.203   4.397  23.387  0.00  0.00    +0.114 C 
ATOM     12  C   UNL     1      -1.556   2.849  22.414  0.00  0.00    +0.119 C 
ATOM     13  C   UNL     1      -0.295   2.816  24.599  0.00  0.00    +0.034 A 
ATOM     14  C   UNL     1       0.522   1.746  24.789  0.00  0.00    +0.002 A 
ATOM     15  C   UNL     1      -1.079   2.688  26.936  0.00  0.00    +0.252 A 
ATOM     16  C   UNL     1      -3.666   1.963  23.581  0.00  0.00    +0.306 C 
ATOM     17  C   UNL     1       0.548   1.094  26.084  0.00  0.00    +0.015 A 
ATOM     18  C   UNL     1      -0.202   1.508  27.104  0.00  0.00    +0.071 A 
ATOM     31  H   UNL     1      -2.528   0.526  22.600  0.00  0.00    +0.156 HD
ENDROOT
BRANCH   6  22
ATOM      1  F   UNL     1      -3.157  -1.600  27.607  0.00  0.00    -0.205 F 
ATOM     22  C   UNL     1      -3.406  -0.471  24.161  0.00  0.00    +0.037 A 
ATOM     26  C   UNL     1      -3.146  -0.463  25.529  0.00  0.00    +0.061 A 
ATOM     27  C   UNL     1      -3.924  -1.609  23.549  0.00  0.00    +0.023 A 
ATOM     28  C   UNL     1      -3.405  -1.603  26.290  0.00  0.00    +0.125 A 
ATOM     29  C   UNL     1      -4.184  -2.748  24.310  0.00  0.00    +0.005 A 
ATOM     30  C   UNL     1      -3.925  -2.745  25.681  0.00  0.00    +0.038 A 
ENDBRANCH   6  22
BRANCH  14  19
ATOM     19  C   UNL     1       1.363   1.204  23.699  0.00  0.00    -0.016 A 
ATOM     20  C   UNL     1       2.667   1.661  23.540  0.00  0.00    +0.008 A 
ATOM     21  C   UNL     1       0.844   0.241  22.839  0.00  0.00    +0.008 A 
ATOM     23  C   UNL     1       3.461   1.151  22.513  0.00  0.00    +0.001 A 
ATOM     24  C   UNL     1       1.637  -0.271  21.813  0.00  0.00    +0.001 A 
ATOM     25  C   UNL     1       2.945   0.184  21.649  0.00  0.00    +0.000 A 
ENDBRANCH  14  19
TORSDOF 2
ENDMDL
MODEL 4
REMARK VINA RESULT:       9.0      3.184      6.345
REMARK  Name = 7155430
REMARK  2 active torsions:
REMARK  status: ('A' for Active; 'I' for Inactive)
REMARK    1  A    between atoms: N_6  and  C_22
REMARK    2  A    between atoms: C_14  and  C_19
REMARK                            x       y       z     vdW  Elec       q    Type
REMARK                         _______ _______ _______ _____ _____    ______ ____
ROOT
ATOM      2  O   UNL     1      -1.221   1.462  21.702  0.00  0.00    -0.268 OA
ATOM      3  O   UNL     1      -4.771  -0.415  24.523  0.00  0.00    -0.252 OA
ATOM      4  N   UNL     1      -0.819   0.537  23.816  0.00  0.00    -0.311 N 
ATOM      5  N   UNL     1      -2.855  -0.921  25.719  0.00  0.00    -0.284 N 
ATOM      6  N   UNL     1      -4.054   1.062  26.160  0.00  0.00    -0.269 N 
ATOM      7  C   UNL     1      -1.133  -1.966  24.261  0.00  0.00    +0.027 C 
ATOM      8  C   UNL     1      -0.447  -0.472  26.092  0.00  0.00    +0.054 C 
ATOM      9  C   UNL     1      -0.087  -1.757  25.346  0.00  0.00    +0.018 C 
ATOM     10  C   UNL     1      -1.028  -0.810  23.266  0.00  0.00    +0.130 C 
ATOM     11  C   UNL     1      -2.542  -2.076  24.874  0.00  0.00    +0.114 C 
ATOM     12  C   UNL     1      -1.838  -0.640  26.745  0.00  0.00    +0.119 C 
ATOM     13  C   UNL     1      -0.447   0.745  25.160  0.00  0.00    +0.034 A 
ATOM     14  C   UNL     1      -0.142   1.998  25.589  0.00  0.00    +0.002 A 
ATOM     15  C   UNL     1      -0.913   1.589  22.888  0.00  0.00    +0.252 A 
ATOM     16  C   UNL     1      -3.961  -0.104  25.401  0.00  0.00    +0.306 C 
ATOM     17  C   UNL     1      -0.232   3.108  24.660  0.00  0.00    +0.015 A 
ATOM     18  C   UNL     1      -0.603   2.946  23.391  0.00  0.00    +0.071 A 
ATOM     31  H   UNL     1      -3.668   1.064  27.096  0.00  0.00    +0.156 HD
ENDROOT
BRANCH   6  22
ATOM      1  F   UNL     1      -4.009   5.225  23.777  0.00  0.00    -0.205 F 
ATOM     22  C   UNL     1      -4.683   2.274  25.789  0.00  0.00    +0.037 A 
ATOM     26  C   UNL     1      -4.022   3.167  24.951  0.00  0.00    +0.061 A 
ATOM     27  C   UNL     1      -5.958   2.566  26.263  0.00  0.00    +0.023 A 
ATOM     28  C   UNL     1      -4.641   4.363  24.585  0.00  0.00    +0.125 A 
ATOM     29  C   UNL     1      -6.577   3.761  25.898  0.00  0.00    +0.005 A 
ATOM     30  C   UNL     1      -5.919   4.659  25.058  0.00  0.00    +0.038 A 
ENDBRANCH   6  22
BRANCH  14  19
ATOM     19  C   UNL     1       0.249   2.268  26.991  0.00  0.00    -0.016 A 
ATOM     20  C   UNL     1      -0.733   2.474  27.955  0.00  0.00    +0.008 A 
ATOM     21  C   UNL     1       1.596   2.315  27.336  0.00  0.00    +0.008 A 
ATOM     23  C   UNL     1      -0.365   2.729  29.276  0.00  0.00    +0.001 A 
ATOM     24  C   UNL     1       1.965   2.569  28.656  0.00  0.00    +0.001 A 
ATOM     25  C   UNL     1       0.984   2.776  29.626  0.00  0.00    +0.000 A 
ENDBRANCH  14  19
TORSDOF 2
ENDMDL
