MODEL 1
REMARK VINA RESULT:      -5.0      0.000      0.000
REMARK  Name = 75536948
REMARK  5 active torsions:
REMARK  status: ('A' for Active; 'I' for Inactive)
REMARK    1  A    between atoms: O_2  and  C_6
REMARK    2  A    between atoms: O_3  and  C_16
REMARK    3  A    between atoms: O_3  and  C_17
REMARK    4  A    between atoms: N_4  and  C_8
REMARK    5  A    between atoms: C_8  and  C_11
REMARK                            x       y       z     vdW  Elec       q    Type
REMARK                         _______ _______ _______ _____ _____    ______ ____
ROOT
ATOM      1  O   UNL     1      -4.778   4.058  24.602  0.00  0.00    -0.376 OA
ATOM      4  N   UNL     1      -3.370   1.287  24.863  0.00  0.00    -0.293 NA
ATOM      5  C   UNL     1      -4.705   0.909  25.337  0.00  0.00    +0.118 C 
ATOM      6  C   UNL     1      -5.801   1.988  25.329  0.00  0.00    +0.154 C 
ATOM      7  C   UNL     1      -3.371   2.221  23.735  0.00  0.00    +0.113 C 
ATOM      9  C   UNL     1      -5.318   3.376  25.729  0.00  0.00    +0.192 C 
ATOM     10  C   UNL     1      -3.460   3.659  24.248  0.00  0.00    +0.175 C 
ENDROOT
BRANCH   6   2
ATOM      2  O   UNL     1      -6.818   1.593  26.249  0.00  0.00    -0.388 OA
ATOM     18  H   UNL     1      -7.597   2.152  26.083  0.00  0.00    +0.210 HD
ENDBRANCH   6   2
BRANCH   4   8
ATOM      8  C   UNL     1      -2.583   0.089  24.565  0.00  0.00    +0.119 C 
BRANCH   8  11
ATOM     11  C   UNL     1      -1.157   0.425  24.220  0.00  0.00    -0.033 A 
ATOM     12  C   UNL     1      -0.403  -0.450  23.439  0.00  0.00    +0.008 A 
ATOM     13  C   UNL     1      -0.589   1.613  24.682  0.00  0.00    +0.008 A 
ATOM     14  C   UNL     1       0.919  -0.138  23.118  0.00  0.00    +0.046 A 
ATOM     15  C   UNL     1       0.732   1.925  24.362  0.00  0.00    +0.046 A 
ATOM     16  C   UNL     1       1.486   1.050  23.580  0.00  0.00    +0.120 A 
BRANCH  16   3
ATOM      3  O   UNL     1       2.775   1.355  23.268  0.00  0.00    -0.495 OA
ATOM     17  C   UNL     1       3.486   0.418  22.458  0.00  0.00    +0.277 C 
ENDBRANCH  16   3
ENDBRANCH   8  11
ENDBRANCH   4   8
TORSDOF 4
ENDMDL
MODEL 2
REMARK VINA RESULT:      -4.7      3.056      5.231
REMARK  Name = 75536948
REMARK  5 active torsions:
REMARK  status: ('A' for Active; 'I' for Inactive)
REMARK    1  A    between atoms: O_2  and  C_6
REMARK    2  A    between atoms: O_3  and  C_16
REMARK    3  A    between atoms: O_3  and  C_17
REMARK    4  A    between atoms: N_4  and  C_8
REMARK    5  A    between atoms: C_8  and  C_11
REMARK                            x       y       z     vdW  Elec       q    Type
REMARK                         _______ _______ _______ _____ _____    ______ ____
ROOT
ATOM      1  O   UNL     1      -2.543  -3.200  24.158  0.00  0.00    -0.376 OA
ATOM      4  N   UNL     1      -3.923  -0.504  24.906  0.00  0.00    -0.293 NA
ATOM      5  C   UNL     1      -2.523  -0.082  25.019  0.00  0.00    +0.118 C 
ATOM      6  C   UNL     1      -1.433  -1.109  24.670  0.00  0.00    +0.154 C 
ATOM      7  C   UNL     1      -4.195  -1.401  23.781  0.00  0.00    +0.113 C 
ATOM      9  C   UNL     1      -1.742  -2.529  25.126  0.00  0.00    +0.192 C 
ATOM     10  C   UNL     1      -3.920  -2.848  24.189  0.00  0.00    +0.175 C 
ENDROOT
BRANCH   6   2
ATOM      2  O   UNL     1      -0.219  -0.698  25.299  0.00  0.00    -0.388 OA
ATOM     18  H   UNL     1       0.189  -1.489  25.693  0.00  0.00    +0.210 HD
ENDBRANCH   6   2
BRANCH   4   8
ATOM      8  C   UNL     1      -4.801   0.666  24.883  0.00  0.00    +0.119 C 
BRANCH   8  11
ATOM     11  C   UNL     1      -4.022   1.954  24.924  0.00  0.00    -0.033 A 
ATOM     12  C   UNL     1      -3.151   2.276  23.883  0.00  0.00    +0.008 A 
ATOM     13  C   UNL     1      -4.173   2.826  26.002  0.00  0.00    +0.008 A 
ATOM     14  C   UNL     1      -2.429   3.469  23.920  0.00  0.00    +0.046 A 
ATOM     15  C   UNL     1      -3.452   4.020  26.040  0.00  0.00    +0.046 A 
ATOM     16  C   UNL     1      -2.580   4.341  24.999  0.00  0.00    +0.120 A 
BRANCH  16   3
ATOM      3  O   UNL     1      -1.877   5.506  25.036  0.00  0.00    -0.495 OA
ATOM     17  C   UNL     1      -0.484   5.433  24.737  0.00  0.00    +0.277 C 
ENDBRANCH  16   3
ENDBRANCH   8  11
ENDBRANCH   4   8
TORSDOF 4
ENDMDL
MODEL 3
REMARK VINA RESULT:      -4.1      2.837      4.503
REMARK  Name = 75536948
REMARK  5 active torsions:
REMARK  status: ('A' for Active; 'I' for Inactive)
REMARK    1  A    between atoms: O_2  and  C_6
REMARK    2  A    between atoms: O_3  and  C_16
REMARK    3  A    between atoms: O_3  and  C_17
REMARK    4  A    between atoms: N_4  and  C_8
REMARK    5  A    between atoms: C_8  and  C_11
REMARK                            x       y       z     vdW  Elec       q    Type
REMARK                         _______ _______ _______ _____ _____    ______ ____
ROOT
ATOM      1  O   UNL     1      -3.895  -3.038  24.376  0.00  0.00    -0.376 OA
ATOM      4  N   UNL     1      -1.540  -0.994  24.315  0.00  0.00    -0.293 NA
ATOM      5  C   UNL     1      -2.624  -0.079  24.687  0.00  0.00    +0.118 C 
ATOM      6  C   UNL     1      -4.025  -0.677  24.899  0.00  0.00    +0.154 C 
ATOM      7  C   UNL     1      -1.608  -2.306  24.960  0.00  0.00    +0.113 C 
ATOM      9  C   UNL     1      -4.390  -1.784  23.918  0.00  0.00    +0.192 C 
ATOM     10  C   UNL     1      -2.507  -3.240  24.149  0.00  0.00    +0.175 C 
ENDROOT
BRANCH   6   2
ATOM      2  O   UNL     1      -4.982   0.373  24.755  0.00  0.00    -0.388 OA
ATOM     18  H   UNL     1      -5.508   0.182  23.959  0.00  0.00    +0.210 HD
ENDBRANCH   6   2
BRANCH   4   8
ATOM      8  C   UNL     1      -0.243  -0.353  24.539  0.00  0.00    +0.119 C 
BRANCH   8  11
ATOM     11  C   UNL     1      -0.372   1.139  24.692  0.00  0.00    -0.033 A 
ATOM     12  C   UNL     1      -0.251   1.725  25.952  0.00  0.00    +0.008 A 
ATOM     13  C   UNL     1      -0.612   1.936  23.572  0.00  0.00    +0.008 A 
ATOM     14  C   UNL     1      -0.370   3.107  26.093  0.00  0.00    +0.046 A 
ATOM     15  C   UNL     1      -0.731   3.319  23.714  0.00  0.00    +0.046 A 
ATOM     16  C   UNL     1      -0.610   3.904  24.974  0.00  0.00    +0.120 A 
BRANCH  16   3
ATOM      3  O   UNL     1      -0.726   5.253  25.111  0.00  0.00    -0.495 OA
ATOM     17  C   UNL     1      -2.047   5.791  25.143  0.00  0.00    +0.277 C 
ENDBRANCH  16   3
ENDBRANCH   8  11
ENDBRANCH   4   8
TORSDOF 4
ENDMDL
MODEL 4
REMARK VINA RESULT:      -4.0      2.981      5.011
REMARK  Name = 75536948
REMARK  5 active torsions:
REMARK  status: ('A' for Active; 'I' for Inactive)
REMARK    1  A    between atoms: O_2  and  C_6
REMARK    2  A    between atoms: O_3  and  C_16
REMARK    3  A    between atoms: O_3  and  C_17
REMARK    4  A    between atoms: N_4  and  C_8
REMARK    5  A    between atoms: C_8  and  C_11
REMARK                            x       y       z     vdW  Elec       q    Type
REMARK                         _______ _______ _______ _____ _____    ______ ____
ROOT
ATOM      1  O   UNL     1      -0.605   5.077  25.044  0.00  0.00    -0.376 OA
ATOM      4  N   UNL     1      -2.854   2.916  25.071  0.00  0.00    -0.293 NA
ATOM      5  C   UNL     1      -1.687   2.031  25.145  0.00  0.00    +0.118 C 
ATOM      6  C   UNL     1      -0.296   2.682  25.218  0.00  0.00    +0.154 C 
ATOM      7  C   UNL     1      -2.737   4.138  25.869  0.00  0.00    +0.113 C 
ATOM      9  C   UNL     1      -0.139   3.924  24.351  0.00  0.00    +0.192 C 
ATOM     10  C   UNL     1      -2.019   5.221  25.063  0.00  0.00    +0.175 C 
ENDROOT
BRANCH   6   2
ATOM      2  O   UNL     1       0.667   1.720  24.788  0.00  0.00    -0.388 OA
ATOM     18  H   UNL     1       0.493   1.530  23.850  0.00  0.00    +0.210 HD
ENDBRANCH   6   2
BRANCH   4   8
ATOM      8  C   UNL     1      -4.071   2.174  25.404  0.00  0.00    +0.119 C 
BRANCH   8  11
ATOM     11  C   UNL     1      -3.933   0.706  25.102  0.00  0.00    -0.033 A 
ATOM     12  C   UNL     1      -3.640  -0.194  26.127  0.00  0.00    +0.008 A 
ATOM     13  C   UNL     1      -4.099   0.244  23.796  0.00  0.00    +0.008 A 
ATOM     14  C   UNL     1      -3.513  -1.555  25.847  0.00  0.00    +0.046 A 
ATOM     15  C   UNL     1      -3.973  -1.117  23.516  0.00  0.00    +0.046 A 
ATOM     16  C   UNL     1      -3.679  -2.016  24.541  0.00  0.00    +0.120 A 
BRANCH  16   3
ATOM      3  O   UNL     1      -3.556  -3.343  24.267  0.00  0.00    -0.495 OA
ATOM     17  C   UNL     1      -2.388  -3.755  23.559  0.00  0.00    +0.277 C 
ENDBRANCH  16   3
ENDBRANCH   8  11
ENDBRANCH   4   8
TORSDOF 4
ENDMDL
MODEL 5
REMARK VINA RESULT:      -3.8      3.300      5.115
REMARK  Name = 75536948
REMARK  5 active torsions:
REMARK  status: ('A' for Active; 'I' for Inactive)
REMARK    1  A    between atoms: O_2  and  C_6
REMARK    2  A    between atoms: O_3  and  C_16
REMARK    3  A    between atoms: O_3  and  C_17
REMARK    4  A    between atoms: N_4  and  C_8
REMARK    5  A    between atoms: C_8  and  C_11
REMARK                            x       y       z     vdW  Elec       q    Type
REMARK                         _______ _______ _______ _____ _____    ______ ____
ROOT
ATOM      1  O   UNL     1      -1.294  -2.559  25.081  0.00  0.00    -0.376 OA
ATOM      4  N   UNL     1      -3.522  -0.439  24.562  0.00  0.00    -0.293 NA
ATOM      5  C   UNL     1      -4.272  -1.648  24.208  0.00  0.00    +0.118 C 
ATOM      6  C   UNL     1      -3.566  -3.004  24.372  0.00  0.00    +0.154 C 
ATOM      7  C   UNL     1      -2.643  -0.590  25.723  0.00  0.00    +0.113 C 
ATOM      9  C   UNL     1      -2.093  -2.995  23.986  0.00  0.00    +0.192 C 
ATOM     10  C   UNL     1      -1.290  -1.152  25.283  0.00  0.00    +0.175 C 
ENDROOT
BRANCH   6   2
ATOM      2  O   UNL     1      -4.234  -3.955  23.543  0.00  0.00    -0.388 OA
ATOM     18  H   UNL     1      -4.147  -3.652  22.622  0.00  0.00    +0.210 HD
ENDBRANCH   6   2
BRANCH   4   8
ATOM      8  C   UNL     1      -4.437   0.692  24.727  0.00  0.00    +0.119 C 
BRANCH   8  11
ATOM     11  C   UNL     1      -3.698   1.994  24.885  0.00  0.00    -0.033 A 
ATOM     12  C   UNL     1      -2.460   2.173  24.268  0.00  0.00    +0.008 A 
ATOM     13  C   UNL     1      -4.252   3.021  25.649  0.00  0.00    +0.008 A 
ATOM     14  C   UNL     1      -1.775   3.380  24.413  0.00  0.00    +0.046 A 
ATOM     15  C   UNL     1      -3.567   4.229  25.794  0.00  0.00    +0.046 A 
ATOM     16  C   UNL     1      -2.329   4.407  25.177  0.00  0.00    +0.120 A 
BRANCH  16   3
ATOM      3  O   UNL     1      -1.662   5.585  25.319  0.00  0.00    -0.495 OA
ATOM     17  C   UNL     1      -0.406   5.704  24.651  0.00  0.00    +0.277 C 
ENDBRANCH  16   3
ENDBRANCH   8  11
ENDBRANCH   4   8
TORSDOF 4
ENDMDL
MODEL 6
REMARK VINA RESULT:      -3.7      2.766      4.298
REMARK  Name = 75536948
REMARK  5 active torsions:
REMARK  status: ('A' for Active; 'I' for Inactive)
REMARK    1  A    between atoms: O_2  and  C_6
REMARK    2  A    between atoms: O_3  and  C_16
REMARK    3  A    between atoms: O_3  and  C_17
REMARK    4  A    between atoms: N_4  and  C_8
REMARK    5  A    between atoms: C_8  and  C_11
REMARK                            x       y       z     vdW  Elec       q    Type
REMARK                         _______ _______ _______ _____ _____    ______ ____
ROOT
ATOM      1  O   UNL     1      -2.136   5.215  24.533  0.00  0.00    -0.376 OA
ATOM      4  N   UNL     1      -1.333   2.368  25.523  0.00  0.00    -0.293 NA
ATOM      5  C   UNL     1      -2.624   2.040  24.910  0.00  0.00    +0.118 C 
ATOM      6  C   UNL     1      -3.395   3.172  24.211  0.00  0.00    +0.154 C 
ATOM      7  C   UNL     1      -0.539   3.344  24.775  0.00  0.00    +0.113 C 
ATOM      9  C   UNL     1      -3.315   4.517  24.921  0.00  0.00    +0.192 C 
ATOM     10  C   UNL     1      -0.949   4.763  25.171  0.00  0.00    +0.175 C 
ENDROOT
BRANCH   6   2
ATOM      2  O   UNL     1      -4.769   2.793  24.137  0.00  0.00    -0.388 OA
ATOM     18  H   UNL     1      -5.207   3.120  24.942  0.00  0.00    +0.210 HD
ENDBRANCH   6   2
BRANCH   4   8
ATOM      8  C   UNL     1      -0.573   1.144  25.781  0.00  0.00    +0.119 C 
BRANCH   8  11
ATOM     11  C   UNL     1      -1.350  -0.089  25.408  0.00  0.00    -0.033 A 
ATOM     12  C   UNL     1      -2.630  -0.290  25.925  0.00  0.00    +0.008 A 
ATOM     13  C   UNL     1      -0.791  -1.031  24.544  0.00  0.00    +0.008 A 
ATOM     14  C   UNL     1      -3.352  -1.433  25.579  0.00  0.00    +0.046 A 
ATOM     15  C   UNL     1      -1.513  -2.174  24.197  0.00  0.00    +0.046 A 
ATOM     16  C   UNL     1      -2.793  -2.375  24.715  0.00  0.00    +0.120 A 
BRANCH  16   3
ATOM      3  O   UNL     1      -3.496  -3.490  24.376  0.00  0.00    -0.495 OA
ATOM     17  C   UNL     1      -4.644  -3.306  23.550  0.00  0.00    +0.277 C 
ENDBRANCH  16   3
ENDBRANCH   8  11
ENDBRANCH   4   8
TORSDOF 4
ENDMDL
MODEL 7
REMARK VINA RESULT:      -3.7      2.648      5.684
REMARK  Name = 75536948
REMARK  5 active torsions:
REMARK  status: ('A' for Active; 'I' for Inactive)
REMARK    1  A    between atoms: O_2  and  C_6
REMARK    2  A    between atoms: O_3  and  C_16
REMARK    3  A    between atoms: O_3  and  C_17
REMARK    4  A    between atoms: N_4  and  C_8
REMARK    5  A    between atoms: C_8  and  C_11
REMARK                            x       y       z     vdW  Elec       q    Type
REMARK                         _______ _______ _______ _____ _____    ______ ____
ROOT
ATOM      1  O   UNL     1      -1.385  -2.921  25.371  0.00  0.00    -0.376 OA
ATOM      4  N   UNL     1      -1.125  -0.094  24.079  0.00  0.00    -0.293 NA
ATOM      5  C   UNL     1      -2.570  -0.286  23.915  0.00  0.00    +0.118 C 
ATOM      6  C   UNL     1      -3.191  -1.574  24.482  0.00  0.00    +0.154 C 
ATOM      7  C   UNL     1      -0.591  -0.581  25.352  0.00  0.00    +0.113 C 
ATOM      9  C   UNL     1      -2.327  -2.816  24.308  0.00  0.00    +0.192 C 
ATOM     10  C   UNL     1      -0.255  -2.068  25.242  0.00  0.00    +0.175 C 
ENDROOT
BRANCH   6   2
ATOM      2  O   UNL     1      -4.430  -1.801  23.811  0.00  0.00    -0.388 OA
ATOM     18  H   UNL     1      -4.233  -1.931  22.868  0.00  0.00    +0.210 HD
ENDBRANCH   6   2
BRANCH   4   8
ATOM      8  C   UNL     1      -0.776   1.309  23.853  0.00  0.00    +0.119 C 
BRANCH   8  11
ATOM     11  C   UNL     1      -1.896   2.237  24.242  0.00  0.00    -0.033 A 
ATOM     12  C   UNL     1      -3.022   2.352  23.426  0.00  0.00    +0.008 A 
ATOM     13  C   UNL     1      -1.809   2.980  25.419  0.00  0.00    +0.008 A 
ATOM     14  C   UNL     1      -4.060   3.211  23.786  0.00  0.00    +0.046 A 
ATOM     15  C   UNL     1      -2.848   3.838  25.780  0.00  0.00    +0.046 A 
ATOM     16  C   UNL     1      -3.973   3.954  24.963  0.00  0.00    +0.120 A 
BRANCH  16   3
ATOM      3  O   UNL     1      -4.986   4.792  25.316  0.00  0.00    -0.495 OA
ATOM     17  C   UNL     1      -6.229   4.191  25.678  0.00  0.00    +0.277 C 
ENDBRANCH  16   3
ENDBRANCH   8  11
ENDBRANCH   4   8
TORSDOF 4
ENDMDL
MODEL 8
REMARK VINA RESULT:      -3.5      1.425      2.444
REMARK  Name = 75536948
REMARK  5 active torsions:
REMARK  status: ('A' for Active; 'I' for Inactive)
REMARK    1  A    between atoms: O_2  and  C_6
REMARK    2  A    between atoms: O_3  and  C_16
REMARK    3  A    between atoms: O_3  and  C_17
REMARK    4  A    between atoms: N_4  and  C_8
REMARK    5  A    between atoms: C_8  and  C_11
REMARK                            x       y       z     vdW  Elec       q    Type
REMARK                         _______ _______ _______ _____ _____    ______ ____
ROOT
ATOM      1  O   UNL     1      -5.888   3.795  25.679  0.00  0.00    -0.376 OA
ATOM      4  N   UNL     1      -4.174   1.308  24.901  0.00  0.00    -0.293 NA
ATOM      5  C   UNL     1      -3.098   2.186  25.373  0.00  0.00    +0.118 C 
ATOM      6  C   UNL     1      -3.491   3.563  25.933  0.00  0.00    +0.154 C 
ATOM      7  C   UNL     1      -5.400   1.372  25.698  0.00  0.00    +0.113 C 
ATOM      9  C   UNL     1      -4.630   4.244  25.185  0.00  0.00    +0.192 C 
ATOM     10  C   UNL     1      -6.285   2.517  25.202  0.00  0.00    +0.175 C 
ENDROOT
BRANCH   6   2
ATOM      2  O   UNL     1      -2.346   4.414  25.862  0.00  0.00    -0.388 OA
ATOM     18  H   UNL     1      -2.384   4.884  25.011  0.00  0.00    +0.210 HD
ENDBRANCH   6   2
BRANCH   4   8
ATOM      8  C   UNL     1      -3.685  -0.067  24.782  0.00  0.00    +0.119 C 
BRANCH   8  11
ATOM     11  C   UNL     1      -2.234  -0.114  24.385  0.00  0.00    -0.033 A 
ATOM     12  C   UNL     1      -1.670   0.945  23.674  0.00  0.00    +0.008 A 
ATOM     13  C   UNL     1      -1.452  -1.217  24.729  0.00  0.00    +0.008 A 
ATOM     14  C   UNL     1      -0.325   0.903  23.307  0.00  0.00    +0.046 A 
ATOM     15  C   UNL     1      -0.107  -1.260  24.363  0.00  0.00    +0.046 A 
ATOM     16  C   UNL     1       0.457  -0.200  23.651  0.00  0.00    +0.120 A 
BRANCH  16   3
ATOM      3  O   UNL     1       1.769  -0.243  23.294  0.00  0.00    -0.495 OA
ATOM     17  C   UNL     1       2.065  -0.177  21.899  0.00  0.00    +0.277 C 
ENDBRANCH  16   3
ENDBRANCH   8  11
ENDBRANCH   4   8
TORSDOF 4
ENDMDL
MODEL 9
REMARK VINA RESULT:      -3.5      2.904      3.339
REMARK  Name = 75536948
REMARK  5 active torsions:
REMARK  status: ('A' for Active; 'I' for Inactive)
REMARK    1  A    between atoms: O_2  and  C_6
REMARK    2  A    between atoms: O_3  and  C_16
REMARK    3  A    between atoms: O_3  and  C_17
REMARK    4  A    between atoms: N_4  and  C_8
REMARK    5  A    between atoms: C_8  and  C_11
REMARK                            x       y       z     vdW  Elec       q    Type
REMARK                         _______ _______ _______ _____ _____    ______ ____
ROOT
ATOM      1  O   UNL     1      -3.297   4.516  24.502  0.00  0.00    -0.376 OA
ATOM      4  N   UNL     1      -4.572   1.715  25.012  0.00  0.00    -0.293 NA
ATOM      5  C   UNL     1      -5.717   2.556  25.375  0.00  0.00    +0.118 C 
ATOM      6  C   UNL     1      -5.568   4.078  25.219  0.00  0.00    +0.154 C 
ATOM      7  C   UNL     1      -3.818   2.190  23.850  0.00  0.00    +0.113 C 
ATOM      9  C   UNL     1      -4.196   4.617  25.602  0.00  0.00    +0.192 C 
ATOM     10  C   UNL     1      -2.771   3.213  24.290  0.00  0.00    +0.175 C 
ENDROOT
BRANCH   6   2
ATOM      2  O   UNL     1      -6.538   4.707  26.056  0.00  0.00    -0.388 OA
ATOM     18  H   UNL     1      -7.095   4.006  26.437  0.00  0.00    +0.210 HD
ENDBRANCH   6   2
BRANCH   4   8
ATOM      8  C   UNL     1      -5.001   0.326  24.841  0.00  0.00    +0.119 C 
BRANCH   8  11
ATOM     11  C   UNL     1      -3.836  -0.627  24.867  0.00  0.00    -0.033 A 
ATOM     12  C   UNL     1      -3.939  -1.871  24.244  0.00  0.00    +0.008 A 
ATOM     13  C   UNL     1      -2.654  -0.267  25.513  0.00  0.00    +0.008 A 
ATOM     14  C   UNL     1      -2.861  -2.755  24.267  0.00  0.00    +0.046 A 
ATOM     15  C   UNL     1      -1.574  -1.151  25.535  0.00  0.00    +0.046 A 
ATOM     16  C   UNL     1      -1.678  -2.395  24.913  0.00  0.00    +0.120 A 
BRANCH  16   3
ATOM      3  O   UNL     1      -0.625  -3.256  24.935  0.00  0.00    -0.495 OA
ATOM     17  C   UNL     1       0.603  -2.767  25.473  0.00  0.00    +0.277 C 
ENDBRANCH  16   3
ENDBRANCH   8  11
ENDBRANCH   4   8
TORSDOF 4
ENDMDL
MODEL 10
REMARK VINA RESULT:      -3.4      1.114      2.022
REMARK  Name = 75536948
REMARK  5 active torsions:
REMARK  status: ('A' for Active; 'I' for Inactive)
REMARK    1  A    between atoms: O_2  and  C_6
REMARK    2  A    between atoms: O_3  and  C_16
REMARK    3  A    between atoms: O_3  and  C_17
REMARK    4  A    between atoms: N_4  and  C_8
REMARK    5  A    between atoms: C_8  and  C_11
REMARK                            x       y       z     vdW  Elec       q    Type
REMARK                         _______ _______ _______ _____ _____    ______ ____
ROOT
ATOM      1  O   UNL     1      -5.343   3.072  25.084  0.00  0.00    -0.376 OA
ATOM      4  N   UNL     1      -2.895   1.185  24.665  0.00  0.00    -0.293 NA
ATOM      5  C   UNL     1      -2.196   2.342  25.235  0.00  0.00    +0.118 C 
ATOM      6  C   UNL     1      -3.043   3.549  25.670  0.00  0.00    +0.154 C 
ATOM      7  C   UNL     1      -4.190   0.896  25.286  0.00  0.00    +0.113 C 
ATOM      9  C   UNL     1      -4.210   3.864  24.743  0.00  0.00    +0.192 C 
ATOM     10  C   UNL     1      -5.285   1.730  24.620  0.00  0.00    +0.175 C 
ENDROOT
BRANCH   6   2
ATOM      2  O   UNL     1      -2.192   4.695  25.713  0.00  0.00    -0.388 OA
ATOM     18  H   UNL     1      -2.190   5.091  24.824  0.00  0.00    +0.210 HD
ENDBRANCH   6   2
BRANCH   4   8
ATOM      8  C   UNL     1      -2.021   0.012  24.679  0.00  0.00    +0.119 C 
BRANCH   8  11
ATOM     11  C   UNL     1      -0.642   0.333  24.167  0.00  0.00    -0.033 A 
ATOM     12  C   UNL     1       0.051  -0.599  23.395  0.00  0.00    +0.008 A 
ATOM     13  C   UNL     1      -0.057   1.564  24.464  0.00  0.00    +0.008 A 
ATOM     14  C   UNL     1       1.328  -0.302  22.920  0.00  0.00    +0.046 A 
ATOM     15  C   UNL     1       1.220   1.863  23.989  0.00  0.00    +0.046 A 
ATOM     16  C   UNL     1       1.913   0.930  23.218  0.00  0.00    +0.120 A 
BRANCH  16   3
ATOM      3  O   UNL     1       3.159   1.221  22.754  0.00  0.00    -0.495 OA
ATOM     17  C   UNL     1       4.193   0.279  23.035  0.00  0.00    +0.277 C 
ENDBRANCH  16   3
ENDBRANCH   8  11
ENDBRANCH   4   8
TORSDOF 4
ENDMDL
