MODEL 1
REMARK VINA RESULT:       7.0      0.000      0.000
REMARK  Name = 51137135
REMARK  9 active torsions:
REMARK  status: ('A' for Active; 'I' for Inactive)
REMARK    1  A    between atoms: S_1  and  C_21
REMARK    2  A    between atoms: S_1  and  C_26
REMARK    3  A    between atoms: N_5  and  C_12
REMARK    4  A    between atoms: N_7  and  C_25
REMARK    5  A    between atoms: N_7  and  C_28
REMARK    6  A    between atoms: N_7  and  C_29
REMARK    7  A    between atoms: C_8  and  C_13
REMARK    8  A    between atoms: C_12  and  C_14
REMARK    9  A    between atoms: C_26  and  C_27
REMARK                            x       y       z     vdW  Elec       q    Type
REMARK                         _______ _______ _______ _____ _____    ______ ____
ROOT
ATOM      5  N   UNL     1      -4.720  -0.194  24.874  0.00  0.00    -0.297 NA
ATOM      8  C   UNL     1      -2.725  -1.256  24.248  0.00  0.00    +0.090 C 
ATOM      9  C   UNL     1      -3.109  -1.682  25.676  0.00  0.00    +0.029 C 
ATOM     10  C   UNL     1      -3.582  -0.014  23.969  0.00  0.00    +0.097 C 
ATOM     11  C   UNL     1      -4.131  -0.650  26.133  0.00  0.00    +0.085 C 
ENDROOT
BRANCH   8  13
ATOM      2  O   UNL     1      -0.904   0.244  23.635  0.00  0.00    -0.439 OA
ATOM      6  N   UNL     1      -0.252  -1.858  24.177  0.00  0.00    -0.213 NA
ATOM     13  C   UNL     1      -1.249  -1.013  24.033  0.00  0.00    +0.201 A 
ATOM     15  C   UNL     1       0.851  -1.105  23.850  0.00  0.00    +0.111 A 
ATOM     16  C   UNL     1       0.454   0.182  23.518  0.00  0.00    +0.155 A 
ATOM     19  C   UNL     1       2.215  -1.427  23.807  0.00  0.00    +0.058 A 
ATOM     20  C   UNL     1       1.318   1.202  23.138  0.00  0.00    +0.050 A 
ATOM     21  C   UNL     1       3.117  -0.423  23.428  0.00  0.00    +0.090 A 
ATOM     22  C   UNL     1       2.675   0.865  23.100  0.00  0.00    +0.030 A 
BRANCH  21   1
ATOM      1  S   UNL     1       4.827  -0.787  23.365  0.00  0.00    -0.003 S 
ATOM      3  O   UNL     1       5.015  -2.204  23.641  0.00  0.00    -0.169 OA
ATOM      4  O   UNL     1       5.360  -0.210  22.141  0.00  0.00    -0.169 OA
BRANCH   1  26
ATOM     26  C   UNL     1       5.517   0.106  24.739  0.00  0.00    +0.168 C 
ATOM     27  C   UNL     1       6.216   1.367  24.285  0.00  0.00    +0.028 C 
ENDBRANCH   1  26
ENDBRANCH  21   1
ENDBRANCH   8  13
BRANCH   5  12
ATOM     12  C   UNL     1      -5.499   1.025  25.035  0.00  0.00    +0.119 C 
BRANCH  12  14
ATOM     14  C   UNL     1      -4.651   2.258  24.876  0.00  0.00    -0.033 A 
ATOM     17  C   UNL     1      -4.250   2.978  26.002  0.00  0.00    +0.007 A 
ATOM     18  C   UNL     1      -4.264   2.680  23.605  0.00  0.00    +0.007 A 
ATOM     23  C   UNL     1      -3.464   4.121  25.855  0.00  0.00    +0.023 A 
ATOM     24  C   UNL     1      -3.478   3.822  23.457  0.00  0.00    +0.023 A 
ATOM     25  C   UNL     1      -3.078   4.543  24.582  0.00  0.00    +0.029 A 
BRANCH  25   7
ATOM      7  N   UNL     1      -2.283   5.699  24.434  0.00  0.00    -0.336 N 
ATOM     28  C   UNL     1      -0.938   5.739  24.974  0.00  0.00    +0.129 C 
ATOM     29  C   UNL     1      -2.796   6.857  23.731  0.00  0.00    +0.129 C 
ENDBRANCH  25   7
ENDBRANCH  12  14
ENDBRANCH   5  12
TORSDOF 6
ENDMDL
MODEL 2
REMARK VINA RESULT:       7.4      1.873      4.606
REMARK  Name = 51137135
REMARK  9 active torsions:
REMARK  status: ('A' for Active; 'I' for Inactive)
REMARK    1  A    between atoms: S_1  and  C_21
REMARK    2  A    between atoms: S_1  and  C_26
REMARK    3  A    between atoms: N_5  and  C_12
REMARK    4  A    between atoms: N_7  and  C_25
REMARK    5  A    between atoms: N_7  and  C_28
REMARK    6  A    between atoms: N_7  and  C_29
REMARK    7  A    between atoms: C_8  and  C_13
REMARK    8  A    between atoms: C_12  and  C_14
REMARK    9  A    between atoms: C_26  and  C_27
REMARK                            x       y       z     vdW  Elec       q    Type
REMARK                         _______ _______ _______ _____ _____    ______ ____
ROOT
ATOM      5  N   UNL     1      -4.209   3.549  25.632  0.00  0.00    -0.297 NA
ATOM      8  C   UNL     1      -1.892   3.678  25.290  0.00  0.00    +0.090 C 
ATOM      9  C   UNL     1      -2.614   4.571  24.267  0.00  0.00    +0.029 C 
ATOM     10  C   UNL     1      -2.991   2.766  25.853  0.00  0.00    +0.097 C 
ATOM     11  C   UNL     1      -4.062   4.101  24.285  0.00  0.00    +0.085 C 
ENDROOT
BRANCH   8  13
ATOM      2  O   UNL     1      -1.003   1.717  24.146  0.00  0.00    -0.439 OA
ATOM      6  N   UNL     1       0.560   3.237  24.766  0.00  0.00    -0.213 NA
ATOM     13  C   UNL     1      -0.713   2.908  24.742  0.00  0.00    +0.201 A 
ATOM     15  C   UNL     1       1.172   2.180  24.135  0.00  0.00    +0.111 A 
ATOM     16  C   UNL     1       0.217   1.249  23.754  0.00  0.00    +0.155 A 
ATOM     19  C   UNL     1       2.520   1.928  23.843  0.00  0.00    +0.058 A 
ATOM     20  C   UNL     1       0.493   0.059  23.091  0.00  0.00    +0.050 A 
ATOM     21  C   UNL     1       2.837   0.738  23.174  0.00  0.00    +0.090 A 
ATOM     22  C   UNL     1       1.843  -0.177  22.807  0.00  0.00    +0.030 A 
BRANCH  21   1
ATOM      1  S   UNL     1       4.509   0.390  22.791  0.00  0.00    -0.003 S 
ATOM      3  O   UNL     1       4.639   0.243  21.349  0.00  0.00    -0.169 OA
ATOM      4  O   UNL     1       5.337   1.354  23.499  0.00  0.00    -0.169 OA
BRANCH   1  26
ATOM     26  C   UNL     1       4.799  -1.212  23.505  0.00  0.00    +0.168 C 
ATOM     27  C   UNL     1       5.843  -1.151  24.598  0.00  0.00    +0.028 C 
ENDBRANCH   1  26
ENDBRANCH  21   1
ENDBRANCH   8  13
BRANCH   5  12
ATOM     12  C   UNL     1      -5.417   2.750  25.775  0.00  0.00    +0.119 C 
BRANCH  12  14
ATOM     14  C   UNL     1      -5.209   1.332  25.316  0.00  0.00    -0.033 A 
ATOM     17  C   UNL     1      -6.110   0.749  24.424  0.00  0.00    +0.007 A 
ATOM     18  C   UNL     1      -4.116   0.601  25.780  0.00  0.00    +0.007 A 
ATOM     23  C   UNL     1      -5.917  -0.566  23.998  0.00  0.00    +0.023 A 
ATOM     24  C   UNL     1      -3.923  -0.713  25.355  0.00  0.00    +0.023 A 
ATOM     25  C   UNL     1      -4.824  -1.296  24.463  0.00  0.00    +0.029 A 
BRANCH  25   7
ATOM      7  N   UNL     1      -4.629  -2.625  24.032  0.00  0.00    -0.336 N 
ATOM     28  C   UNL     1      -3.452  -3.365  24.444  0.00  0.00    +0.129 C 
ATOM     29  C   UNL     1      -5.607  -3.270  23.180  0.00  0.00    +0.129 C 
ENDBRANCH  25   7
ENDBRANCH  12  14
ENDBRANCH   5  12
TORSDOF 6
ENDMDL
MODEL 3
REMARK VINA RESULT:      10.8     14.651     16.032
REMARK  Name = 51137135
REMARK  9 active torsions:
REMARK  status: ('A' for Active; 'I' for Inactive)
REMARK    1  A    between atoms: S_1  and  C_21
REMARK    2  A    between atoms: S_1  and  C_26
REMARK    3  A    between atoms: N_5  and  C_12
REMARK    4  A    between atoms: N_7  and  C_25
REMARK    5  A    between atoms: N_7  and  C_28
REMARK    6  A    between atoms: N_7  and  C_29
REMARK    7  A    between atoms: C_8  and  C_13
REMARK    8  A    between atoms: C_12  and  C_14
REMARK    9  A    between atoms: C_26  and  C_27
REMARK                            x       y       z     vdW  Elec       q    Type
REMARK                         _______ _______ _______ _____ _____    ______ ____
ROOT
ATOM      5  N   UNL     1      -3.448  -9.943  11.931  0.00  0.00    -0.297 NA
ATOM      8  C   UNL     1      -1.734  -8.535  11.170  0.00  0.00    +0.090 C 
ATOM      9  C   UNL     1      -1.963  -9.664  10.151  0.00  0.00    +0.029 C 
ATOM     10  C   UNL     1      -2.440  -9.014  12.446  0.00  0.00    +0.097 C 
ATOM     11  C   UNL     1      -2.752 -10.724  10.907  0.00  0.00    +0.085 C 
ENDROOT
BRANCH   8  13
ATOM      2  O   UNL     1      -0.057  -6.921  11.895  0.00  0.00    -0.439 OA
ATOM      6  N   UNL     1       0.786  -8.901  11.185  0.00  0.00    -0.213 NA
ATOM     13  C   UNL     1      -0.286  -8.170  11.401  0.00  0.00    +0.201 A 
ATOM     15  C   UNL     1       1.815  -8.074  11.566  0.00  0.00    +0.111 A 
ATOM     16  C   UNL     1       1.302  -6.861  12.001  0.00  0.00    +0.155 A 
ATOM     19  C   UNL     1       3.205  -8.266  11.577  0.00  0.00    +0.058 A 
ATOM     20  C   UNL     1       2.069  -5.796  12.458  0.00  0.00    +0.050 A 
ATOM     21  C   UNL     1       4.011  -7.214  12.032  0.00  0.00    +0.090 A 
ATOM     22  C   UNL     1       3.453  -6.004  12.463  0.00  0.00    +0.030 A 
BRANCH  21   1
ATOM      1  S   UNL     1       5.748  -7.418  12.062  0.00  0.00    -0.003 S 
ATOM      3  O   UNL     1       6.061  -8.816  11.808  0.00  0.00    -0.169 OA
ATOM      4  O   UNL     1       6.333  -6.380  11.225  0.00  0.00    -0.169 OA
BRANCH   1  26
ATOM     26  C   UNL     1       6.201  -7.082  13.748  0.00  0.00    +0.168 C 
ATOM     27  C   UNL     1       7.208  -5.957  13.838  0.00  0.00    +0.028 C 
ENDBRANCH   1  26
ENDBRANCH  21   1
ENDBRANCH   8  13
BRANCH   5  12
ATOM     12  C   UNL     1      -4.017 -10.781  12.976  0.00  0.00    +0.119 C 
BRANCH  12  14
ATOM     14  C   UNL     1      -5.483 -10.507  13.179  0.00  0.00    -0.033 A 
ATOM     17  C   UNL     1      -6.352 -10.521  12.087  0.00  0.00    +0.007 A 
ATOM     18  C   UNL     1      -5.973 -10.241  14.457  0.00  0.00    +0.007 A 
ATOM     23  C   UNL     1      -7.711 -10.268  12.276  0.00  0.00    +0.023 A 
ATOM     24  C   UNL     1      -7.331  -9.987  14.645  0.00  0.00    +0.023 A 
ATOM     25  C   UNL     1      -8.200 -10.001  13.554  0.00  0.00    +0.029 A 
BRANCH  25   7
ATOM      7  N   UNL     1      -9.575  -9.745  13.744  0.00  0.00    -0.336 N 
ATOM     28  C   UNL     1     -10.011  -8.783  14.737  0.00  0.00    +0.129 C 
ATOM     29  C   UNL     1     -10.566 -10.434  12.944  0.00  0.00    +0.129 C 
ENDBRANCH  25   7
ENDBRANCH  12  14
ENDBRANCH   5  12
TORSDOF 6
ENDMDL
