MODEL 1
REMARK VINA RESULT:      22.6      0.000      0.000
REMARK  Name = 11882990
REMARK  14 active torsions:
REMARK  status: ('A' for Active; 'I' for Inactive)
REMARK    1  A    between atoms: O_2  and  C_15
REMARK    2  A    between atoms: O_3  and  C_20
REMARK    3  A    between atoms: N_8  and  C_26
REMARK    4  A    between atoms: C_10  and  C_18
REMARK    5  A    between atoms: C_12  and  C_20
REMARK    6  A    between atoms: C_12  and  C_21
REMARK    7  A    between atoms: C_13  and  C_23
REMARK    8  A    between atoms: C_23  and  C_24
REMARK    9  A    between atoms: C_26  and  C_28
REMARK   10  A    between atoms: C_27  and  C_29
REMARK   11  A    between atoms: C_35  and  C_38
REMARK   12  A    between atoms: C_38  and  C_39
REMARK   13  A    between atoms: C_38  and  C_40
REMARK   14  A    between atoms: C_38  and  C_41
REMARK                            x       y       z     vdW  Elec       q    Type
REMARK                         _______ _______ _______ _____ _____    ______ ____
ROOT
ATOM      1  S   UNL     1       0.683   2.315  25.815  0.00  0.00    -0.057 S 
ATOM      5  O   UNL     1       2.400   0.530  21.874  0.00  0.00    -0.270 OA
ATOM      7  N   UNL     1       0.102   1.598  23.398  0.00  0.00    -0.229 NA
ATOM      9  N   UNL     1       2.391   1.313  24.097  0.00  0.00    -0.261 N 
ATOM     10  C   UNL     1      -3.598   2.309  24.216  0.00  0.00    -0.019 C 
ATOM     11  C   UNL     1      -3.231   3.464  25.249  0.00  0.00    +0.011 C 
ATOM     12  C   UNL     1      -4.422   4.109  26.057  0.00  0.00    +0.021 C 
ATOM     13  C   UNL     1      -2.359   2.121  23.224  0.00  0.00    +0.054 C 
ATOM     14  C   UNL     1      -4.832   2.739  23.380  0.00  0.00    +0.010 C 
ATOM     15  C   UNL     1      -5.586   4.435  25.079  0.00  0.00    +0.123 C 
ATOM     16  C   UNL     1      -2.014   3.067  26.136  0.00  0.00    +0.049 C 
ATOM     17  C   UNL     1      -5.998   3.246  24.218  0.00  0.00    +0.032 C 
ATOM     18  C   UNL     1      -3.913   0.961  24.908  0.00  0.00    +0.012 C 
ATOM     19  C   UNL     1      -1.061   2.064  23.986  0.00  0.00    +0.058 A 
ATOM     21  C   UNL     1      -3.947   5.454  26.674  0.00  0.00    +0.016 C 
ATOM     22  C   UNL     1      -0.923   2.510  25.284  0.00  0.00    +0.015 A 
ATOM     25  C   UNL     1       1.082   1.678  24.272  0.00  0.00    +0.165 A 
ATOM     27  C   UNL     1       2.964   0.771  22.935  0.00  0.00    +0.250 C 
ATOM     45  H   UNL     1       2.976   1.506  24.903  0.00  0.00    +0.157 HD
ENDROOT
BRANCH  27  29
ATOM     29  C   UNL     1       4.423   0.495  23.016  0.00  0.00    +0.037 A 
ATOM     31  C   UNL     1       5.054  -0.233  22.006  0.00  0.00    +0.013 A 
ATOM     32  C   UNL     1       5.163   0.965  24.103  0.00  0.00    +0.013 A 
ATOM     35  C   UNL     1       7.161  -0.020  23.168  0.00  0.00    -0.042 A 
ATOM     36  C   UNL     1       6.422  -0.490  22.082  0.00  0.00    +0.005 A 
ATOM     37  C   UNL     1       6.531   0.707  24.178  0.00  0.00    +0.005 A 
BRANCH  35  38
ATOM     38  C   UNL     1       8.624  -0.296  23.250  0.00  0.00    -0.013 C 
ATOM     39  C   UNL     1       9.019  -1.523  22.371  0.00  0.00    +0.015 C 
ATOM     40  C   UNL     1       9.061  -0.607  24.715  0.00  0.00    +0.015 C 
ATOM     41  C   UNL     1       9.555   0.870  22.778  0.00  0.00    +0.015 C 
ENDBRANCH  35  38
ENDBRANCH  27  29
BRANCH  15   2
ATOM      2  O   UNL     1      -6.729   4.900  25.796  0.00  0.00    -0.391 OA
ATOM     42  H   UNL     1      -7.323   5.331  25.158  0.00  0.00    +0.210 HD
ENDBRANCH  15   2
BRANCH  12  20
ATOM     20  C   UNL     1      -4.923   3.260  27.247  0.00  0.00    +0.165 C 
BRANCH  20   3
ATOM      3  O   UNL     1      -6.070   2.560  26.825  0.00  0.00    -0.394 OA
ATOM     43  H   UNL     1      -6.796   3.203  26.759  0.00  0.00    +0.209 HD
ENDBRANCH  20   3
ENDBRANCH  12  20
BRANCH  13  23
ATOM     23  C   UNL     1      -2.494   0.942  22.253  0.00  0.00    +0.106 C 
BRANCH  23  24
ATOM      4  O   UNL     1      -3.721  -0.908  23.218  0.00  0.00    -0.276 OA
ATOM      8  N   UNL     1      -1.400  -0.889  23.329  0.00  0.00    -0.308 N 
ATOM     24  C   UNL     1      -2.640  -0.376  22.978  0.00  0.00    +0.214 C 
ATOM     44  H   UNL     1      -0.560  -0.378  23.070  0.00  0.00    +0.149 HD
BRANCH   8  26
ATOM     26  C   UNL     1      -1.234  -2.138  24.037  0.00  0.00    +0.178 C 
BRANCH  26  28
ATOM      6  O   UNL     1      -1.581  -1.233  26.264  0.00  0.00    -0.466 OA
ATOM     28  C   UNL     1      -2.019  -2.100  25.312  0.00  0.00    +0.122 A 
ATOM     30  C   UNL     1      -3.132  -2.777  25.752  0.00  0.00    +0.046 A 
ATOM     33  C   UNL     1      -3.396  -2.295  27.057  0.00  0.00    +0.041 A 
ATOM     34  C   UNL     1      -2.425  -1.358  27.321  0.00  0.00    +0.195 A 
ENDBRANCH  26  28
ENDBRANCH   8  26
ENDBRANCH  23  24
ENDBRANCH  13  23
TORSDOF 9
ENDMDL
