MODEL 1
REMARK VINA RESULT:       8.1      0.000      0.000
REMARK  Name = 11882029
REMARK  9 active torsions:
REMARK  status: ('A' for Active; 'I' for Inactive)
REMARK    1  A    between atoms: N_6  and  C_12
REMARK    2  A    between atoms: N_7  and  C_16
REMARK    3  A    between atoms: N_8  and  C_25
REMARK    4  A    between atoms: N_9  and  C_34
REMARK    5  A    between atoms: C_13  and  C_21
REMARK    6  A    between atoms: C_23  and  C_26
REMARK    7  A    between atoms: C_25  and  C_27
REMARK    8  A    between atoms: C_25  and  C_30
REMARK    9  A    between atoms: C_27  and  C_29
REMARK                            x       y       z     vdW  Elec       q    Type
REMARK                         _______ _______ _______ _____ _____    ______ ____
ROOT
ATOM      2  O   UNL     1      -2.948   0.858  22.960  0.00  0.00    -0.268 OA
ATOM      5  N   UNL     1      -2.117   2.812  23.862  0.00  0.00    -0.283 N 
ATOM     12  C   UNL     1      -0.840   4.682  24.591  0.00  0.00    +0.094 C 
ATOM     13  C   UNL     1      -0.982   2.906  22.956  0.00  0.00    +0.164 C 
ATOM     14  C   UNL     1      -0.416   4.308  23.169  0.00  0.00    +0.056 C 
ATOM     15  C   UNL     1      -2.173   3.962  24.768  0.00  0.00    +0.131 C 
ATOM     23  C   UNL     1      -3.070   1.794  23.751  0.00  0.00    +0.264 C 
ENDROOT
BRANCH  12   6
ATOM      3  O   UNL     1      -1.086   2.475  26.418  0.00  0.00    -0.253 OA
ATOM      6  N   UNL     1       0.123   4.270  25.580  0.00  0.00    -0.295 N 
ATOM      7  N   UNL     1       1.002   2.999  27.287  0.00  0.00    -0.297 N 
ATOM     24  C   UNL     1      -0.079   3.182  26.429  0.00  0.00    +0.300 C 
ATOM     41  H   UNL     1       0.959   4.831  25.708  0.00  0.00    +0.151 HD
ATOM     42  H   UNL     1       1.750   3.686  27.260  0.00  0.00    +0.151 HD
BRANCH   7  16
ATOM     16  C   UNL     1       1.061   1.945  28.274  0.00  0.00    +0.074 C 
ATOM     17  C   UNL     1       2.457   1.850  28.897  0.00  0.00    +0.022 C 
ATOM     18  C   UNL     1      -0.016   2.133  29.347  0.00  0.00    +0.022 C 
ATOM     19  C   UNL     1       2.760   3.021  29.833  0.00  0.00    +0.002 C 
ATOM     20  C   UNL     1       0.291   3.304  30.283  0.00  0.00    +0.002 C 
ATOM     22  C   UNL     1       1.681   3.182  30.900  0.00  0.00    +0.000 C 
ENDBRANCH   7  16
ENDBRANCH  12   6
BRANCH  23  26
ATOM      9  N   UNL     1      -4.921   3.022  24.906  0.00  0.00    -0.346 N 
ATOM     26  C   UNL     1      -4.216   1.876  24.647  0.00  0.00    +0.104 A 
ATOM     28  C   UNL     1      -4.786   0.857  25.377  0.00  0.00    +0.032 A 
ATOM     31  C   UNL     1      -5.933   2.749  25.789  0.00  0.00    +0.086 A 
ATOM     32  C   UNL     1      -5.871   1.408  26.100  0.00  0.00    +0.020 A 
ATOM     34  C   UNL     1      -4.654   4.326  24.341  0.00  0.00    +0.149 C 
ENDBRANCH  23  26
BRANCH  13  21
ATOM      1  O   UNL     1       0.903   2.054  24.149  0.00  0.00    -0.274 OA
ATOM      8  N   UNL     1      -0.171   0.679  22.607  0.00  0.00    -0.302 N 
ATOM     21  C   UNL     1       0.019   1.850  23.320  0.00  0.00    +0.234 C 
ATOM     43  H   UNL     1      -0.977   0.602  21.992  0.00  0.00    +0.150 HD
BRANCH   8  25
ATOM     25  C   UNL     1       0.674  -0.483  22.756  0.00  0.00    +0.163 C 
BRANCH  25  30
ATOM      4  O   UNL     1       2.257  -0.162  20.941  0.00  0.00    -0.274 OA
ATOM     11  N   UNL     1       2.949   0.262  23.090  0.00  0.00    -0.328 N 
ATOM     30  C   UNL     1       2.025  -0.136  22.147  0.00  0.00    +0.231 C 
ATOM     45  H   UNL     1       3.887   0.535  22.816  0.00  0.00    +0.145 HD
ATOM     46  H   UNL     1       2.735   0.300  24.081  0.00  0.00    +0.145 HD
ENDBRANCH  25  30
BRANCH  25  27
ATOM     27  C   UNL     1       0.837  -0.899  24.223  0.00  0.00    +0.069 C 
BRANCH  27  29
ATOM     10  N   UNL     1      -2.088  -0.671  26.439  0.00  0.00    -0.360 N 
ATOM     29  C   UNL     1      -0.471  -1.004  24.955  0.00  0.00    -0.020 A 
ATOM     33  C   UNL     1      -1.563  -1.852  24.620  0.00  0.00    +0.003 A 
ATOM     35  C   UNL     1      -0.823  -0.291  26.077  0.00  0.00    +0.087 A 
ATOM     36  C   UNL     1      -2.565  -1.624  25.566  0.00  0.00    +0.047 A 
ATOM     37  C   UNL     1      -1.798  -2.795  23.599  0.00  0.00    +0.010 A 
ATOM     38  C   UNL     1      -3.792  -2.293  25.543  0.00  0.00    +0.026 A 
ATOM     39  C   UNL     1      -3.022  -3.472  23.563  0.00  0.00    +0.001 A 
ATOM     40  C   UNL     1      -4.003  -3.224  24.521  0.00  0.00    +0.002 A 
ATOM     44  H   UNL     1      -2.597  -0.306  27.230  0.00  0.00    +0.165 HD
ENDBRANCH  27  29
ENDBRANCH  25  27
ENDBRANCH   8  25
ENDBRANCH  13  21
TORSDOF 8
ENDMDL
MODEL 2
REMARK VINA RESULT:       9.2      1.743      3.981
REMARK  Name = 11882029
REMARK  9 active torsions:
REMARK  status: ('A' for Active; 'I' for Inactive)
REMARK    1  A    between atoms: N_6  and  C_12
REMARK    2  A    between atoms: N_7  and  C_16
REMARK    3  A    between atoms: N_8  and  C_25
REMARK    4  A    between atoms: N_9  and  C_34
REMARK    5  A    between atoms: C_13  and  C_21
REMARK    6  A    between atoms: C_23  and  C_26
REMARK    7  A    between atoms: C_25  and  C_27
REMARK    8  A    between atoms: C_25  and  C_30
REMARK    9  A    between atoms: C_27  and  C_29
REMARK                            x       y       z     vdW  Elec       q    Type
REMARK                         _______ _______ _______ _____ _____    ______ ____
ROOT
ATOM      2  O   UNL     1      -3.109   0.772  23.108  0.00  0.00    -0.268 OA
ATOM      5  N   UNL     1      -2.578   2.817  24.035  0.00  0.00    -0.283 N 
ATOM     12  C   UNL     1      -1.595   4.849  24.785  0.00  0.00    +0.094 C 
ATOM     13  C   UNL     1      -1.478   3.097  23.123  0.00  0.00    +0.164 C 
ATOM     14  C   UNL     1      -1.131   4.566  23.354  0.00  0.00    +0.056 C 
ATOM     15  C   UNL     1      -2.801   3.931  24.959  0.00  0.00    +0.131 C 
ATOM     23  C   UNL     1      -3.365   1.667  23.914  0.00  0.00    +0.264 C 
ENDROOT
BRANCH  12   6
ATOM      3  O   UNL     1      -1.042   2.320  26.035  0.00  0.00    -0.253 OA
ATOM      6  N   UNL     1      -0.571   4.575  25.761  0.00  0.00    -0.295 N 
ATOM      7  N   UNL     1       0.677   3.319  27.232  0.00  0.00    -0.297 N 
ATOM     24  C   UNL     1      -0.373   3.312  26.318  0.00  0.00    +0.300 C 
ATOM     41  H   UNL     1      -0.009   5.347  26.106  0.00  0.00    +0.151 HD
ATOM     42  H   UNL     1       1.115   4.211  27.444  0.00  0.00    +0.151 HD
BRANCH   7  16
ATOM     16  C   UNL     1       1.102   2.144  27.959  0.00  0.00    +0.074 C 
ATOM     17  C   UNL     1       2.595   2.214  28.296  0.00  0.00    +0.022 C 
ATOM     18  C   UNL     1       0.256   1.941  29.220  0.00  0.00    +0.022 C 
ATOM     19  C   UNL     1       2.901   3.247  29.381  0.00  0.00    +0.002 C 
ATOM     20  C   UNL     1       0.567   2.974  30.304  0.00  0.00    +0.002 C 
ATOM     22  C   UNL     1       2.056   3.018  30.631  0.00  0.00    +0.000 C 
ENDBRANCH   7  16
ENDBRANCH  12   6
BRANCH  23  26
ATOM      9  N   UNL     1      -4.752   0.485  25.630  0.00  0.00    -0.346 N 
ATOM     26  C   UNL     1      -4.502   1.560  24.819  0.00  0.00    +0.104 A 
ATOM     28  C   UNL     1      -5.503   2.483  25.022  0.00  0.00    +0.032 A 
ATOM     31  C   UNL     1      -5.897   0.708  26.349  0.00  0.00    +0.086 A 
ATOM     32  C   UNL     1      -6.387   1.945  25.989  0.00  0.00    +0.020 A 
ATOM     34  C   UNL     1      -3.942  -0.710  25.728  0.00  0.00    +0.149 C 
ENDBRANCH  23  26
BRANCH  13  21
ATOM      1  O   UNL     1       0.820   2.633  23.577  0.00  0.00    -0.274 OA
ATOM      8  N   UNL     1      -0.711   0.880  23.604  0.00  0.00    -0.302 N 
ATOM     21  C   UNL     1      -0.325   2.201  23.465  0.00  0.00    +0.234 C 
ATOM     43  H   UNL     1      -1.699   0.646  23.553  0.00  0.00    +0.150 HD
BRANCH   8  25
ATOM     25  C   UNL     1       0.215  -0.187  23.910  0.00  0.00    +0.163 C 
BRANCH  25  30
ATOM      4  O   UNL     1      -1.325  -2.049  23.653  0.00  0.00    -0.274 OA
ATOM     11  N   UNL     1      -0.431  -1.642  25.730  0.00  0.00    -0.328 N 
ATOM     30  C   UNL     1      -0.610  -1.373  24.389  0.00  0.00    +0.231 C 
ATOM     45  H   UNL     1      -0.912  -2.417  26.174  0.00  0.00    +0.145 HD
ATOM     46  H   UNL     1       0.181  -1.087  26.320  0.00  0.00    +0.145 HD
ENDBRANCH  25  30
BRANCH  25  27
ATOM     27  C   UNL     1       1.068  -0.581  22.698  0.00  0.00    +0.069 C 
BRANCH  27  29
ATOM     10  N   UNL     1       4.066   1.521  22.372  0.00  0.00    -0.360 N 
ATOM     29  C   UNL     1       2.425   0.061  22.698  0.00  0.00    -0.020 A 
ATOM     33  C   UNL     1       3.623  -0.489  23.233  0.00  0.00    +0.003 A 
ATOM     35  C   UNL     1       2.729   1.298  22.176  0.00  0.00    +0.087 A 
ATOM     36  C   UNL     1       4.638   0.446  23.015  0.00  0.00    +0.047 A 
ATOM     37  C   UNL     1       3.944  -1.698  23.882  0.00  0.00    +0.010 A 
ATOM     38  C   UNL     1       5.961   0.233  23.416  0.00  0.00    +0.026 A 
ATOM     39  C   UNL     1       5.264  -1.925  24.290  0.00  0.00    +0.001 A 
ATOM     40  C   UNL     1       6.255  -0.974  24.059  0.00  0.00    +0.002 A 
ATOM     44  H   UNL     1       4.561   2.353  22.086  0.00  0.00    +0.165 HD
ENDBRANCH  27  29
ENDBRANCH  25  27
ENDBRANCH   8  25
ENDBRANCH  13  21
TORSDOF 8
ENDMDL
MODEL 3
REMARK VINA RESULT:      10.0      2.268      5.161
REMARK  Name = 11882029
REMARK  9 active torsions:
REMARK  status: ('A' for Active; 'I' for Inactive)
REMARK    1  A    between atoms: N_6  and  C_12
REMARK    2  A    between atoms: N_7  and  C_16
REMARK    3  A    between atoms: N_8  and  C_25
REMARK    4  A    between atoms: N_9  and  C_34
REMARK    5  A    between atoms: C_13  and  C_21
REMARK    6  A    between atoms: C_23  and  C_26
REMARK    7  A    between atoms: C_25  and  C_27
REMARK    8  A    between atoms: C_25  and  C_30
REMARK    9  A    between atoms: C_27  and  C_29
REMARK                            x       y       z     vdW  Elec       q    Type
REMARK                         _______ _______ _______ _____ _____    ______ ____
ROOT
ATOM      2  O   UNL     1      -4.030   3.242  22.533  0.00  0.00    -0.268 OA
ATOM      5  N   UNL     1      -2.481   3.227  24.242  0.00  0.00    -0.283 N 
ATOM     12  C   UNL     1      -0.602   2.981  25.680  0.00  0.00    +0.094 C 
ATOM     13  C   UNL     1      -1.324   3.061  23.374  0.00  0.00    +0.164 C 
ATOM     14  C   UNL     1      -0.112   3.315  24.269  0.00  0.00    +0.056 C 
ATOM     15  C   UNL     1      -2.080   3.355  25.645  0.00  0.00    +0.131 C 
ATOM     23  C   UNL     1      -3.775   3.365  23.731  0.00  0.00    +0.264 C 
ENDROOT
BRANCH  12   6
ATOM      3  O   UNL     1      -2.620   0.935  25.747  0.00  0.00    -0.253 OA
ATOM      6  N   UNL     1      -0.412   1.592  26.015  0.00  0.00    -0.295 N 
ATOM      7  N   UNL     1      -1.001  -0.603  26.380  0.00  0.00    -0.297 N 
ATOM     24  C   UNL     1      -1.453   0.665  26.022  0.00  0.00    +0.300 C 
ATOM     41  H   UNL     1       0.508   1.287  26.319  0.00  0.00    +0.151 HD
ATOM     42  H   UNL     1      -0.029  -0.699  26.659  0.00  0.00    +0.151 HD
BRANCH   7  16
ATOM     16  C   UNL     1      -1.867  -1.757  26.469  0.00  0.00    +0.074 C 
ATOM     17  C   UNL     1      -3.339  -1.352  26.341  0.00  0.00    +0.022 C 
ATOM     18  C   UNL     1      -1.488  -2.813  25.425  0.00  0.00    +0.022 C 
ATOM     19  C   UNL     1      -3.708  -0.930  24.918  0.00  0.00    +0.002 C 
ATOM     20  C   UNL     1      -1.860  -2.388  24.004  0.00  0.00    +0.002 C 
ATOM     22  C   UNL     1      -3.332  -2.001  23.898  0.00  0.00    +0.000 C 
ENDBRANCH   7  16
ENDBRANCH  12   6
BRANCH  23  26
ATOM      9  N   UNL     1      -5.664   2.685  25.227  0.00  0.00    -0.346 N 
ATOM     26  C   UNL     1      -4.830   3.636  24.699  0.00  0.00    +0.104 A 
ATOM     28  C   UNL     1      -5.177   4.851  25.246  0.00  0.00    +0.032 A 
ATOM     31  C   UNL     1      -6.536   3.276  26.103  0.00  0.00    +0.086 A 
ATOM     32  C   UNL     1      -6.257   4.624  26.134  0.00  0.00    +0.020 A 
ATOM     34  C   UNL     1      -5.639   1.272  24.920  0.00  0.00    +0.149 C 
ENDBRANCH  23  26
BRANCH  13  21
ATOM      1  O   UNL     1      -2.326   1.157  22.339  0.00  0.00    -0.274 OA
ATOM      8  N   UNL     1      -0.090   1.047  22.978  0.00  0.00    -0.302 N 
ATOM     21  C   UNL     1      -1.321   1.663  22.831  0.00  0.00    +0.234 C 
ATOM     43  H   UNL     1       0.691   1.586  23.342  0.00  0.00    +0.150 HD
BRANCH   8  25
ATOM     25  C   UNL     1       0.170  -0.311  22.557  0.00  0.00    +0.163 C 
BRANCH  25  30
ATOM      4  O   UNL     1       1.487  -0.648  20.542  0.00  0.00    -0.274 OA
ATOM     11  N   UNL     1      -0.645   0.184  20.334  0.00  0.00    -0.328 N 
ATOM     30  C   UNL     1       0.437  -0.271  21.059  0.00  0.00    +0.231 C 
ATOM     45  H   UNL     1      -0.605   0.247  19.323  0.00  0.00    +0.145 HD
ATOM     46  H   UNL     1      -1.514   0.470  20.774  0.00  0.00    +0.145 HD
ENDBRANCH  25  30
BRANCH  25  27
ATOM     27  C   UNL     1       1.360  -0.932  23.297  0.00  0.00    +0.069 C 
BRANCH  27  29
ATOM     10  N   UNL     1       3.965   1.634  22.914  0.00  0.00    -0.360 N 
ATOM     29  C   UNL     1       2.604  -0.092  23.222  0.00  0.00    -0.020 A 
ATOM     33  C   UNL     1       3.931  -0.516  23.508  0.00  0.00    +0.003 A 
ATOM     35  C   UNL     1       2.657   1.234  22.859  0.00  0.00    +0.087 A 
ATOM     36  C   UNL     1       4.766   0.585  23.307  0.00  0.00    +0.047 A 
ATOM     37  C   UNL     1       4.505  -1.736  23.920  0.00  0.00    +0.010 A 
ATOM     38  C   UNL     1       6.151   0.528  23.498  0.00  0.00    +0.026 A 
ATOM     39  C   UNL     1       5.889  -1.808  24.116  0.00  0.00    +0.001 A 
ATOM     40  C   UNL     1       6.697  -0.693  23.908  0.00  0.00    +0.002 A 
ATOM     44  H   UNL     1       4.296   2.563  22.697  0.00  0.00    +0.165 HD
ENDBRANCH  27  29
ENDBRANCH  25  27
ENDBRANCH   8  25
ENDBRANCH  13  21
TORSDOF 8
ENDMDL
MODEL 4
REMARK VINA RESULT:      10.5      2.444      7.153
REMARK  Name = 11882029
REMARK  9 active torsions:
REMARK  status: ('A' for Active; 'I' for Inactive)
REMARK    1  A    between atoms: N_6  and  C_12
REMARK    2  A    between atoms: N_7  and  C_16
REMARK    3  A    between atoms: N_8  and  C_25
REMARK    4  A    between atoms: N_9  and  C_34
REMARK    5  A    between atoms: C_13  and  C_21
REMARK    6  A    between atoms: C_23  and  C_26
REMARK    7  A    between atoms: C_25  and  C_27
REMARK    8  A    between atoms: C_25  and  C_30
REMARK    9  A    between atoms: C_27  and  C_29
REMARK                            x       y       z     vdW  Elec       q    Type
REMARK                         _______ _______ _______ _____ _____    ______ ____
ROOT
ATOM      2  O   UNL     1       3.868   2.473  23.197  0.00  0.00    -0.268 OA
ATOM      5  N   UNL     1       2.506   0.631  22.928  0.00  0.00    -0.283 N 
ATOM     12  C   UNL     1       0.745  -0.962  22.783  0.00  0.00    +0.094 C 
ATOM     13  C   UNL     1       1.281   1.396  22.743  0.00  0.00    +0.164 C 
ATOM     14  C   UNL     1       0.248   0.384  22.249  0.00  0.00    +0.056 C 
ATOM     15  C   UNL     1       2.262  -0.807  22.791  0.00  0.00    +0.131 C 
ATOM     23  C   UNL     1       3.749   1.252  23.088  0.00  0.00    +0.264 C 
ENDROOT
BRANCH  12   6
ATOM      3  O   UNL     1      -2.019  -1.205  23.537  0.00  0.00    -0.253 OA
ATOM      6  N   UNL     1       0.232  -1.257  24.097  0.00  0.00    -0.295 N 
ATOM      7  N   UNL     1      -1.356  -1.648  25.717  0.00  0.00    -0.297 N 
ATOM     24  C   UNL     1      -1.131  -1.356  24.375  0.00  0.00    +0.300 C 
ATOM     41  H   UNL     1       0.887  -1.334  24.869  0.00  0.00    +0.151 HD
ATOM     42  H   UNL     1      -0.551  -1.679  26.337  0.00  0.00    +0.151 HD
BRANCH   7  16
ATOM     16  C   UNL     1      -2.677  -1.807  26.283  0.00  0.00    +0.074 C 
ATOM     17  C   UNL     1      -3.625  -0.712  25.784  0.00  0.00    +0.022 C 
ATOM     18  C   UNL     1      -3.236  -3.203  25.992  0.00  0.00    +0.022 C 
ATOM     19  C   UNL     1      -4.010  -0.897  24.315  0.00  0.00    +0.002 C 
ATOM     20  C   UNL     1      -3.622  -3.383  24.523  0.00  0.00    +0.002 C 
ATOM     22  C   UNL     1      -4.575  -2.289  24.053  0.00  0.00    +0.000 C 
ENDBRANCH   7  16
ENDBRANCH  12   6
BRANCH  23  26
ATOM      9  N   UNL     1       5.566   0.036  24.307  0.00  0.00    -0.346 N 
ATOM     26  C   UNL     1       4.910   0.374  23.153  0.00  0.00    +0.104 A 
ATOM     28  C   UNL     1       5.545  -0.257  22.107  0.00  0.00    +0.032 A 
ATOM     31  C   UNL     1       6.609  -0.803  24.013  0.00  0.00    +0.086 A 
ATOM     32  C   UNL     1       6.620  -1.001  22.650  0.00  0.00    +0.020 A 
ATOM     34  C   UNL     1       5.223   0.483  25.639  0.00  0.00    +0.149 C 
ENDBRANCH  23  26
BRANCH  13  21
ATOM      1  O   UNL     1       1.090   1.417  25.123  0.00  0.00    -0.274 OA
ATOM      8  N   UNL     1       0.242   3.212  23.907  0.00  0.00    -0.302 N 
ATOM     21  C   UNL     1       0.877   1.992  24.059  0.00  0.00    +0.234 C 
ATOM     43  H   UNL     1       0.178   3.624  22.980  0.00  0.00    +0.150 HD
BRANCH   8  25
ATOM     25  C   UNL     1      -0.266   3.982  25.020  0.00  0.00    +0.163 C 
BRANCH  25  30
ATOM      4  O   UNL     1      -1.540   6.051  25.058  0.00  0.00    -0.274 OA
ATOM     11  N   UNL     1      -0.239   5.596  23.220  0.00  0.00    -0.328 N 
ATOM     30  C   UNL     1      -0.773   5.302  24.457  0.00  0.00    +0.231 C 
ATOM     45  H   UNL     1      -0.484   6.455  22.738  0.00  0.00    +0.145 HD
ATOM     46  H   UNL     1       0.411   4.977  22.746  0.00  0.00    +0.145 HD
ENDBRANCH  25  30
BRANCH  25  27
ATOM     27  C   UNL     1      -1.388   3.253  25.769  0.00  0.00    +0.069 C 
BRANCH  27  29
ATOM     10  N   UNL     1      -3.633   2.144  23.077  0.00  0.00    -0.360 N 
ATOM     29  C   UNL     1      -2.509   2.817  24.870  0.00  0.00    -0.020 A 
ATOM     33  C   UNL     1      -3.878   2.672  25.231  0.00  0.00    +0.003 A 
ATOM     35  C   UNL     1      -2.390   2.485  23.540  0.00  0.00    +0.087 A 
ATOM     36  C   UNL     1      -4.561   2.249  24.089  0.00  0.00    +0.047 A 
ATOM     37  C   UNL     1      -4.604   2.861  26.424  0.00  0.00    +0.010 A 
ATOM     38  C   UNL     1      -5.938   2.005  24.080  0.00  0.00    +0.026 A 
ATOM     39  C   UNL     1      -5.982   2.621  26.431  0.00  0.00    +0.001 A 
ATOM     40  C   UNL     1      -6.637   2.200  25.275  0.00  0.00    +0.002 A 
ATOM     44  H   UNL     1      -3.839   1.857  22.131  0.00  0.00    +0.165 HD
ENDBRANCH  27  29
ENDBRANCH  25  27
ENDBRANCH   8  25
ENDBRANCH  13  21
TORSDOF 8
ENDMDL
MODEL 5
REMARK VINA RESULT:      10.9      2.450      5.323
REMARK  Name = 11882029
REMARK  9 active torsions:
REMARK  status: ('A' for Active; 'I' for Inactive)
REMARK    1  A    between atoms: N_6  and  C_12
REMARK    2  A    between atoms: N_7  and  C_16
REMARK    3  A    between atoms: N_8  and  C_25
REMARK    4  A    between atoms: N_9  and  C_34
REMARK    5  A    between atoms: C_13  and  C_21
REMARK    6  A    between atoms: C_23  and  C_26
REMARK    7  A    between atoms: C_25  and  C_27
REMARK    8  A    between atoms: C_25  and  C_30
REMARK    9  A    between atoms: C_27  and  C_29
REMARK                            x       y       z     vdW  Elec       q    Type
REMARK                         _______ _______ _______ _____ _____    ______ ____
ROOT
ATOM      2  O   UNL     1      -5.327   0.418  25.185  0.00  0.00    -0.268 OA
ATOM      5  N   UNL     1      -3.802   0.858  23.511  0.00  0.00    -0.283 N 
ATOM     12  C   UNL     1      -2.103   0.847  21.846  0.00  0.00    +0.094 C 
ATOM     13  C   UNL     1      -3.632  -0.532  23.114  0.00  0.00    +0.164 C 
ATOM     14  C   UNL     1      -2.863  -0.481  21.795  0.00  0.00    +0.056 C 
ATOM     15  C   UNL     1      -3.022   1.756  22.655  0.00  0.00    +0.131 C 
ATOM     23  C   UNL     1      -4.707   1.238  24.507  0.00  0.00    +0.264 C 
ENDROOT
BRANCH  12   6
ATOM      3  O   UNL     1       0.185  -0.519  20.765  0.00  0.00    -0.253 OA
ATOM      6  N   UNL     1      -0.806   0.715  22.461  0.00  0.00    -0.295 N 
ATOM      7  N   UNL     1       1.389   0.053  22.665  0.00  0.00    -0.297 N 
ATOM     24  C   UNL     1       0.251   0.031  21.863  0.00  0.00    +0.300 C 
ATOM     41  H   UNL     1      -0.673   1.083  23.398  0.00  0.00    +0.151 HD
ATOM     42  H   UNL     1       1.312   0.475  23.586  0.00  0.00    +0.151 HD
BRANCH   7  16
ATOM     16  C   UNL     1       2.634  -0.579  22.291  0.00  0.00    +0.074 C 
ATOM     17  C   UNL     1       3.516   0.377  21.481  0.00  0.00    +0.022 C 
ATOM     18  C   UNL     1       3.375  -1.109  23.523  0.00  0.00    +0.022 C 
ATOM     19  C   UNL     1       4.106   1.497  22.339  0.00  0.00    +0.002 C 
ATOM     20  C   UNL     1       3.966   0.013  24.377  0.00  0.00    +0.002 C 
ATOM     22  C   UNL     1       4.848   0.944  23.552  0.00  0.00    +0.000 C 
ENDBRANCH   7  16
ENDBRANCH  12   6
BRANCH  23  26
ATOM      9  N   UNL     1      -5.574   3.221  25.765  0.00  0.00    -0.346 N 
ATOM     26  C   UNL     1      -4.863   2.669  24.732  0.00  0.00    +0.104 A 
ATOM     28  C   UNL     1      -4.346   3.699  23.978  0.00  0.00    +0.032 A 
ATOM     31  C   UNL     1      -5.518   4.588  25.682  0.00  0.00    +0.086 A 
ATOM     32  C   UNL     1      -4.761   4.913  24.578  0.00  0.00    +0.020 A 
ATOM     34  C   UNL     1      -6.280   2.490  26.794  0.00  0.00    +0.149 C 
ENDBRANCH  23  26
BRANCH  13  21
ATOM      1  O   UNL     1      -2.913  -2.466  24.315  0.00  0.00    -0.274 OA
ATOM      8  N   UNL     1      -2.105  -0.378  24.952  0.00  0.00    -0.302 N 
ATOM     21  C   UNL     1      -2.851  -1.247  24.176  0.00  0.00    +0.234 C 
ATOM     43  H   UNL     1      -2.080   0.607  24.704  0.00  0.00    +0.150 HD
BRANCH   8  25
ATOM     25  C   UNL     1      -1.282  -0.813  26.058  0.00  0.00    +0.163 C 
BRANCH  25  30
ATOM      4  O   UNL     1       0.059  -1.795  24.285  0.00  0.00    -0.274 OA
ATOM     11  N   UNL     1       0.482  -2.418  26.456  0.00  0.00    -0.328 N 
ATOM     30  C   UNL     1      -0.205  -1.721  25.483  0.00  0.00    +0.231 C 
ATOM     45  H   UNL     1       1.236  -3.050  26.209  0.00  0.00    +0.145 HD
ATOM     46  H   UNL     1       0.267  -2.329  27.444  0.00  0.00    +0.145 HD
ENDBRANCH  25  30
BRANCH  25  27
ATOM     27  C   UNL     1      -0.646   0.365  26.808  0.00  0.00    +0.069 C 
BRANCH  27  29
ATOM     10  N   UNL     1       0.711   2.739  24.352  0.00  0.00    -0.360 N 
ATOM     29  C   UNL     1      -0.291   1.513  25.908  0.00  0.00    -0.020 A 
ATOM     33  C   UNL     1      -0.912   2.793  25.881  0.00  0.00    +0.003 A 
ATOM     35  C   UNL     1       0.703   1.511  24.956  0.00  0.00    +0.087 A 
ATOM     36  C   UNL     1      -0.264   3.543  24.897  0.00  0.00    +0.047 A 
ATOM     37  C   UNL     1      -1.966   3.388  26.603  0.00  0.00    +0.010 A 
ATOM     38  C   UNL     1      -0.619   4.862  24.597  0.00  0.00    +0.026 A 
ATOM     39  C   UNL     1      -2.333   4.708  26.314  0.00  0.00    +0.001 A 
ATOM     40  C   UNL     1      -1.668   5.431  25.326  0.00  0.00    +0.002 A 
ATOM     44  H   UNL     1       1.342   3.016  23.613  0.00  0.00    +0.165 HD
ENDBRANCH  27  29
ENDBRANCH  25  27
ENDBRANCH   8  25
ENDBRANCH  13  21
TORSDOF 8
ENDMDL
MODEL 6
REMARK VINA RESULT:      11.1      2.009      4.265
REMARK  Name = 11882029
REMARK  9 active torsions:
REMARK  status: ('A' for Active; 'I' for Inactive)
REMARK    1  A    between atoms: N_6  and  C_12
REMARK    2  A    between atoms: N_7  and  C_16
REMARK    3  A    between atoms: N_8  and  C_25
REMARK    4  A    between atoms: N_9  and  C_34
REMARK    5  A    between atoms: C_13  and  C_21
REMARK    6  A    between atoms: C_23  and  C_26
REMARK    7  A    between atoms: C_25  and  C_27
REMARK    8  A    between atoms: C_25  and  C_30
REMARK    9  A    between atoms: C_27  and  C_29
REMARK                            x       y       z     vdW  Elec       q    Type
REMARK                         _______ _______ _______ _____ _____    ______ ____
ROOT
ATOM      2  O   UNL     1      -5.185   0.865  24.268  0.00  0.00    -0.268 OA
ATOM      5  N   UNL     1      -3.225   2.067  24.076  0.00  0.00    -0.283 N 
ATOM     12  C   UNL     1      -0.999   2.868  23.831  0.00  0.00    +0.094 C 
ATOM     13  C   UNL     1      -2.490   1.017  23.387  0.00  0.00    +0.164 C 
ATOM     14  C   UNL     1      -1.215   1.688  22.880  0.00  0.00    +0.056 C 
ATOM     15  C   UNL     1      -2.415   3.279  24.219  0.00  0.00    +0.131 C 
ATOM     23  C   UNL     1      -4.573   1.923  24.421  0.00  0.00    +0.264 C 
ENDROOT
BRANCH  12   6
ATOM      3  O   UNL     1      -0.457   4.516  26.123  0.00  0.00    -0.253 OA
ATOM      6  N   UNL     1      -0.213   2.510  24.984  0.00  0.00    -0.295 N 
ATOM      7  N   UNL     1       0.792   2.786  27.037  0.00  0.00    -0.297 N 
ATOM     24  C   UNL     1      -0.001   3.377  26.056  0.00  0.00    +0.300 C 
ATOM     41  H   UNL     1       0.259   1.611  24.991  0.00  0.00    +0.151 HD
ATOM     42  H   UNL     1       1.176   1.866  26.846  0.00  0.00    +0.151 HD
BRANCH   7  16
ATOM     16  C   UNL     1       1.171   3.459  28.259  0.00  0.00    +0.074 C 
ATOM     17  C   UNL     1       0.629   2.718  29.486  0.00  0.00    +0.022 C 
ATOM     18  C   UNL     1       2.690   3.636  28.343  0.00  0.00    +0.022 C 
ATOM     19  C   UNL     1       1.361   1.400  29.744  0.00  0.00    +0.002 C 
ATOM     20  C   UNL     1       3.419   2.316  28.603  0.00  0.00    +0.002 C 
ATOM     22  C   UNL     1       2.870   1.603  29.834  0.00  0.00    +0.000 C 
ENDBRANCH   7  16
ENDBRANCH  12   6
BRANCH  23  26
ATOM      9  N   UNL     1      -6.104   3.043  26.055  0.00  0.00    -0.346 N 
ATOM     26  C   UNL     1      -5.222   3.088  25.007  0.00  0.00    +0.104 A 
ATOM     28  C   UNL     1      -5.079   4.406  24.633  0.00  0.00    +0.032 A 
ATOM     31  C   UNL     1      -6.525   4.312  26.355  0.00  0.00    +0.086 A 
ATOM     32  C   UNL     1      -5.903   5.180  25.485  0.00  0.00    +0.020 A 
ATOM     34  C   UNL     1      -6.534   1.850  26.749  0.00  0.00    +0.149 C 
ENDBRANCH  23  26
BRANCH  13  21
ATOM      1  O   UNL     1      -2.967  -0.395  25.252  0.00  0.00    -0.274 OA
ATOM      8  N   UNL     1      -0.936  -0.642  24.142  0.00  0.00    -0.302 N 
ATOM     21  C   UNL     1      -2.182  -0.080  24.362  0.00  0.00    +0.234 C 
ATOM     43  H   UNL     1      -0.397  -0.344  23.333  0.00  0.00    +0.150 HD
BRANCH   8  25
ATOM     25  C   UNL     1      -0.392  -1.703  24.958  0.00  0.00    +0.163 C 
BRANCH  25  30
ATOM      4  O   UNL     1      -2.002  -3.301  25.829  0.00  0.00    -0.274 OA
ATOM     11  N   UNL     1      -1.478  -3.378  23.594  0.00  0.00    -0.328 N 
ATOM     30  C   UNL     1      -1.359  -2.875  24.872  0.00  0.00    +0.231 C 
ATOM     45  H   UNL     1      -2.101  -4.153  23.395  0.00  0.00    +0.145 HD
ATOM     46  H   UNL     1      -0.956  -3.000  22.809  0.00  0.00    +0.145 HD
ENDBRANCH  25  30
BRANCH  25  27
ATOM     27  C   UNL     1       1.009  -2.128  24.501  0.00  0.00    +0.069 C 
BRANCH  27  29
ATOM     10  N   UNL     1       2.058   0.596  22.266  0.00  0.00    -0.360 N 
ATOM     29  C   UNL     1       1.702  -1.082  23.676  0.00  0.00    -0.020 A 
ATOM     33  C   UNL     1       3.102  -0.835  23.622  0.00  0.00    +0.003 A 
ATOM     35  C   UNL     1       1.087  -0.186  22.831  0.00  0.00    +0.087 A 
ATOM     36  C   UNL     1       3.299   0.222  22.730  0.00  0.00    +0.047 A 
ATOM     37  C   UNL     1       4.226  -1.411  24.248  0.00  0.00    +0.010 A 
ATOM     38  C   UNL     1       4.566   0.733  22.433  0.00  0.00    +0.026 A 
ATOM     39  C   UNL     1       5.500  -0.910  23.961  0.00  0.00    +0.001 A 
ATOM     40  C   UNL     1       5.666   0.146  23.066  0.00  0.00    +0.002 A 
ATOM     44  H   UNL     1       1.889   1.339  21.604  0.00  0.00    +0.165 HD
ENDBRANCH  27  29
ENDBRANCH  25  27
ENDBRANCH   8  25
ENDBRANCH  13  21
TORSDOF 8
ENDMDL
MODEL 7
REMARK VINA RESULT:      11.7      2.280      7.163
REMARK  Name = 11882029
REMARK  9 active torsions:
REMARK  status: ('A' for Active; 'I' for Inactive)
REMARK    1  A    between atoms: N_6  and  C_12
REMARK    2  A    between atoms: N_7  and  C_16
REMARK    3  A    between atoms: N_8  and  C_25
REMARK    4  A    between atoms: N_9  and  C_34
REMARK    5  A    between atoms: C_13  and  C_21
REMARK    6  A    between atoms: C_23  and  C_26
REMARK    7  A    between atoms: C_25  and  C_27
REMARK    8  A    between atoms: C_25  and  C_30
REMARK    9  A    between atoms: C_27  and  C_29
REMARK                            x       y       z     vdW  Elec       q    Type
REMARK                         _______ _______ _______ _____ _____    ______ ____
ROOT
ATOM      2  O   UNL     1       3.867   2.252  22.714  0.00  0.00    -0.268 OA
ATOM      5  N   UNL     1       2.680   0.275  22.702  0.00  0.00    -0.283 N 
ATOM     12  C   UNL     1       1.067  -1.474  22.724  0.00  0.00    +0.094 C 
ATOM     13  C   UNL     1       1.429   0.871  22.257  0.00  0.00    +0.164 C 
ATOM     14  C   UNL     1       0.532  -0.309  21.888  0.00  0.00    +0.056 C 
ATOM     15  C   UNL     1       2.559  -1.179  22.836  0.00  0.00    +0.131 C 
ATOM     23  C   UNL     1       3.850   1.028  22.844  0.00  0.00    +0.264 C 
ENDROOT
BRANCH  12   6
ATOM      3  O   UNL     1      -1.549  -2.512  23.309  0.00  0.00    -0.253 OA
ATOM      6  N   UNL     1       0.441  -1.555  24.020  0.00  0.00    -0.295 N 
ATOM      7  N   UNL     1      -1.205  -2.038  25.555  0.00  0.00    -0.297 N 
ATOM     24  C   UNL     1      -0.838  -2.075  24.212  0.00  0.00    +0.300 C 
ATOM     41  H   UNL     1       0.925  -1.159  24.820  0.00  0.00    +0.151 HD
ATOM     42  H   UNL     1      -0.569  -1.589  26.208  0.00  0.00    +0.151 HD
BRANCH   7  16
ATOM     16  C   UNL     1      -2.480  -2.514  26.042  0.00  0.00    +0.074 C 
ATOM     17  C   UNL     1      -3.352  -1.353  26.531  0.00  0.00    +0.022 C 
ATOM     18  C   UNL     1      -3.204  -3.341  24.974  0.00  0.00    +0.022 C 
ATOM     19  C   UNL     1      -3.881  -0.494  25.381  0.00  0.00    +0.002 C 
ATOM     20  C   UNL     1      -3.733  -2.479  23.828  0.00  0.00    +0.002 C 
ATOM     22  C   UNL     1      -4.607  -1.338  24.338  0.00  0.00    +0.000 C 
ENDBRANCH   7  16
ENDBRANCH  12   6
BRANCH  23  26
ATOM      9  N   UNL     1       5.579   0.197  24.451  0.00  0.00    -0.346 N 
ATOM     26  C   UNL     1       5.059   0.292  23.188  0.00  0.00    +0.104 A 
ATOM     28  C   UNL     1       5.878  -0.420  22.340  0.00  0.00    +0.032 A 
ATOM     31  C   UNL     1       6.717  -0.566  24.424  0.00  0.00    +0.086 A 
ATOM     32  C   UNL     1       6.928  -0.962  23.122  0.00  0.00    +0.020 A 
ATOM     34  C   UNL     1       5.025   0.801  25.643  0.00  0.00    +0.149 C 
ENDBRANCH  23  26
BRANCH  13  21
ATOM      1  O   UNL     1       1.441   2.624  23.878  0.00  0.00    -0.274 OA
ATOM      8  N   UNL     1      -0.390   1.189  23.783  0.00  0.00    -0.302 N 
ATOM     21  C   UNL     1       0.845   1.671  23.384  0.00  0.00    +0.234 C 
ATOM     43  H   UNL     1      -0.817   0.432  23.258  0.00  0.00    +0.150 HD
BRANCH   8  25
ATOM     25  C   UNL     1      -1.152   1.769  24.865  0.00  0.00    +0.163 C 
BRANCH  25  30
ATOM      4  O   UNL     1      -0.583   0.396  26.787  0.00  0.00    -0.274 OA
ATOM     11  N   UNL     1       0.488   2.411  26.521  0.00  0.00    -0.328 N 
ATOM     30  C   UNL     1      -0.420   1.439  26.157  0.00  0.00    +0.231 C 
ATOM     45  H   UNL     1       1.054   2.308  27.357  0.00  0.00    +0.145 HD
ATOM     46  H   UNL     1       0.628   3.257  25.978  0.00  0.00    +0.145 HD
ENDBRANCH  25  30
BRANCH  25  27
ATOM     27  C   UNL     1      -1.314   3.287  24.713  0.00  0.00    +0.069 C 
BRANCH  27  29
ATOM     10  N   UNL     1      -4.051   5.050  26.422  0.00  0.00    -0.360 N 
ATOM     29  C   UNL     1      -2.598   3.804  25.297  0.00  0.00    -0.020 A 
ATOM     33  C   UNL     1      -3.894   3.241  25.125  0.00  0.00    +0.003 A 
ATOM     35  C   UNL     1      -2.727   4.914  26.098  0.00  0.00    +0.087 A 
ATOM     36  C   UNL     1      -4.787   4.041  25.841  0.00  0.00    +0.047 A 
ATOM     37  C   UNL     1      -4.395   2.123  24.428  0.00  0.00    +0.010 A 
ATOM     38  C   UNL     1      -6.160   3.780  25.895  0.00  0.00    +0.026 A 
ATOM     39  C   UNL     1      -5.767   1.849  24.471  0.00  0.00    +0.001 A 
ATOM     40  C   UNL     1      -6.634   2.666  25.194  0.00  0.00    +0.002 A 
ATOM     44  H   UNL     1      -4.432   5.783  27.002  0.00  0.00    +0.165 HD
ENDBRANCH  27  29
ENDBRANCH  25  27
ENDBRANCH   8  25
ENDBRANCH  13  21
TORSDOF 8
ENDMDL
MODEL 8
REMARK VINA RESULT:      11.8      2.106      5.249
REMARK  Name = 11882029
REMARK  9 active torsions:
REMARK  status: ('A' for Active; 'I' for Inactive)
REMARK    1  A    between atoms: N_6  and  C_12
REMARK    2  A    between atoms: N_7  and  C_16
REMARK    3  A    between atoms: N_8  and  C_25
REMARK    4  A    between atoms: N_9  and  C_34
REMARK    5  A    between atoms: C_13  and  C_21
REMARK    6  A    between atoms: C_23  and  C_26
REMARK    7  A    between atoms: C_25  and  C_27
REMARK    8  A    between atoms: C_25  and  C_30
REMARK    9  A    between atoms: C_27  and  C_29
REMARK                            x       y       z     vdW  Elec       q    Type
REMARK                         _______ _______ _______ _____ _____    ______ ____
ROOT
ATOM      2  O   UNL     1      -3.098   4.566  23.785  0.00  0.00    -0.268 OA
ATOM      5  N   UNL     1      -2.141   3.306  25.464  0.00  0.00    -0.283 N 
ATOM     12  C   UNL     1      -0.756   2.026  26.914  0.00  0.00    +0.094 C 
ATOM     13  C   UNL     1      -0.768   3.661  25.132  0.00  0.00    +0.164 C 
ATOM     14  C   UNL     1       0.068   3.165  26.310  0.00  0.00    +0.056 C 
ATOM     15  C   UNL     1      -2.198   2.447  26.649  0.00  0.00    +0.131 C 
ATOM     23  C   UNL     1      -3.232   3.850  24.778  0.00  0.00    +0.264 C 
ENDROOT
BRANCH  12   6
ATOM      3  O   UNL     1      -2.530  -0.224  26.676  0.00  0.00    -0.253 OA
ATOM      6  N   UNL     1      -0.456   0.750  26.315  0.00  0.00    -0.295 N 
ATOM      7  N   UNL     1      -0.838  -1.410  25.617  0.00  0.00    -0.297 N 
ATOM     24  C   UNL     1      -1.381  -0.290  26.242  0.00  0.00    +0.300 C 
ATOM     41  H   UNL     1       0.489   0.578  25.986  0.00  0.00    +0.151 HD
ATOM     42  H   UNL     1       0.145  -1.381  25.363  0.00  0.00    +0.151 HD
BRANCH   7  16
ATOM     16  C   UNL     1      -1.576  -2.635  25.407  0.00  0.00    +0.074 C 
ATOM     17  C   UNL     1      -2.902  -2.618  26.172  0.00  0.00    +0.022 C 
ATOM     18  C   UNL     1      -1.799  -2.896  23.914  0.00  0.00    +0.022 C 
ATOM     19  C   UNL     1      -3.921  -1.659  25.555  0.00  0.00    +0.002 C 
ATOM     20  C   UNL     1      -2.819  -1.937  23.300  0.00  0.00    +0.002 C 
ATOM     22  C   UNL     1      -4.135  -1.945  24.071  0.00  0.00    +0.000 C 
ENDBRANCH   7  16
ENDBRANCH  12   6
BRANCH  23  26
ATOM      9  N   UNL     1      -5.174   2.296  25.066  0.00  0.00    -0.346 N 
ATOM     26  C   UNL     1      -4.554   3.500  25.279  0.00  0.00    +0.104 A 
ATOM     28  C   UNL     1      -5.401   4.282  26.032  0.00  0.00    +0.032 A 
ATOM     31  C   UNL     1      -6.402   2.299  25.673  0.00  0.00    +0.086 A 
ATOM     32  C   UNL     1      -6.570   3.523  26.281  0.00  0.00    +0.020 A 
ATOM     34  C   UNL     1      -4.629   1.183  24.320  0.00  0.00    +0.149 C 
ENDBRANCH  23  26
BRANCH  13  21
ATOM      1  O   UNL     1       0.445   3.449  23.087  0.00  0.00    -0.274 OA
ATOM      8  N   UNL     1      -1.078   1.788  23.672  0.00  0.00    -0.302 N 
ATOM     21  C   UNL     1      -0.383   2.971  23.858  0.00  0.00    +0.234 C 
ATOM     43  H   UNL     1      -1.694   1.457  24.410  0.00  0.00    +0.150 HD
BRANCH   8  25
ATOM     25  C   UNL     1      -0.907   0.944  22.511  0.00  0.00    +0.163 C 
BRANCH  25  30
ATOM      4  O   UNL     1      -2.687   2.348  21.634  0.00  0.00    -0.274 OA
ATOM     11  N   UNL     1      -1.700   0.820  20.231  0.00  0.00    -0.328 N 
ATOM     30  C   UNL     1      -1.872   1.447  21.447  0.00  0.00    +0.231 C 
ATOM     45  H   UNL     1      -2.271   1.071  19.430  0.00  0.00    +0.145 HD
ATOM     46  H   UNL     1      -1.007   0.093  20.086  0.00  0.00    +0.145 HD
ENDBRANCH  25  30
BRANCH  25  27
ATOM     27  C   UNL     1       0.533   0.967  21.984  0.00  0.00    +0.069 C 
BRANCH  27  29
ATOM     10  N   UNL     1       2.170  -1.739  23.858  0.00  0.00    -0.360 N 
ATOM     29  C   UNL     1       1.441   0.015  22.709  0.00  0.00    -0.020 A 
ATOM     33  C   UNL     1       2.842   0.162  22.903  0.00  0.00    +0.003 A 
ATOM     35  C   UNL     1       1.057  -1.163  23.307  0.00  0.00    +0.087 A 
ATOM     36  C   UNL     1       3.276  -0.951  23.627  0.00  0.00    +0.047 A 
ATOM     37  C   UNL     1       3.788   1.138  22.531  0.00  0.00    +0.010 A 
ATOM     38  C   UNL     1       4.611  -1.138  23.999  0.00  0.00    +0.026 A 
ATOM     39  C   UNL     1       5.128   0.966  22.896  0.00  0.00    +0.001 A 
ATOM     40  C   UNL     1       5.531  -0.155  23.619  0.00  0.00    +0.002 A 
ATOM     44  H   UNL     1       2.180  -2.614  24.361  0.00  0.00    +0.165 HD
ENDBRANCH  27  29
ENDBRANCH  25  27
ENDBRANCH   8  25
ENDBRANCH  13  21
TORSDOF 8
ENDMDL
MODEL 9
REMARK VINA RESULT:      12.1      2.114      4.721
REMARK  Name = 11882029
REMARK  9 active torsions:
REMARK  status: ('A' for Active; 'I' for Inactive)
REMARK    1  A    between atoms: N_6  and  C_12
REMARK    2  A    between atoms: N_7  and  C_16
REMARK    3  A    between atoms: N_8  and  C_25
REMARK    4  A    between atoms: N_9  and  C_34
REMARK    5  A    between atoms: C_13  and  C_21
REMARK    6  A    between atoms: C_23  and  C_26
REMARK    7  A    between atoms: C_25  and  C_27
REMARK    8  A    between atoms: C_25  and  C_30
REMARK    9  A    between atoms: C_27  and  C_29
REMARK                            x       y       z     vdW  Elec       q    Type
REMARK                         _______ _______ _______ _____ _____    ______ ____
ROOT
ATOM      2  O   UNL     1      -1.740   5.497  24.444  0.00  0.00    -0.268 OA
ATOM      5  N   UNL     1      -1.342   3.649  25.766  0.00  0.00    -0.283 N 
ATOM     12  C   UNL     1      -0.518   1.711  26.873  0.00  0.00    +0.094 C 
ATOM     13  C   UNL     1       0.101   3.654  25.574  0.00  0.00    +0.164 C 
ATOM     14  C   UNL     1       0.646   2.669  26.605  0.00  0.00    +0.056 C 
ATOM     15  C   UNL     1      -1.752   2.587  26.688  0.00  0.00    +0.131 C 
ATOM     23  C   UNL     1      -2.166   4.635  25.215  0.00  0.00    +0.264 C 
ENDROOT
BRANCH  12   6
ATOM      3  O   UNL     1      -1.568  -0.912  27.403  0.00  0.00    -0.253 OA
ATOM      6  N   UNL     1      -0.523   0.585  25.973  0.00  0.00    -0.295 N 
ATOM      7  N   UNL     1      -0.934  -1.567  25.269  0.00  0.00    -0.297 N 
ATOM     24  C   UNL     1      -1.056  -0.657  26.315  0.00  0.00    +0.300 C 
ATOM     41  H   UNL     1      -0.063   0.681  25.072  0.00  0.00    +0.151 HD
ATOM     42  H   UNL     1      -0.428  -1.272  24.439  0.00  0.00    +0.151 HD
BRANCH   7  16
ATOM     16  C   UNL     1      -1.402  -2.933  25.348  0.00  0.00    +0.074 C 
ATOM     17  C   UNL     1      -2.745  -3.013  26.081  0.00  0.00    +0.022 C 
ATOM     18  C   UNL     1      -1.489  -3.568  23.956  0.00  0.00    +0.022 C 
ATOM     19  C   UNL     1      -3.899  -2.450  25.250  0.00  0.00    +0.002 C 
ATOM     20  C   UNL     1      -2.646  -3.004  23.129  0.00  0.00    +0.002 C 
ATOM     22  C   UNL     1      -3.973  -3.105  23.874  0.00  0.00    +0.000 C 
ENDBRANCH   7  16
ENDBRANCH  12   6
BRANCH  23  26
ATOM      9  N   UNL     1      -4.594   5.090  24.812  0.00  0.00    -0.346 N 
ATOM     26  C   UNL     1      -3.577   4.579  25.573  0.00  0.00    +0.104 A 
ATOM     28  C   UNL     1      -4.134   4.022  26.703  0.00  0.00    +0.032 A 
ATOM     31  C   UNL     1      -5.792   4.868  25.438  0.00  0.00    +0.086 A 
ATOM     32  C   UNL     1      -5.536   4.205  26.618  0.00  0.00    +0.020 A 
ATOM     34  C   UNL     1      -4.445   5.763  23.540  0.00  0.00    +0.149 C 
ENDBRANCH  23  26
BRANCH  13  21
ATOM      1  O   UNL     1       0.690   4.008  23.287  0.00  0.00    -0.274 OA
ATOM      8  N   UNL     1       0.304   1.835  24.030  0.00  0.00    -0.302 N 
ATOM     21  C   UNL     1       0.406   3.208  24.175  0.00  0.00    +0.234 C 
ATOM     43  H   UNL     1       0.125   1.264  24.851  0.00  0.00    +0.150 HD
BRANCH   8  25
ATOM     25  C   UNL     1       0.526   1.155  22.774  0.00  0.00    +0.163 C 
BRANCH  25  30
ATOM      4  O   UNL     1       1.462  -0.978  23.469  0.00  0.00    -0.274 OA
ATOM     11  N   UNL     1       2.873   0.604  22.584  0.00  0.00    -0.328 N 
ATOM     30  C   UNL     1       1.642   0.145  23.003  0.00  0.00    +0.231 C 
ATOM     45  H   UNL     1       3.701   0.024  22.667  0.00  0.00    +0.145 HD
ATOM     46  H   UNL     1       3.002   1.527  22.180  0.00  0.00    +0.145 HD
ENDBRANCH  25  30
BRANCH  25  27
ATOM     27  C   UNL     1      -0.737   0.451  22.263  0.00  0.00    +0.069 C 
BRANCH  27  29
ATOM     10  N   UNL     1      -3.511   2.858  22.096  0.00  0.00    -0.360 N 
ATOM     29  C   UNL     1      -1.978   1.284  22.414  0.00  0.00    -0.020 A 
ATOM     33  C   UNL     1      -3.016   1.093  23.368  0.00  0.00    +0.003 A 
ATOM     35  C   UNL     1      -2.311   2.376  21.647  0.00  0.00    +0.087 A 
ATOM     36  C   UNL     1      -3.965   2.094  23.148  0.00  0.00    +0.047 A 
ATOM     37  C   UNL     1      -3.240   0.163  24.403  0.00  0.00    +0.010 A 
ATOM     38  C   UNL     1      -5.131   2.211  23.911  0.00  0.00    +0.026 A 
ATOM     39  C   UNL     1      -4.402   0.267  25.175  0.00  0.00    +0.001 A 
ATOM     40  C   UNL     1      -5.332   1.276  24.932  0.00  0.00    +0.002 A 
ATOM     44  H   UNL     1      -3.993   3.658  21.712  0.00  0.00    +0.165 HD
ENDBRANCH  27  29
ENDBRANCH  25  27
ENDBRANCH   8  25
ENDBRANCH  13  21
TORSDOF 8
ENDMDL
