MODEL 1
REMARK VINA RESULT:      -6.3      0.000      0.000
REMARK  Name = 25312536
REMARK  11 active torsions:
REMARK  status: ('A' for Active; 'I' for Inactive)
REMARK    1  A    between atoms: O_2  and  C_15
REMARK    2  A    between atoms: N_5  and  C_13
REMARK    3  A    between atoms: N_5  and  C_16
REMARK    4  A    between atoms: N_5  and  C_17
REMARK    5  A    between atoms: C_6  and  C_10
REMARK    6  A    between atoms: C_7  and  C_12
REMARK    7  A    between atoms: C_10  and  C_13
REMARK    8  A    between atoms: C_12  and  C_15
REMARK    9  A    between atoms: C_14  and  C_18
REMARK   10  A    between atoms: C_16  and  C_19
REMARK   11  A    between atoms: C_17  and  C_20
REMARK                            x       y       z     vdW  Elec       q    Type
REMARK                         _______ _______ _______ _____ _____    ______ ____
ROOT
ATOM      1  O   UNL     1      -5.576   4.077  25.930  0.00  0.00    -0.276 OA
ATOM      4  N   UNL     1      -4.005   3.050  24.561  0.00  0.00    -0.301 N 
ATOM      6  C   UNL     1      -2.220   1.368  24.166  0.00  0.00    +0.011 C 
ATOM      7  C   UNL     1      -1.174   2.508  24.272  0.00  0.00    +0.006 C 
ATOM      8  C   UNL     1      -3.572   1.939  23.703  0.00  0.00    +0.111 C 
ATOM      9  C   UNL     1      -1.690   3.670  25.138  0.00  0.00    +0.023 C 
ATOM     11  C   UNL     1      -3.055   4.156  24.656  0.00  0.00    +0.108 C 
ATOM     14  C   UNL     1      -5.224   3.120  25.235  0.00  0.00    +0.212 C 
ATOM     18  C   UNL     1      -6.147   1.936  25.090  0.00  0.00    +0.109 C 
ENDROOT
BRANCH   6  10
ATOM     10  C   UNL     1      -2.396   0.564  25.460  0.00  0.00    +0.020 C 
BRANCH  10  13
ATOM     13  C   UNL     1      -3.511  -0.463  25.313  0.00  0.00    +0.084 C 
BRANCH  13   5
ATOM      5  N   UNL     1      -2.985  -1.802  25.547  0.00  0.00    -0.303 NA
BRANCH   5  16
ATOM     16  C   UNL     1      -1.530  -1.821  25.385  0.00  0.00    +0.081 C 
ATOM     19  C   UNL     1      -1.122  -2.646  24.177  0.00  0.00    +0.020 C 
ENDBRANCH   5  16
BRANCH   5  17
ATOM     17  C   UNL     1      -3.609  -2.768  24.640  0.00  0.00    +0.081 C 
ATOM     20  C   UNL     1      -4.497  -2.069  23.623  0.00  0.00    +0.020 C 
ENDBRANCH   5  17
ENDBRANCH  13   5
ENDBRANCH  10  13
ENDBRANCH   6  10
BRANCH   7  12
ATOM     12  C   UNL     1       0.189   2.029  24.770  0.00  0.00    +0.124 C 
BRANCH  12  15
ATOM      3  O   UNL     1       0.374   0.163  23.213  0.00  0.00    -0.251 OA
ATOM     15  C   UNL     1       0.864   1.136  23.766  0.00  0.00    +0.305 C 
BRANCH  15   2
ATOM      2  O   UNL     1       2.133   1.569  23.549  0.00  0.00    -0.481 OA
ATOM     21  H   UNL     1       2.795   0.871  23.743  0.00  0.00    +0.295 HD
ENDBRANCH  15   2
ENDBRANCH  12  15
ENDBRANCH   7  12
TORSDOF 8
ENDMDL
MODEL 2
REMARK VINA RESULT:      -5.9      1.937      4.941
REMARK  Name = 25312536
REMARK  11 active torsions:
REMARK  status: ('A' for Active; 'I' for Inactive)
REMARK    1  A    between atoms: O_2  and  C_15
REMARK    2  A    between atoms: N_5  and  C_13
REMARK    3  A    between atoms: N_5  and  C_16
REMARK    4  A    between atoms: N_5  and  C_17
REMARK    5  A    between atoms: C_6  and  C_10
REMARK    6  A    between atoms: C_7  and  C_12
REMARK    7  A    between atoms: C_10  and  C_13
REMARK    8  A    between atoms: C_12  and  C_15
REMARK    9  A    between atoms: C_14  and  C_18
REMARK   10  A    between atoms: C_16  and  C_19
REMARK   11  A    between atoms: C_17  and  C_20
REMARK                            x       y       z     vdW  Elec       q    Type
REMARK                         _______ _______ _______ _____ _____    ______ ____
ROOT
ATOM      1  O   UNL     1      -2.770  -3.669  23.603  0.00  0.00    -0.276 OA
ATOM      4  N   UNL     1      -2.437  -1.701  24.790  0.00  0.00    -0.301 N 
ATOM      6  C   UNL     1      -2.187   0.769  24.899  0.00  0.00    +0.011 C 
ATOM      7  C   UNL     1      -0.660   0.569  25.075  0.00  0.00    +0.006 C 
ATOM      8  C   UNL     1      -2.940  -0.470  25.415  0.00  0.00    +0.111 C 
ATOM      9  C   UNL     1      -0.186  -0.754  24.450  0.00  0.00    +0.023 C 
ATOM     11  C   UNL     1      -1.005  -1.935  24.966  0.00  0.00    +0.108 C 
ATOM     14  C   UNL     1      -3.213  -2.628  24.096  0.00  0.00    +0.212 C 
ATOM     18  C   UNL     1      -4.680  -2.312  23.954  0.00  0.00    +0.109 C 
ENDROOT
BRANCH   6  10
ATOM     10  C   UNL     1      -2.610   1.088  23.460  0.00  0.00    +0.020 C 
BRANCH  10  13
ATOM     13  C   UNL     1      -3.378   2.401  23.398  0.00  0.00    +0.084 C 
BRANCH  13   5
ATOM      5  N   UNL     1      -4.033   2.653  24.676  0.00  0.00    -0.303 NA
BRANCH   5  16
ATOM     16  C   UNL     1      -5.454   2.310  24.604  0.00  0.00    +0.081 C 
ATOM     19  C   UNL     1      -5.957   1.767  25.931  0.00  0.00    +0.020 C 
ENDBRANCH   5  16
BRANCH   5  17
ATOM     17  C   UNL     1      -3.867   4.052  25.074  0.00  0.00    +0.081 C 
ATOM     20  C   UNL     1      -3.193   4.159  26.433  0.00  0.00    +0.020 C 
ENDBRANCH   5  17
ENDBRANCH  13   5
ENDBRANCH  10  13
ENDBRANCH   6  10
BRANCH   7  12
ATOM     12  C   UNL     1       0.165   1.741  24.544  0.00  0.00    +0.124 C 
BRANCH  12  15
ATOM      3  O   UNL     1      -0.336   4.039  25.186  0.00  0.00    -0.251 OA
ATOM     15  C   UNL     1       0.095   2.930  25.463  0.00  0.00    +0.305 C 
BRANCH  15   2
ATOM      2  O   UNL     1       0.592   2.596  26.682  0.00  0.00    -0.481 OA
ATOM     21  H   UNL     1       1.011   1.709  26.675  0.00  0.00    +0.295 HD
ENDBRANCH  15   2
ENDBRANCH  12  15
ENDBRANCH   7  12
TORSDOF 8
ENDMDL
MODEL 3
REMARK VINA RESULT:      -5.0      2.064      5.816
REMARK  Name = 25312536
REMARK  11 active torsions:
REMARK  status: ('A' for Active; 'I' for Inactive)
REMARK    1  A    between atoms: O_2  and  C_15
REMARK    2  A    between atoms: N_5  and  C_13
REMARK    3  A    between atoms: N_5  and  C_16
REMARK    4  A    between atoms: N_5  and  C_17
REMARK    5  A    between atoms: C_6  and  C_10
REMARK    6  A    between atoms: C_7  and  C_12
REMARK    7  A    between atoms: C_10  and  C_13
REMARK    8  A    between atoms: C_12  and  C_15
REMARK    9  A    between atoms: C_14  and  C_18
REMARK   10  A    between atoms: C_16  and  C_19
REMARK   11  A    between atoms: C_17  and  C_20
REMARK                            x       y       z     vdW  Elec       q    Type
REMARK                         _______ _______ _______ _____ _____    ______ ____
ROOT
ATOM      1  O   UNL     1      -0.795  -1.311  26.111  0.00  0.00    -0.276 OA
ATOM      4  N   UNL     1      -2.399  -0.559  24.608  0.00  0.00    -0.301 N 
ATOM      6  C   UNL     1      -3.707   1.263  23.540  0.00  0.00    +0.011 C 
ATOM      7  C   UNL     1      -4.921   0.853  24.414  0.00  0.00    +0.006 C 
ATOM      8  C   UNL     1      -2.782   0.051  23.329  0.00  0.00    +0.111 C 
ATOM      9  C   UNL     1      -4.474   0.173  25.720  0.00  0.00    +0.023 C 
ATOM     11  C   UNL     1      -3.521  -0.987  25.442  0.00  0.00    +0.108 C 
ATOM     14  C   UNL     1      -1.091  -0.771  25.042  0.00  0.00    +0.212 C 
ATOM     18  C   UNL     1       0.010  -0.298  24.126  0.00  0.00    +0.109 C 
ENDROOT
BRANCH   6  10
ATOM     10  C   UNL     1      -2.912   2.449  24.098  0.00  0.00    +0.020 C 
BRANCH  10  13
ATOM     13  C   UNL     1      -1.533   2.527  23.458  0.00  0.00    +0.084 C 
BRANCH  13   5
ATOM      5  N   UNL     1      -0.590   3.141  24.385  0.00  0.00    -0.303 NA
BRANCH   5  16
ATOM     16  C   UNL     1      -0.979   2.872  25.770  0.00  0.00    +0.081 C 
ATOM     19  C   UNL     1       0.211   2.417  26.597  0.00  0.00    +0.020 C 
ENDBRANCH   5  16
BRANCH   5  17
ATOM     17  C   UNL     1      -0.502   4.584  24.153  0.00  0.00    +0.081 C 
ATOM     20  C   UNL     1      -1.406   5.348  25.106  0.00  0.00    +0.020 C 
ENDBRANCH   5  17
ENDBRANCH  13   5
ENDBRANCH  10  13
ENDBRANCH   6  10
BRANCH   7  12
ATOM     12  C   UNL     1      -5.869   2.015  24.709  0.00  0.00    +0.124 C 
BRANCH  12  15
ATOM      3  O   UNL     1      -4.812   3.378  26.432  0.00  0.00    -0.251 OA
ATOM     15  C   UNL     1      -5.659   2.565  26.093  0.00  0.00    +0.305 C 
BRANCH  15   2
ATOM      2  O   UNL     1      -6.566   2.020  26.945  0.00  0.00    -0.481 OA
ATOM     21  H   UNL     1      -7.487   2.167  26.640  0.00  0.00    +0.295 HD
ENDBRANCH  15   2
ENDBRANCH  12  15
ENDBRANCH   7  12
TORSDOF 8
ENDMDL
MODEL 4
REMARK VINA RESULT:      -5.0      1.594      2.541
REMARK  Name = 25312536
REMARK  11 active torsions:
REMARK  status: ('A' for Active; 'I' for Inactive)
REMARK    1  A    between atoms: O_2  and  C_15
REMARK    2  A    between atoms: N_5  and  C_13
REMARK    3  A    between atoms: N_5  and  C_16
REMARK    4  A    between atoms: N_5  and  C_17
REMARK    5  A    between atoms: C_6  and  C_10
REMARK    6  A    between atoms: C_7  and  C_12
REMARK    7  A    between atoms: C_10  and  C_13
REMARK    8  A    between atoms: C_12  and  C_15
REMARK    9  A    between atoms: C_14  and  C_18
REMARK   10  A    between atoms: C_16  and  C_19
REMARK   11  A    between atoms: C_17  and  C_20
REMARK                            x       y       z     vdW  Elec       q    Type
REMARK                         _______ _______ _______ _____ _____    ______ ____
ROOT
ATOM      1  O   UNL     1      -2.825   4.507  26.587  0.00  0.00    -0.276 OA
ATOM      4  N   UNL     1      -1.927   3.469  24.713  0.00  0.00    -0.301 N 
ATOM      6  C   UNL     1      -1.388   1.436  23.390  0.00  0.00    +0.011 C 
ATOM      7  C   UNL     1       0.088   1.577  23.846  0.00  0.00    +0.006 C 
ATOM      8  C   UNL     1      -2.074   2.814  23.407  0.00  0.00    +0.111 C 
ATOM      9  C   UNL     1       0.197   2.312  25.192  0.00  0.00    +0.023 C 
ATOM     11  C   UNL     1      -0.545   3.646  25.157  0.00  0.00    +0.108 C 
ATOM     14  C   UNL     1      -2.976   3.935  25.504  0.00  0.00    +0.212 C 
ATOM     18  C   UNL     1      -4.372   3.711  24.979  0.00  0.00    +0.109 C 
ENDROOT
BRANCH   6  10
ATOM     10  C   UNL     1      -2.199   0.428  24.213  0.00  0.00    +0.020 C 
BRANCH  10  13
ATOM     13  C   UNL     1      -3.536   0.134  23.547  0.00  0.00    +0.084 C 
BRANCH  13   5
ATOM      5  N   UNL     1      -4.445  -0.479  24.508  0.00  0.00    -0.303 NA
BRANCH   5  16
ATOM     16  C   UNL     1      -4.934   0.516  25.463  0.00  0.00    +0.081 C 
ATOM     19  C   UNL     1      -6.152   1.246  24.921  0.00  0.00    +0.020 C 
ENDBRANCH   5  16
BRANCH   5  17
ATOM     17  C   UNL     1      -3.784  -1.579  25.214  0.00  0.00    +0.081 C 
ATOM     20  C   UNL     1      -3.699  -2.819  24.339  0.00  0.00    +0.020 C 
ENDBRANCH   5  17
ENDBRANCH  13   5
ENDBRANCH  10  13
ENDBRANCH   6  10
BRANCH   7  12
ATOM     12  C   UNL     1       0.830   0.242  23.900  0.00  0.00    +0.124 C 
BRANCH  12  15
ATOM      3  O   UNL     1       1.433  -0.396  21.626  0.00  0.00    -0.251 OA
ATOM     15  C   UNL     1       1.739   0.064  22.715  0.00  0.00    +0.305 C 
BRANCH  15   2
ATOM      2  O   UNL     1       2.988   0.498  23.028  0.00  0.00    -0.481 OA
ATOM     21  H   UNL     1       3.376  -0.011  23.772  0.00  0.00    +0.295 HD
ENDBRANCH  15   2
ENDBRANCH  12  15
ENDBRANCH   7  12
TORSDOF 8
ENDMDL
MODEL 5
REMARK VINA RESULT:      -4.8      1.740      4.495
REMARK  Name = 25312536
REMARK  11 active torsions:
REMARK  status: ('A' for Active; 'I' for Inactive)
REMARK    1  A    between atoms: O_2  and  C_15
REMARK    2  A    between atoms: N_5  and  C_13
REMARK    3  A    between atoms: N_5  and  C_16
REMARK    4  A    between atoms: N_5  and  C_17
REMARK    5  A    between atoms: C_6  and  C_10
REMARK    6  A    between atoms: C_7  and  C_12
REMARK    7  A    between atoms: C_10  and  C_13
REMARK    8  A    between atoms: C_12  and  C_15
REMARK    9  A    between atoms: C_14  and  C_18
REMARK   10  A    between atoms: C_16  and  C_19
REMARK   11  A    between atoms: C_17  and  C_20
REMARK                            x       y       z     vdW  Elec       q    Type
REMARK                         _______ _______ _______ _____ _____    ______ ____
ROOT
ATOM      1  O   UNL     1       0.413   4.245  23.687  0.00  0.00    -0.276 OA
ATOM      4  N   UNL     1      -1.251   3.333  25.026  0.00  0.00    -0.301 N 
ATOM      6  C   UNL     1      -3.355   2.045  25.322  0.00  0.00    +0.011 C 
ATOM      7  C   UNL     1      -4.099   3.386  25.554  0.00  0.00    +0.006 C 
ATOM      8  C   UNL     1      -1.874   2.194  25.713  0.00  0.00    +0.111 C 
ATOM      9  C   UNL     1      -3.384   4.557  24.859  0.00  0.00    +0.023 C 
ATOM     11  C   UNL     1      -1.910   4.618  25.251  0.00  0.00    +0.108 C 
ATOM     14  C   UNL     1      -0.107   3.268  24.232  0.00  0.00    +0.212 C 
ATOM     18  C   UNL     1       0.511   1.905  24.045  0.00  0.00    +0.109 C 
ENDROOT
BRANCH   6  10
ATOM     10  C   UNL     1      -3.477   1.507  23.891  0.00  0.00    +0.020 C 
BRANCH  10  13
ATOM     13  C   UNL     1      -3.734   0.007  23.896  0.00  0.00    +0.084 C 
BRANCH  13   5
ATOM      5  N   UNL     1      -2.855  -0.644  24.860  0.00  0.00    -0.303 NA
BRANCH   5  16
ATOM     16  C   UNL     1      -1.571  -0.980  24.243  0.00  0.00    +0.081 C 
ATOM     19  C   UNL     1      -0.564  -1.441  25.283  0.00  0.00    +0.020 C 
ENDBRANCH   5  16
BRANCH   5  17
ATOM     17  C   UNL     1      -3.487  -1.848  25.404  0.00  0.00    +0.081 C 
ATOM     20  C   UNL     1      -3.877  -2.811  24.296  0.00  0.00    +0.020 C 
ENDBRANCH   5  17
ENDBRANCH  13   5
ENDBRANCH  10  13
ENDBRANCH   6  10
BRANCH   7  12
ATOM     12  C   UNL     1      -5.571   3.335  25.147  0.00  0.00    +0.124 C 
BRANCH  12  15
ATOM      3  O   UNL     1      -6.331   2.022  27.055  0.00  0.00    -0.251 OA
ATOM     15  C   UNL     1      -6.303   2.226  25.850  0.00  0.00    +0.305 C 
BRANCH  15   2
ATOM      2  O   UNL     1      -6.952   1.456  24.939  0.00  0.00    -0.481 OA
ATOM     21  H   UNL     1      -6.516   0.586  24.820  0.00  0.00    +0.295 HD
ENDBRANCH  15   2
ENDBRANCH  12  15
ENDBRANCH   7  12
TORSDOF 8
ENDMDL
MODEL 6
REMARK VINA RESULT:      -4.7      2.088      4.683
REMARK  Name = 25312536
REMARK  11 active torsions:
REMARK  status: ('A' for Active; 'I' for Inactive)
REMARK    1  A    between atoms: O_2  and  C_15
REMARK    2  A    between atoms: N_5  and  C_13
REMARK    3  A    between atoms: N_5  and  C_16
REMARK    4  A    between atoms: N_5  and  C_17
REMARK    5  A    between atoms: C_6  and  C_10
REMARK    6  A    between atoms: C_7  and  C_12
REMARK    7  A    between atoms: C_10  and  C_13
REMARK    8  A    between atoms: C_12  and  C_15
REMARK    9  A    between atoms: C_14  and  C_18
REMARK   10  A    between atoms: C_16  and  C_19
REMARK   11  A    between atoms: C_17  and  C_20
REMARK                            x       y       z     vdW  Elec       q    Type
REMARK                         _______ _______ _______ _____ _____    ______ ____
ROOT
ATOM      1  O   UNL     1      -3.524  -2.847  24.701  0.00  0.00    -0.276 OA
ATOM      4  N   UNL     1      -1.964  -1.202  25.206  0.00  0.00    -0.301 N 
ATOM      6  C   UNL     1      -0.837   0.960  24.726  0.00  0.00    +0.011 C 
ATOM      7  C   UNL     1       0.384   0.163  24.197  0.00  0.00    +0.006 C 
ATOM      8  C   UNL     1      -1.608   0.113  25.754  0.00  0.00    +0.111 C 
ATOM      9  C   UNL     1      -0.029  -1.226  23.679  0.00  0.00    +0.023 C 
ATOM     11  C   UNL     1      -0.831  -1.992  24.728  0.00  0.00    +0.108 C 
ATOM     14  C   UNL     1      -3.254  -1.727  25.143  0.00  0.00    +0.212 C 
ATOM     18  C   UNL     1      -4.369  -0.848  25.652  0.00  0.00    +0.109 C 
ENDROOT
BRANCH   6  10
ATOM     10  C   UNL     1      -1.783   1.452  23.624  0.00  0.00    +0.020 C 
BRANCH  10  13
ATOM     13  C   UNL     1      -1.781   2.972  23.546  0.00  0.00    +0.084 C 
BRANCH  13   5
ATOM      5  N   UNL     1      -3.052   3.495  24.034  0.00  0.00    -0.303 NA
BRANCH   5  16
ATOM     16  C   UNL     1      -2.863   4.223  25.289  0.00  0.00    +0.081 C 
ATOM     19  C   UNL     1      -1.539   4.969  25.298  0.00  0.00    +0.020 C 
ENDBRANCH   5  16
BRANCH   5  17
ATOM     17  C   UNL     1      -4.020   2.411  24.216  0.00  0.00    +0.081 C 
ATOM     20  C   UNL     1      -4.945   2.694  25.389  0.00  0.00    +0.020 C 
ENDBRANCH   5  17
ENDBRANCH  13   5
ENDBRANCH  10  13
ENDBRANCH   6  10
BRANCH   7  12
ATOM     12  C   UNL     1       1.180   0.918  23.134  0.00  0.00    +0.124 C 
BRANCH  12  15
ATOM      3  O   UNL     1       3.193  -0.448  22.978  0.00  0.00    -0.251 OA
ATOM     15  C   UNL     1       2.193   0.031  22.465  0.00  0.00    +0.305 C 
BRANCH  15   2
ATOM      2  O   UNL     1       1.838  -0.174  21.170  0.00  0.00    -0.481 OA
ATOM     21  H   UNL     1       1.097   0.410  20.898  0.00  0.00    +0.295 HD
ENDBRANCH  15   2
ENDBRANCH  12  15
ENDBRANCH   7  12
TORSDOF 8
ENDMDL
MODEL 7
REMARK VINA RESULT:      -4.4     15.275     18.405
REMARK  Name = 25312536
REMARK  11 active torsions:
REMARK  status: ('A' for Active; 'I' for Inactive)
REMARK    1  A    between atoms: O_2  and  C_15
REMARK    2  A    between atoms: N_5  and  C_13
REMARK    3  A    between atoms: N_5  and  C_16
REMARK    4  A    between atoms: N_5  and  C_17
REMARK    5  A    between atoms: C_6  and  C_10
REMARK    6  A    between atoms: C_7  and  C_12
REMARK    7  A    between atoms: C_10  and  C_13
REMARK    8  A    between atoms: C_12  and  C_15
REMARK    9  A    between atoms: C_14  and  C_18
REMARK   10  A    between atoms: C_16  and  C_19
REMARK   11  A    between atoms: C_17  and  C_20
REMARK                            x       y       z     vdW  Elec       q    Type
REMARK                         _______ _______ _______ _____ _____    ______ ____
ROOT
ATOM      1  O   UNL     1      11.841   8.201  16.007  0.00  0.00    -0.276 OA
ATOM      4  N   UNL     1      12.530   8.784  18.147  0.00  0.00    -0.301 N 
ATOM      6  C   UNL     1      13.468   8.203  20.373  0.00  0.00    +0.011 C 
ATOM      7  C   UNL     1      12.035   8.302  20.960  0.00  0.00    +0.006 C 
ATOM      8  C   UNL     1      13.583   9.094  19.123  0.00  0.00    +0.111 C 
ATOM      9  C   UNL     1      10.966   8.020  19.891  0.00  0.00    +0.023 C 
ATOM     11  C   UNL     1      11.166   8.900  18.660  0.00  0.00    +0.108 C 
ATOM     14  C   UNL     1      12.744   8.431  16.815  0.00  0.00    +0.212 C 
ATOM     18  C   UNL     1      14.179   8.330  16.363  0.00  0.00    +0.109 C 
ENDROOT
BRANCH   6  10
ATOM     10  C   UNL     1      13.909   6.771  20.049  0.00  0.00    +0.020 C 
BRANCH  10  13
ATOM     13  C   UNL     1      14.933   6.277  21.062  0.00  0.00    +0.084 C 
BRANCH  13   5
ATOM      5  N   UNL     1      16.226   6.098  20.413  0.00  0.00    -0.303 NA
BRANCH   5  16
ATOM     16  C   UNL     1      17.268   6.840  21.126  0.00  0.00    +0.081 C 
ATOM     19  C   UNL     1      17.223   8.319  20.781  0.00  0.00    +0.020 C 
ENDBRANCH   5  16
BRANCH   5  17
ATOM     17  C   UNL     1      16.165   6.525  19.014  0.00  0.00    +0.081 C 
ATOM     20  C   UNL     1      17.039   5.646  18.134  0.00  0.00    +0.020 C 
ENDBRANCH   5  17
ENDBRANCH  13   5
ENDBRANCH  10  13
ENDBRANCH   6  10
BRANCH   7  12
ATOM     12  C   UNL     1      11.824   7.410  22.182  0.00  0.00    +0.124 C 
BRANCH  12  15
ATOM      3  O   UNL     1      10.888   5.252  21.541  0.00  0.00    -0.251 OA
ATOM     15  C   UNL     1      10.740   6.394  21.948  0.00  0.00    +0.305 C 
BRANCH  15   2
ATOM      2  O   UNL     1       9.533   6.934  22.258  0.00  0.00    -0.481 OA
ATOM     21  H   UNL     1       8.791   6.358  21.973  0.00  0.00    +0.295 HD
ENDBRANCH  15   2
ENDBRANCH  12  15
ENDBRANCH   7  12
TORSDOF 8
ENDMDL
MODEL 8
REMARK VINA RESULT:      -4.3      1.625      4.781
REMARK  Name = 25312536
REMARK  11 active torsions:
REMARK  status: ('A' for Active; 'I' for Inactive)
REMARK    1  A    between atoms: O_2  and  C_15
REMARK    2  A    between atoms: N_5  and  C_13
REMARK    3  A    between atoms: N_5  and  C_16
REMARK    4  A    between atoms: N_5  and  C_17
REMARK    5  A    between atoms: C_6  and  C_10
REMARK    6  A    between atoms: C_7  and  C_12
REMARK    7  A    between atoms: C_10  and  C_13
REMARK    8  A    between atoms: C_12  and  C_15
REMARK    9  A    between atoms: C_14  and  C_18
REMARK   10  A    between atoms: C_16  and  C_19
REMARK   11  A    between atoms: C_17  and  C_20
REMARK                            x       y       z     vdW  Elec       q    Type
REMARK                         _______ _______ _______ _____ _____    ______ ____
ROOT
ATOM      1  O   UNL     1       1.391   0.012  22.604  0.00  0.00    -0.276 OA
ATOM      4  N   UNL     1       0.076   0.864  24.317  0.00  0.00    -0.301 N 
ATOM      6  C   UNL     1      -2.041   1.858  25.158  0.00  0.00    +0.011 C 
ATOM      7  C   UNL     1      -1.330   3.235  25.209  0.00  0.00    +0.006 C 
ATOM      8  C   UNL     1      -1.004   0.729  25.303  0.00  0.00    +0.111 C 
ATOM      9  C   UNL     1      -0.176   3.314  24.196  0.00  0.00    +0.023 C 
ATOM     11  C   UNL     1       0.787   2.141  24.361  0.00  0.00    +0.108 C 
ATOM     14  C   UNL     1       0.462  -0.116  23.405  0.00  0.00    +0.212 C 
ATOM     18  C   UNL     1      -0.324  -1.403  23.420  0.00  0.00    +0.109 C 
ENDROOT
BRANCH   6  10
ATOM     10  C   UNL     1      -2.890   1.642  23.900  0.00  0.00    +0.020 C 
BRANCH  10  13
ATOM     13  C   UNL     1      -3.274   0.177  23.749  0.00  0.00    +0.084 C 
BRANCH  13   5
ATOM      5  N   UNL     1      -4.368  -0.145  24.657  0.00  0.00    -0.303 NA
BRANCH   5  16
ATOM     16  C   UNL     1      -4.848   1.060  25.334  0.00  0.00    +0.081 C 
ATOM     19  C   UNL     1      -6.256   1.417  24.889  0.00  0.00    +0.020 C 
ENDBRANCH   5  16
BRANCH   5  17
ATOM     17  C   UNL     1      -3.946  -1.146  25.639  0.00  0.00    +0.081 C 
ATOM     20  C   UNL     1      -3.483  -2.423  24.956  0.00  0.00    +0.020 C 
ENDBRANCH   5  17
ENDBRANCH  13   5
ENDBRANCH  10  13
ENDBRANCH   6  10
BRANCH   7  12
ATOM     12  C   UNL     1      -2.288   4.412  25.026  0.00  0.00    +0.124 C 
BRANCH  12  15
ATOM      3  O   UNL     1      -3.413   4.222  27.180  0.00  0.00    -0.251 OA
ATOM     15  C   UNL     1      -3.460   4.324  25.964  0.00  0.00    +0.305 C 
BRANCH  15   2
ATOM      2  O   UNL     1      -4.618   4.375  25.255  0.00  0.00    -0.481 OA
ATOM     21  H   UNL     1      -4.458   4.582  24.309  0.00  0.00    +0.295 HD
ENDBRANCH  15   2
ENDBRANCH  12  15
ENDBRANCH   7  12
TORSDOF 8
ENDMDL
MODEL 9
REMARK VINA RESULT:      -3.7      2.407      5.220
REMARK  Name = 25312536
REMARK  11 active torsions:
REMARK  status: ('A' for Active; 'I' for Inactive)
REMARK    1  A    between atoms: O_2  and  C_15
REMARK    2  A    between atoms: N_5  and  C_13
REMARK    3  A    between atoms: N_5  and  C_16
REMARK    4  A    between atoms: N_5  and  C_17
REMARK    5  A    between atoms: C_6  and  C_10
REMARK    6  A    between atoms: C_7  and  C_12
REMARK    7  A    between atoms: C_10  and  C_13
REMARK    8  A    between atoms: C_12  and  C_15
REMARK    9  A    between atoms: C_14  and  C_18
REMARK   10  A    between atoms: C_16  and  C_19
REMARK   11  A    between atoms: C_17  and  C_20
REMARK                            x       y       z     vdW  Elec       q    Type
REMARK                         _______ _______ _______ _____ _____    ______ ____
ROOT
ATOM      1  O   UNL     1      -3.492  -3.288  24.873  0.00  0.00    -0.276 OA
ATOM      4  N   UNL     1      -3.452  -1.086  24.137  0.00  0.00    -0.301 N 
ATOM      6  C   UNL     1      -2.943   1.322  24.478  0.00  0.00    +0.011 C 
ATOM      7  C   UNL     1      -4.457   1.572  24.701  0.00  0.00    +0.006 C 
ATOM      8  C   UNL     1      -2.743   0.079  23.592  0.00  0.00    +0.111 C 
ATOM      9  C   UNL     1      -5.167   0.312  25.223  0.00  0.00    +0.023 C 
ATOM     11  C   UNL     1      -4.888  -0.893  24.328  0.00  0.00    +0.108 C 
ATOM     14  C   UNL     1      -2.869  -2.315  24.441  0.00  0.00    +0.212 C 
ATOM     18  C   UNL     1      -1.382  -2.432  24.220  0.00  0.00    +0.109 C 
ENDROOT
BRANCH   6  10
ATOM     10  C   UNL     1      -2.138   1.186  25.776  0.00  0.00    +0.020 C 
BRANCH  10  13
ATOM     13  C   UNL     1      -0.797   1.897  25.659  0.00  0.00    +0.084 C 
BRANCH  13   5
ATOM      5  N   UNL     1      -0.428   2.033  24.255  0.00  0.00    -0.303 NA
BRANCH   5  16
ATOM     16  C   UNL     1       0.914   1.496  24.020  0.00  0.00    +0.081 C 
ATOM     19  C   UNL     1       0.861   0.228  23.185  0.00  0.00    +0.020 C 
ENDBRANCH   5  16
BRANCH   5  17
ATOM     17  C   UNL     1      -0.495   3.434  23.837  0.00  0.00    +0.081 C 
ATOM     20  C   UNL     1      -0.257   4.369  25.011  0.00  0.00    +0.020 C 
ENDBRANCH   5  17
ENDBRANCH  13   5
ENDBRANCH  10  13
ENDBRANCH   6  10
BRANCH   7  12
ATOM     12  C   UNL     1      -4.741   2.767  25.610  0.00  0.00    +0.124 C 
BRANCH  12  15
ATOM      3  O   UNL     1      -3.141   4.548  26.069  0.00  0.00    -0.251 OA
ATOM     15  C   UNL     1      -3.851   3.935  25.286  0.00  0.00    +0.305 C 
BRANCH  15   2
ATOM      2  O   UNL     1      -3.944   4.228  23.963  0.00  0.00    -0.481 OA
ATOM     21  H   UNL     1      -4.784   4.690  23.749  0.00  0.00    +0.295 HD
ENDBRANCH  15   2
ENDBRANCH  12  15
ENDBRANCH   7  12
TORSDOF 8
ENDMDL
MODEL 10
REMARK VINA RESULT:      -3.7      1.204      2.198
REMARK  Name = 25312536
REMARK  11 active torsions:
REMARK  status: ('A' for Active; 'I' for Inactive)
REMARK    1  A    between atoms: O_2  and  C_15
REMARK    2  A    between atoms: N_5  and  C_13
REMARK    3  A    between atoms: N_5  and  C_16
REMARK    4  A    between atoms: N_5  and  C_17
REMARK    5  A    between atoms: C_6  and  C_10
REMARK    6  A    between atoms: C_7  and  C_12
REMARK    7  A    between atoms: C_10  and  C_13
REMARK    8  A    between atoms: C_12  and  C_15
REMARK    9  A    between atoms: C_14  and  C_18
REMARK   10  A    between atoms: C_16  and  C_19
REMARK   11  A    between atoms: C_17  and  C_20
REMARK                            x       y       z     vdW  Elec       q    Type
REMARK                         _______ _______ _______ _____ _____    ______ ____
ROOT
ATOM      1  O   UNL     1      -3.778   4.148  26.415  0.00  0.00    -0.276 OA
ATOM      4  N   UNL     1      -2.538   3.270  24.657  0.00  0.00    -0.301 N 
ATOM      6  C   UNL     1      -1.414   1.374  23.511  0.00  0.00    +0.011 C 
ATOM      7  C   UNL     1      -0.054   1.930  24.008  0.00  0.00    +0.006 C 
ATOM      8  C   UNL     1      -2.437   2.518  23.400  0.00  0.00    +0.111 C 
ATOM      9  C   UNL     1      -0.215   2.751  25.298  0.00  0.00    +0.023 C 
ATOM     11  C   UNL     1      -1.278   3.835  25.136  0.00  0.00    +0.108 C 
ATOM     14  C   UNL     1      -3.715   3.490  25.373  0.00  0.00    +0.212 C 
ATOM     18  C   UNL     1      -4.972   2.870  24.816  0.00  0.00    +0.109 C 
ENDROOT
BRANCH   6  10
ATOM     10  C   UNL     1      -1.975   0.240  24.378  0.00  0.00    +0.020 C 
BRANCH  10  13
ATOM     13  C   UNL     1      -1.824  -1.103  23.678  0.00  0.00    +0.084 C 
BRANCH  13   5
ATOM      5  N   UNL     1      -2.139  -2.184  24.605  0.00  0.00    -0.303 NA
BRANCH   5  16
ATOM     16  C   UNL     1      -3.541  -2.115  25.021  0.00  0.00    +0.081 C 
ATOM     19  C   UNL     1      -4.475  -2.291  23.835  0.00  0.00    +0.020 C 
ENDBRANCH   5  16
BRANCH   5  17
ATOM     17  C   UNL     1      -1.259  -2.132  25.775  0.00  0.00    +0.081 C 
ATOM     20  C   UNL     1       0.193  -2.342  25.378  0.00  0.00    +0.020 C 
ENDBRANCH   5  17
ENDBRANCH  13   5
ENDBRANCH  10  13
ENDBRANCH   6  10
BRANCH   7  12
ATOM     12  C   UNL     1       1.008   0.846  24.188  0.00  0.00    +0.124 C 
BRANCH  12  15
ATOM      3  O   UNL     1       3.089   1.350  23.022  0.00  0.00    -0.251 OA
ATOM     15  C   UNL     1       1.984   0.829  23.044  0.00  0.00    +0.305 C 
BRANCH  15   2
ATOM      2  O   UNL     1       1.456   0.133  22.003  0.00  0.00    -0.481 OA
ATOM     21  H   UNL     1       0.533  -0.146  22.182  0.00  0.00    +0.295 HD
ENDBRANCH  15   2
ENDBRANCH  12  15
ENDBRANCH   7  12
TORSDOF 8
ENDMDL
