MODEL 1
REMARK VINA RESULT:      -0.8      0.000      0.000
REMARK  Name = 11941628
REMARK  2 active torsions:
REMARK  status: ('A' for Active; 'I' for Inactive)
REMARK    1  A    between atoms: O_3  and  C_10
REMARK    2  A    between atoms: C_18  and  C_20
REMARK                            x       y       z     vdW  Elec       q    Type
REMARK                         _______ _______ _______ _____ _____    ______ ____
ROOT
ATOM      4  O   UNL     1      -5.452   0.224  25.120  0.00  0.00    -0.273 OA
ATOM      5  O   UNL     1      -1.600   2.932  22.736  0.00  0.00    -0.270 OA
ATOM      6  N   UNL     1      -3.188   2.500  24.341  0.00  0.00    -0.283 N 
ATOM      7  N   UNL     1      -3.362  -0.436  24.495  0.00  0.00    -0.283 N 
ATOM      8  C   UNL     1      -3.659   1.785  25.510  0.00  0.00    +0.165 C 
ATOM      9  C   UNL     1      -4.671   2.731  26.152  0.00  0.00    +0.065 C 
ATOM     10  C   UNL     1      -5.210   3.537  24.970  0.00  0.00    +0.134 C 
ATOM     11  C   UNL     1      -3.986   3.690  24.082  0.00  0.00    +0.140 C 
ATOM     12  C   UNL     1      -4.255   0.488  25.000  0.00  0.00    +0.238 C 
ATOM     13  C   UNL     1      -2.048   2.207  23.625  0.00  0.00    +0.249 C 
ATOM     14  C   UNL     1      -1.340   0.936  23.926  0.00  0.00    +0.059 A 
ATOM     15  C   UNL     1      -1.983  -0.276  24.234  0.00  0.00    +0.046 A 
ATOM     16  C   UNL     1       0.051   0.945  23.712  0.00  0.00    +0.023 A 
ATOM     17  C   UNL     1      -1.224  -1.459  24.257  0.00  0.00    +0.024 A 
ATOM     18  C   UNL     1       0.793  -0.232  23.785  0.00  0.00    -0.014 A 
ATOM     19  C   UNL     1       0.154  -1.436  24.045  0.00  0.00    +0.010 A 
ATOM     26  H   UNL     1      -3.730  -1.377  24.378  0.00  0.00    +0.155 HD
ENDROOT
BRANCH  18  20
ATOM      1  F   UNL     1       2.132   2.094  22.952  0.00  0.00    -0.205 F 
ATOM      2  F   UNL     1       6.307  -0.129  22.956  0.00  0.00    -0.205 F 
ATOM     20  C   UNL     1       2.224  -0.201  23.569  0.00  0.00    +0.018 A 
ATOM     21  C   UNL     1       2.846   0.977  23.157  0.00  0.00    +0.134 A 
ATOM     22  C   UNL     1       2.981  -1.354  23.775  0.00  0.00    +0.014 A 
ATOM     23  C   UNL     1       4.225   1.002  22.949  0.00  0.00    +0.077 A 
ATOM     24  C   UNL     1       4.360  -1.330  23.568  0.00  0.00    +0.039 A 
ATOM     25  C   UNL     1       4.982  -0.151  23.155  0.00  0.00    +0.126 A 
ENDBRANCH  18  20
BRANCH  10   3
ATOM      3  O   UNL     1      -5.699   4.797  25.384  0.00  0.00    -0.390 OA
ATOM     27  H   UNL     1      -6.060   5.241  24.599  0.00  0.00    +0.210 HD
ENDBRANCH  10   3
TORSDOF 2
ENDMDL
MODEL 2
REMARK VINA RESULT:       2.8      1.874      2.935
REMARK  Name = 11941628
REMARK  2 active torsions:
REMARK  status: ('A' for Active; 'I' for Inactive)
REMARK    1  A    between atoms: O_3  and  C_10
REMARK    2  A    between atoms: C_18  and  C_20
REMARK                            x       y       z     vdW  Elec       q    Type
REMARK                         _______ _______ _______ _____ _____    ______ ____
ROOT
ATOM      4  O   UNL     1      -4.660   4.084  26.824  0.00  0.00    -0.273 OA
ATOM      5  O   UNL     1      -2.824  -0.347  24.621  0.00  0.00    -0.270 OA
ATOM      6  N   UNL     1      -4.136   1.534  24.791  0.00  0.00    -0.283 N 
ATOM      7  N   UNL     1      -2.524   3.473  26.312  0.00  0.00    -0.283 N 
ATOM      8  C   UNL     1      -4.325   2.968  24.716  0.00  0.00    +0.165 C 
ATOM      9  C   UNL     1      -5.816   3.140  24.430  0.00  0.00    +0.065 C 
ATOM     10  C   UNL     1      -6.448   1.902  25.065  0.00  0.00    +0.134 C 
ATOM     11  C   UNL     1      -5.407   0.824  24.811  0.00  0.00    +0.140 C 
ATOM     12  C   UNL     1      -3.879   3.524  26.053  0.00  0.00    +0.238 C 
ATOM     13  C   UNL     1      -2.928   0.877  24.710  0.00  0.00    +0.249 C 
ATOM     14  C   UNL     1      -1.685   1.690  24.759  0.00  0.00    +0.059 A 
ATOM     15  C   UNL     1      -1.511   2.822  25.575  0.00  0.00    +0.046 A 
ATOM     16  C   UNL     1      -0.582   1.164  24.062  0.00  0.00    +0.023 A 
ATOM     17  C   UNL     1      -0.220   3.359  25.720  0.00  0.00    +0.024 A 
ATOM     18  C   UNL     1       0.681   1.740  24.184  0.00  0.00    -0.014 A 
ATOM     19  C   UNL     1       0.866   2.830  25.023  0.00  0.00    +0.010 A 
ATOM     26  H   UNL     1      -2.208   4.050  27.088  0.00  0.00    +0.155 HD
ENDROOT
BRANCH  18  20
ATOM      1  F   UNL     1       0.483  -0.645  22.712  0.00  0.00    -0.205 F 
ATOM      2  F   UNL     1       5.012  -0.373  21.377  0.00  0.00    -0.205 F 
ATOM     20  C   UNL     1       1.804   1.189  23.454  0.00  0.00    +0.018 A 
ATOM     21  C   UNL     1       1.658   0.002  22.736  0.00  0.00    +0.134 A 
ATOM     22  C   UNL     1       3.033   1.847  23.470  0.00  0.00    +0.014 A 
ATOM     23  C   UNL     1       2.741  -0.526  22.034  0.00  0.00    +0.077 A 
ATOM     24  C   UNL     1       4.116   1.320  22.769  0.00  0.00    +0.039 A 
ATOM     25  C   UNL     1       3.970   0.133  22.051  0.00  0.00    +0.126 A 
ENDBRANCH  18  20
BRANCH  10   3
ATOM      3  O   UNL     1      -7.678   1.576  24.449  0.00  0.00    -0.390 OA
ATOM     27  H   UNL     1      -7.565   1.693  23.491  0.00  0.00    +0.210 HD
ENDBRANCH  10   3
TORSDOF 2
ENDMDL
MODEL 3
REMARK VINA RESULT:       3.0      3.525      7.566
REMARK  Name = 11941628
REMARK  2 active torsions:
REMARK  status: ('A' for Active; 'I' for Inactive)
REMARK    1  A    between atoms: O_3  and  C_10
REMARK    2  A    between atoms: C_18  and  C_20
REMARK                            x       y       z     vdW  Elec       q    Type
REMARK                         _______ _______ _______ _____ _____    ______ ____
ROOT
ATOM      4  O   UNL     1       2.141  -2.173  23.946  0.00  0.00    -0.273 OA
ATOM      5  O   UNL     1       0.927   2.919  24.618  0.00  0.00    -0.270 OA
ATOM      6  N   UNL     1       1.617   1.053  23.466  0.00  0.00    -0.283 N 
ATOM      7  N   UNL     1       0.237  -1.210  24.750  0.00  0.00    -0.283 N 
ATOM      8  C   UNL     1       1.352  -0.206  22.801  0.00  0.00    +0.165 C 
ATOM      9  C   UNL     1       2.505  -0.363  21.812  0.00  0.00    +0.065 C 
ATOM     10  C   UNL     1       3.653   0.397  22.475  0.00  0.00    +0.134 C 
ATOM     11  C   UNL     1       2.942   1.563  23.144  0.00  0.00    +0.140 C 
ATOM     12  C   UNL     1       1.315  -1.259  23.889  0.00  0.00    +0.238 C 
ATOM     13  C   UNL     1       0.708   1.782  24.202  0.00  0.00    +0.249 C 
ATOM     14  C   UNL     1      -0.596   1.146  24.529  0.00  0.00    +0.059 A 
ATOM     15  C   UNL     1      -0.754  -0.210  24.862  0.00  0.00    +0.046 A 
ATOM     16  C   UNL     1      -1.685   2.025  24.671  0.00  0.00    +0.023 A 
ATOM     17  C   UNL     1      -1.985  -0.638  25.389  0.00  0.00    +0.024 A 
ATOM     18  C   UNL     1      -2.912   1.571  25.152  0.00  0.00    -0.014 A 
ATOM     19  C   UNL     1      -3.059   0.241  25.523  0.00  0.00    +0.010 A 
ATOM     26  H   UNL     1       0.094  -2.042  25.317  0.00  0.00    +0.155 HD
ENDROOT
BRANCH  18  20
ATOM      1  F   UNL     1      -2.554   4.357  25.219  0.00  0.00    -0.205 F 
ATOM      2  F   UNL     1      -7.205   5.093  25.664  0.00  0.00    -0.205 F 
ATOM     20  C   UNL     1      -4.024   2.488  25.285  0.00  0.00    +0.018 A 
ATOM     21  C   UNL     1      -3.798   3.864  25.312  0.00  0.00    +0.134 A 
ATOM     22  C   UNL     1      -5.323   1.992  25.386  0.00  0.00    +0.014 A 
ATOM     23  C   UNL     1      -4.872   4.745  25.440  0.00  0.00    +0.077 A 
ATOM     24  C   UNL     1      -6.398   2.872  25.514  0.00  0.00    +0.039 A 
ATOM     25  C   UNL     1      -6.172   4.249  25.541  0.00  0.00    +0.126 A 
ENDBRANCH  18  20
BRANCH  10   3
ATOM      3  O   UNL     1       4.590   0.853  21.520  0.00  0.00    -0.390 OA
ATOM     27  H   UNL     1       5.289   1.329  22.001  0.00  0.00    +0.210 HD
ENDBRANCH  10   3
TORSDOF 2
ENDMDL
