MODEL 1
REMARK VINA RESULT:       3.5      0.000      0.000
REMARK  Name = 11887581
REMARK  11 active torsions:
REMARK  status: ('A' for Active; 'I' for Inactive)
REMARK    1  A    between atoms: O_4  and  C_21
REMARK    2  A    between atoms: O_4  and  C_31
REMARK    3  A    between atoms: O_6  and  C_30
REMARK    4  A    between atoms: O_6  and  C_35
REMARK    5  A    between atoms: N_9  and  C_18
REMARK    6  A    between atoms: N_10  and  C_23
REMARK    7  A    between atoms: C_11  and  C_15
REMARK    8  A    between atoms: C_16  and  C_20
REMARK    9  A    between atoms: C_18  and  C_19
REMARK   10  A    between atoms: C_18  and  C_21
REMARK   11  A    between atoms: C_19  and  C_22
REMARK                            x       y       z     vdW  Elec       q    Type
REMARK                         _______ _______ _______ _____ _____    ______ ____
ROOT
ATOM      2  O   UNL     1      -3.727   4.825  24.302  0.00  0.00    -0.276 OA
ATOM      3  O   UNL     1       0.530  -0.995  23.012  0.00  0.00    -0.252 OA
ATOM      7  N   UNL     1      -2.714   2.837  23.644  0.00  0.00    -0.287 N 
ATOM      8  N   UNL     1      -0.376   1.118  23.276  0.00  0.00    -0.282 N 
ATOM     10  N   UNL     1       1.933   0.857  22.871  0.00  0.00    -0.269 N 
ATOM     11  C   UNL     1      -1.390   3.275  24.085  0.00  0.00    +0.179 C 
ATOM     12  C   UNL     1      -0.240   2.579  23.357  0.00  0.00    +0.141 C 
ATOM     13  C   UNL     1      -2.804   1.524  22.996  0.00  0.00    +0.127 C 
ATOM     14  C   UNL     1      -1.717   0.565  23.458  0.00  0.00    +0.128 C 
ATOM     16  C   UNL     1      -3.793   3.720  23.758  0.00  0.00    +0.213 C 
ATOM     17  C   UNL     1       0.701   0.225  23.054  0.00  0.00    +0.307 C 
ATOM     20  C   UNL     1      -5.105   3.253  23.177  0.00  0.00    +0.109 C 
ATOM     37  H   UNL     1       1.925   1.805  22.506  0.00  0.00    +0.156 HD
ENDROOT
BRANCH  10  23
ATOM     23  C   UNL     1       3.218   0.359  23.201  0.00  0.00    +0.035 A 
ATOM     26  C   UNL     1       3.373  -0.976  23.575  0.00  0.00    +0.023 A 
ATOM     27  C   UNL     1       4.326   1.203  23.150  0.00  0.00    +0.023 A 
ATOM     32  C   UNL     1       4.638  -1.467  23.899  0.00  0.00    +0.002 A 
ATOM     33  C   UNL     1       5.591   0.712  23.474  0.00  0.00    +0.002 A 
ATOM     34  C   UNL     1       5.747  -0.622  23.847  0.00  0.00    +0.000 A 
ENDBRANCH  10  23
BRANCH  11  15
ATOM      1  O   UNL     1      -1.759   3.851  26.376  0.00  0.00    -0.274 OA
ATOM      9  N   UNL     1      -0.644   1.869  25.877  0.00  0.00    -0.301 N 
ATOM     15  C   UNL     1      -1.302   3.046  25.567  0.00  0.00    +0.236 C 
ATOM     36  H   UNL     1      -0.324   1.265  25.126  0.00  0.00    +0.150 HD
BRANCH   9  18
ATOM     18  C   UNL     1      -0.408   1.429  27.234  0.00  0.00    +0.186 C 
BRANCH  18  21
ATOM      5  O   UNL     1       1.577   2.807  27.268  0.00  0.00    -0.249 OA
ATOM     21  C   UNL     1       0.722   2.200  27.905  0.00  0.00    +0.328 C 
BRANCH  21   4
ATOM      4  O   UNL     1       0.667   2.113  29.263  0.00  0.00    -0.467 OA
ATOM     31  C   UNL     1       1.931   2.086  29.935  0.00  0.00    +0.280 C 
ENDBRANCH  21   4
ENDBRANCH  18  21
BRANCH  18  19
ATOM     19  C   UNL     1      -0.184  -0.090  27.298  0.00  0.00    +0.069 C 
BRANCH  19  22
ATOM     22  C   UNL     1      -1.140  -0.905  26.457  0.00  0.00    -0.045 A 
ATOM     24  C   UNL     1      -2.514  -0.680  26.547  0.00  0.00    +0.007 A 
ATOM     25  C   UNL     1      -0.648  -1.883  25.593  0.00  0.00    +0.007 A 
ATOM     28  C   UNL     1      -3.396  -1.432  25.771  0.00  0.00    +0.046 A 
ATOM     29  C   UNL     1      -1.530  -2.635  24.818  0.00  0.00    +0.046 A 
ATOM     30  C   UNL     1      -2.904  -2.410  24.906  0.00  0.00    +0.120 A 
BRANCH  30   6
ATOM      6  O   UNL     1      -3.765  -3.144  24.149  0.00  0.00    -0.495 OA
ATOM     35  C   UNL     1      -4.771  -2.430  23.433  0.00  0.00    +0.277 C 
ENDBRANCH  30   6
ENDBRANCH  19  22
ENDBRANCH  18  19
ENDBRANCH   9  18
ENDBRANCH  11  15
TORSDOF 8
ENDMDL
MODEL 2
REMARK VINA RESULT:       4.0      1.787      3.750
REMARK  Name = 11887581
REMARK  11 active torsions:
REMARK  status: ('A' for Active; 'I' for Inactive)
REMARK    1  A    between atoms: O_4  and  C_21
REMARK    2  A    between atoms: O_4  and  C_31
REMARK    3  A    between atoms: O_6  and  C_30
REMARK    4  A    between atoms: O_6  and  C_35
REMARK    5  A    between atoms: N_9  and  C_18
REMARK    6  A    between atoms: N_10  and  C_23
REMARK    7  A    between atoms: C_11  and  C_15
REMARK    8  A    between atoms: C_16  and  C_20
REMARK    9  A    between atoms: C_18  and  C_19
REMARK   10  A    between atoms: C_18  and  C_21
REMARK   11  A    between atoms: C_19  and  C_22
REMARK                            x       y       z     vdW  Elec       q    Type
REMARK                         _______ _______ _______ _____ _____    ______ ____
ROOT
ATOM      2  O   UNL     1      -2.924   4.124  25.683  0.00  0.00    -0.276 OA
ATOM      3  O   UNL     1       1.464  -0.259  21.784  0.00  0.00    -0.252 OA
ATOM      7  N   UNL     1      -1.783   2.853  24.103  0.00  0.00    -0.287 N 
ATOM      8  N   UNL     1       0.543   1.332  23.189  0.00  0.00    -0.282 N 
ATOM     10  N   UNL     1       2.866   0.928  23.214  0.00  0.00    -0.269 N 
ATOM     11  C   UNL     1      -0.641   2.633  24.990  0.00  0.00    +0.179 C 
ATOM     12  C   UNL     1       0.664   2.344  24.249  0.00  0.00    +0.141 C 
ATOM     13  C   UNL     1      -1.693   2.304  22.746  0.00  0.00    +0.127 C 
ATOM     14  C   UNL     1      -0.798   1.076  22.667  0.00  0.00    +0.128 C 
ATOM     16  C   UNL     1      -2.839   3.658  24.544  0.00  0.00    +0.213 C 
ATOM     17  C   UNL     1       1.628   0.590  22.663  0.00  0.00    +0.307 C 
ATOM     20  C   UNL     1      -3.928   3.944  23.540  0.00  0.00    +0.109 C 
ATOM     37  H   UNL     1       2.975   1.869  23.582  0.00  0.00    +0.156 HD
ENDROOT
BRANCH  10  23
ATOM     23  C   UNL     1       3.993   0.088  23.389  0.00  0.00    +0.035 A 
ATOM     26  C   UNL     1       3.816  -1.264  23.685  0.00  0.00    +0.023 A 
ATOM     27  C   UNL     1       5.279   0.612  23.267  0.00  0.00    +0.023 A 
ATOM     32  C   UNL     1       4.926  -2.091  23.857  0.00  0.00    +0.002 A 
ATOM     33  C   UNL     1       6.389  -0.215  23.439  0.00  0.00    +0.002 A 
ATOM     34  C   UNL     1       6.212  -1.566  23.733  0.00  0.00    +0.000 A 
ENDBRANCH  10  23
BRANCH  11  15
ATOM      1  O   UNL     1      -0.771   1.562  27.123  0.00  0.00    -0.274 OA
ATOM      9  N   UNL     1      -1.554   0.431  25.245  0.00  0.00    -0.301 N 
ATOM     15  C   UNL     1      -0.993   1.504  25.916  0.00  0.00    +0.236 C 
ATOM     36  H   UNL     1      -1.713   0.499  24.244  0.00  0.00    +0.150 HD
BRANCH   9  18
ATOM     18  C   UNL     1      -1.961  -0.789  25.905  0.00  0.00    +0.186 C 
BRANCH  18  21
ATOM      5  O   UNL     1       0.168  -1.931  25.812  0.00  0.00    -0.249 OA
ATOM     21  C   UNL     1      -1.037  -1.957  25.582  0.00  0.00    +0.328 C 
BRANCH  21   4
ATOM      4  O   UNL     1      -1.704  -2.996  25.005  0.00  0.00    -0.467 OA
ATOM     31  C   UNL     1      -1.667  -3.040  23.575  0.00  0.00    +0.280 C 
ENDBRANCH  21   4
ENDBRANCH  18  21
BRANCH  18  19
ATOM     19  C   UNL     1      -3.431  -1.121  25.610  0.00  0.00    +0.069 C 
BRANCH  19  22
ATOM     22  C   UNL     1      -4.341   0.082  25.503  0.00  0.00    -0.045 A 
ATOM     24  C   UNL     1      -4.767   0.524  24.251  0.00  0.00    +0.007 A 
ATOM     25  C   UNL     1      -4.752   0.749  26.656  0.00  0.00    +0.007 A 
ATOM     28  C   UNL     1      -5.606   1.635  24.153  0.00  0.00    +0.046 A 
ATOM     29  C   UNL     1      -5.591   1.859  26.558  0.00  0.00    +0.046 A 
ATOM     30  C   UNL     1      -6.018   2.302  25.306  0.00  0.00    +0.120 A 
BRANCH  30   6
ATOM      6  O   UNL     1      -6.837   3.385  25.210  0.00  0.00    -0.495 OA
ATOM     35  C   UNL     1      -6.326   4.629  25.683  0.00  0.00    +0.277 C 
ENDBRANCH  30   6
ENDBRANCH  19  22
ENDBRANCH  18  19
ENDBRANCH   9  18
ENDBRANCH  11  15
TORSDOF 8
ENDMDL
MODEL 3
REMARK VINA RESULT:       5.2      1.875      3.823
REMARK  Name = 11887581
REMARK  11 active torsions:
REMARK  status: ('A' for Active; 'I' for Inactive)
REMARK    1  A    between atoms: O_4  and  C_21
REMARK    2  A    between atoms: O_4  and  C_31
REMARK    3  A    between atoms: O_6  and  C_30
REMARK    4  A    between atoms: O_6  and  C_35
REMARK    5  A    between atoms: N_9  and  C_18
REMARK    6  A    between atoms: N_10  and  C_23
REMARK    7  A    between atoms: C_11  and  C_15
REMARK    8  A    between atoms: C_16  and  C_20
REMARK    9  A    between atoms: C_18  and  C_19
REMARK   10  A    between atoms: C_18  and  C_21
REMARK   11  A    between atoms: C_19  and  C_22
REMARK                            x       y       z     vdW  Elec       q    Type
REMARK                         _______ _______ _______ _____ _____    ______ ____
ROOT
ATOM      2  O   UNL     1      -4.255   0.856  23.526  0.00  0.00    -0.276 OA
ATOM      3  O   UNL     1       2.114  -2.421  25.063  0.00  0.00    -0.252 OA
ATOM      7  N   UNL     1      -2.478  -0.552  24.048  0.00  0.00    -0.287 N 
ATOM      8  N   UNL     1       0.375  -1.194  24.157  0.00  0.00    -0.282 N 
ATOM     10  N   UNL     1       2.558  -0.975  23.295  0.00  0.00    -0.269 N 
ATOM     11  C   UNL     1      -1.477   0.428  23.627  0.00  0.00    +0.179 C 
ATOM     12  C   UNL     1      -0.145  -0.196  23.210  0.00  0.00    +0.141 C 
ATOM     13  C   UNL     1      -1.988  -1.860  24.495  0.00  0.00    +0.127 C 
ATOM     14  C   UNL     1      -0.585  -1.793  25.082  0.00  0.00    +0.128 C 
ATOM     16  C   UNL     1      -3.834  -0.241  23.901  0.00  0.00    +0.213 C 
ATOM     17  C   UNL     1       1.731  -1.590  24.237  0.00  0.00    +0.307 C 
ATOM     20  C   UNL     1      -4.813  -1.338  24.241  0.00  0.00    +0.109 C 
ATOM     37  H   UNL     1       2.131  -0.661  22.428  0.00  0.00    +0.156 HD
ENDROOT
BRANCH  10  23
ATOM     23  C   UNL     1       3.935  -0.664  23.424  0.00  0.00    +0.035 A 
ATOM     26  C   UNL     1       4.396   0.610  23.092  0.00  0.00    +0.023 A 
ATOM     27  C   UNL     1       4.828  -1.631  23.884  0.00  0.00    +0.023 A 
ATOM     32  C   UNL     1       5.750   0.917  23.220  0.00  0.00    +0.002 A 
ATOM     33  C   UNL     1       6.182  -1.324  24.012  0.00  0.00    +0.002 A 
ATOM     34  C   UNL     1       6.644  -0.051  23.681  0.00  0.00    +0.000 A 
ENDBRANCH  10  23
BRANCH  11  15
ATOM      1  O   UNL     1      -1.964   1.349  25.779  0.00  0.00    -0.274 OA
ATOM      9  N   UNL     1      -0.291   2.326  24.487  0.00  0.00    -0.301 N 
ATOM     15  C   UNL     1      -1.283   1.398  24.758  0.00  0.00    +0.236 C 
ATOM     36  H   UNL     1       0.227   2.261  23.616  0.00  0.00    +0.150 HD
BRANCH   9  18
ATOM     18  C   UNL     1       0.075   3.382  25.404  0.00  0.00    +0.186 C 
BRANCH  18  21
ATOM      5  O   UNL     1      -0.814   2.716  27.551  0.00  0.00    -0.249 OA
ATOM     21  C   UNL     1       0.173   2.891  26.843  0.00  0.00    +0.328 C 
BRANCH  21   4
ATOM      4  O   UNL     1       1.464   2.696  27.233  0.00  0.00    -0.467 OA
ATOM     31  C   UNL     1       1.687   2.661  28.646  0.00  0.00    +0.280 C 
ENDBRANCH  21   4
ENDBRANCH  18  21
BRANCH  18  19
ATOM     19  C   UNL     1      -0.866   4.589  25.271  0.00  0.00    +0.069 C 
BRANCH  19  22
ATOM     22  C   UNL     1      -2.338   4.248  25.301  0.00  0.00    -0.045 A 
ATOM     24  C   UNL     1      -3.003   4.138  26.522  0.00  0.00    +0.007 A 
ATOM     25  C   UNL     1      -3.030   4.043  24.109  0.00  0.00    +0.007 A 
ATOM     28  C   UNL     1      -4.362   3.824  26.550  0.00  0.00    +0.046 A 
ATOM     29  C   UNL     1      -4.389   3.728  24.136  0.00  0.00    +0.046 A 
ATOM     30  C   UNL     1      -5.055   3.619  25.358  0.00  0.00    +0.120 A 
BRANCH  30   6
ATOM      6  O   UNL     1      -6.381   3.312  25.385  0.00  0.00    -0.495 OA
ATOM     35  C   UNL     1      -6.731   1.934  25.278  0.00  0.00    +0.277 C 
ENDBRANCH  30   6
ENDBRANCH  19  22
ENDBRANCH  18  19
ENDBRANCH   9  18
ENDBRANCH  11  15
TORSDOF 8
ENDMDL
