MODEL 1
REMARK VINA RESULT:      -3.3      0.000      0.000
REMARK  Name = 45783562
REMARK  10 active torsions:
REMARK  status: ('A' for Active; 'I' for Inactive)
REMARK    1  A    between atoms: O_2  and  C_16
REMARK    2  A    between atoms: O_3  and  C_26
REMARK    3  A    between atoms: O_3  and  C_27
REMARK    4  A    between atoms: O_4  and  C_28
REMARK    5  A    between atoms: O_4  and  C_29
REMARK    6  A    between atoms: N_5  and  C_13
REMARK    7  A    between atoms: C_9  and  C_14
REMARK    8  A    between atoms: C_13  and  C_15
REMARK    9  A    between atoms: C_18  and  C_21
REMARK   10  A    between atoms: C_27  and  C_28
REMARK                            x       y       z     vdW  Elec       q    Type
REMARK                         _______ _______ _______ _____ _____    ______ ____
ROOT
ATOM      1  O   UNL     1      -2.071   2.937  25.292  0.00  0.00    -0.336 OA
ATOM      6  N   UNL     1      -1.864   1.489  23.596  0.00  0.00    -0.190 NA
ATOM      7  N   UNL     1      -0.697   2.728  25.125  0.00  0.00    -0.056 NA
ATOM     14  C   UNL     1      -2.686   2.170  24.354  0.00  0.00    +0.245 A 
ATOM     18  C   UNL     1      -0.655   1.863  24.107  0.00  0.00    +0.204 A 
ENDROOT
BRANCH  18  21
ATOM      8  N   UNL     1       2.931   1.683  23.139  0.00  0.00    -0.221 NA
ATOM     21  C   UNL     1       0.577   1.352  23.578  0.00  0.00    +0.041 A 
ATOM     23  C   UNL     1       0.641   0.087  23.005  0.00  0.00    +0.018 A 
ATOM     24  C   UNL     1       1.740   2.105  23.620  0.00  0.00    +0.126 A 
ATOM     25  C   UNL     1       1.849  -0.381  22.501  0.00  0.00    +0.068 A 
ATOM     26  C   UNL     1       2.954   0.448  22.590  0.00  0.00    +0.215 A 
BRANCH  26   3
ATOM      3  O   UNL     1       4.156   0.010  22.099  0.00  0.00    -0.474 OA
BRANCH   3  27
ATOM     27  C   UNL     1       5.326   0.469  22.765  0.00  0.00    +0.258 C 
BRANCH  27  28
ATOM     28  C   UNL     1       5.215   0.143  24.242  0.00  0.00    +0.200 C 
BRANCH  28   4
ATOM      4  O   UNL     1       5.629  -1.202  24.452  0.00  0.00    -0.380 OA
ATOM     29  C   UNL     1       4.649  -2.125  23.999  0.00  0.00    +0.194 C 
ENDBRANCH  28   4
ENDBRANCH  27  28
ENDBRANCH   3  27
ENDBRANCH  26   3
ENDBRANCH  18  21
BRANCH  14   9
ATOM      5  N   UNL     1      -4.814   1.383  25.375  0.00  0.00    -0.287 NA
ATOM      9  C   UNL     1      -4.199   2.221  24.326  0.00  0.00    +0.146 C 
ATOM     10  C   UNL     1      -4.753   3.635  24.581  0.00  0.00    +0.030 C 
ATOM     11  C   UNL     1      -5.713   3.481  25.751  0.00  0.00    +0.017 C 
ATOM     12  C   UNL     1      -6.090   2.013  25.713  0.00  0.00    +0.085 C 
BRANCH   5  13
ATOM     13  C   UNL     1      -4.978  -0.009  24.975  0.00  0.00    +0.124 C 
BRANCH  13  15
ATOM     15  C   UNL     1      -3.688  -0.777  25.073  0.00  0.00    +0.008 A 
ATOM     16  C   UNL     1      -3.435  -1.857  24.227  0.00  0.00    +0.121 A 
ATOM     17  C   UNL     1      -2.740  -0.400  26.024  0.00  0.00    +0.008 A 
ATOM     19  C   UNL     1      -2.234  -2.560  24.333  0.00  0.00    +0.046 A 
ATOM     20  C   UNL     1      -1.540  -1.101  26.130  0.00  0.00    +0.001 A 
ATOM     22  C   UNL     1      -1.286  -2.181  25.284  0.00  0.00    +0.004 A 
BRANCH  16   2
ATOM      2  O   UNL     1      -4.350  -2.241  23.293  0.00  0.00    -0.506 OA
ATOM     30  H   UNL     1      -4.172  -1.769  22.463  0.00  0.00    +0.292 HD
ENDBRANCH  16   2
ENDBRANCH  13  15
ENDBRANCH   5  13
ENDBRANCH  14   9
TORSDOF 9
ENDMDL
MODEL 2
REMARK VINA RESULT:      -2.7      0.882      1.279
REMARK  Name = 45783562
REMARK  10 active torsions:
REMARK  status: ('A' for Active; 'I' for Inactive)
REMARK    1  A    between atoms: O_2  and  C_16
REMARK    2  A    between atoms: O_3  and  C_26
REMARK    3  A    between atoms: O_3  and  C_27
REMARK    4  A    between atoms: O_4  and  C_28
REMARK    5  A    between atoms: O_4  and  C_29
REMARK    6  A    between atoms: N_5  and  C_13
REMARK    7  A    between atoms: C_9  and  C_14
REMARK    8  A    between atoms: C_13  and  C_15
REMARK    9  A    between atoms: C_18  and  C_21
REMARK   10  A    between atoms: C_27  and  C_28
REMARK                            x       y       z     vdW  Elec       q    Type
REMARK                         _______ _______ _______ _____ _____    ______ ____
ROOT
ATOM      1  O   UNL     1      -2.200   3.563  24.586  0.00  0.00    -0.336 OA
ATOM      6  N   UNL     1      -2.049   1.481  23.773  0.00  0.00    -0.190 NA
ATOM      7  N   UNL     1      -0.834   3.311  24.415  0.00  0.00    -0.056 NA
ATOM     14  C   UNL     1      -2.844   2.436  24.185  0.00  0.00    +0.245 A 
ATOM     18  C   UNL     1      -0.825   2.064  23.933  0.00  0.00    +0.204 A 
ENDROOT
BRANCH  18  21
ATOM      8  N   UNL     1       1.494  -0.699  23.029  0.00  0.00    -0.221 NA
ATOM     21  C   UNL     1       0.388   1.373  23.601  0.00  0.00    +0.041 A 
ATOM     23  C   UNL     1       1.600   2.049  23.528  0.00  0.00    +0.018 A 
ATOM     24  C   UNL     1       0.388   0.011  23.345  0.00  0.00    +0.126 A 
ATOM     25  C   UNL     1       2.760   1.353  23.205  0.00  0.00    +0.068 A 
ATOM     26  C   UNL     1       2.654  -0.007  22.968  0.00  0.00    +0.215 A 
BRANCH  26   3
ATOM      3  O   UNL     1       3.783  -0.716  22.649  0.00  0.00    -0.474 OA
BRANCH   3  27
ATOM     27  C   UNL     1       4.404  -1.442  23.703  0.00  0.00    +0.258 C 
BRANCH  27  28
ATOM     28  C   UNL     1       5.398  -0.539  24.406  0.00  0.00    +0.200 C 
BRANCH  28   4
ATOM      4  O   UNL     1       6.095   0.231  23.433  0.00  0.00    -0.380 OA
ATOM     29  C   UNL     1       7.156  -0.509  22.846  0.00  0.00    +0.194 C 
ENDBRANCH  28   4
ENDBRANCH  27  28
ENDBRANCH   3  27
ENDBRANCH  26   3
ENDBRANCH  18  21
BRANCH  14   9
ATOM      5  N   UNL     1      -4.880   1.464  25.236  0.00  0.00    -0.287 NA
ATOM      9  C   UNL     1      -4.356   2.454  24.274  0.00  0.00    +0.146 C 
ATOM     10  C   UNL     1      -4.907   3.806  24.764  0.00  0.00    +0.030 C 
ATOM     11  C   UNL     1      -5.776   3.468  25.968  0.00  0.00    +0.017 C 
ATOM     12  C   UNL     1      -6.136   2.012  25.750  0.00  0.00    +0.085 C 
BRANCH   5  13
ATOM     13  C   UNL     1      -5.056   0.138  24.657  0.00  0.00    +0.124 C 
BRANCH  13  15
ATOM     15  C   UNL     1      -3.864  -0.745  24.905  0.00  0.00    +0.008 A 
ATOM     16  C   UNL     1      -3.709  -1.946  24.211  0.00  0.00    +0.121 A 
ATOM     17  C   UNL     1      -2.906  -0.352  25.840  0.00  0.00    +0.008 A 
ATOM     19  C   UNL     1      -2.598  -2.754  24.455  0.00  0.00    +0.046 A 
ATOM     20  C   UNL     1      -1.795  -1.159  26.083  0.00  0.00    +0.001 A 
ATOM     22  C   UNL     1      -1.641  -2.360  25.390  0.00  0.00    +0.004 A 
BRANCH  16   2
ATOM      2  O   UNL     1      -4.635  -2.346  23.295  0.00  0.00    -0.506 OA
ATOM     30  H   UNL     1      -4.175  -2.660  22.498  0.00  0.00    +0.292 HD
ENDBRANCH  16   2
ENDBRANCH  13  15
ENDBRANCH   5  13
ENDBRANCH  14   9
TORSDOF 9
ENDMDL
MODEL 3
REMARK VINA RESULT:      -2.3      1.770      3.652
REMARK  Name = 45783562
REMARK  10 active torsions:
REMARK  status: ('A' for Active; 'I' for Inactive)
REMARK    1  A    between atoms: O_2  and  C_16
REMARK    2  A    between atoms: O_3  and  C_26
REMARK    3  A    between atoms: O_3  and  C_27
REMARK    4  A    between atoms: O_4  and  C_28
REMARK    5  A    between atoms: O_4  and  C_29
REMARK    6  A    between atoms: N_5  and  C_13
REMARK    7  A    between atoms: C_9  and  C_14
REMARK    8  A    between atoms: C_13  and  C_15
REMARK    9  A    between atoms: C_18  and  C_21
REMARK   10  A    between atoms: C_27  and  C_28
REMARK                            x       y       z     vdW  Elec       q    Type
REMARK                         _______ _______ _______ _____ _____    ______ ____
ROOT
ATOM      1  O   UNL     1      -2.770  -1.067  24.836  0.00  0.00    -0.336 OA
ATOM      6  N   UNL     1      -1.838   0.941  24.492  0.00  0.00    -0.190 NA
ATOM      7  N   UNL     1      -1.512  -1.313  24.273  0.00  0.00    -0.056 NA
ATOM     14  C   UNL     1      -2.882   0.284  24.930  0.00  0.00    +0.245 A 
ATOM     18  C   UNL     1      -1.024  -0.081  24.099  0.00  0.00    +0.204 A 
ENDROOT
BRANCH  18  21
ATOM      8  N   UNL     1       2.309   1.466  23.523  0.00  0.00    -0.221 NA
ATOM     21  C   UNL     1       0.273   0.163  23.534  0.00  0.00    +0.041 A 
ATOM     23  C   UNL     1       0.758  -0.617  22.491  0.00  0.00    +0.018 A 
ATOM     24  C   UNL     1       1.080   1.184  24.010  0.00  0.00    +0.126 A 
ATOM     25  C   UNL     1       2.017  -0.357  21.963  0.00  0.00    +0.068 A 
ATOM     26  C   UNL     1       2.746   0.687  22.508  0.00  0.00    +0.215 A 
BRANCH  26   3
ATOM      3  O   UNL     1       3.990   0.964  22.005  0.00  0.00    -0.474 OA
BRANCH   3  27
ATOM     27  C   UNL     1       5.053   0.115  22.422  0.00  0.00    +0.258 C 
BRANCH  27  28
ATOM     28  C   UNL     1       5.462   0.490  23.833  0.00  0.00    +0.200 C 
BRANCH  28   4
ATOM      4  O   UNL     1       5.486  -0.684  24.637  0.00  0.00    -0.380 OA
ATOM     29  C   UNL     1       4.787  -1.754  24.016  0.00  0.00    +0.194 C 
ENDBRANCH  28   4
ENDBRANCH  27  28
ENDBRANCH   3  27
ENDBRANCH  26   3
ENDBRANCH  18  21
BRANCH  14   9
ATOM      5  N   UNL     1      -4.346   2.264  25.290  0.00  0.00    -0.287 NA
ATOM      9  C   UNL     1      -4.173   0.815  25.517  0.00  0.00    +0.146 C 
ATOM     10  C   UNL     1      -5.423   0.170  24.890  0.00  0.00    +0.030 C 
ATOM     11  C   UNL     1      -6.265   1.335  24.391  0.00  0.00    +0.017 C 
ATOM     12  C   UNL     1      -5.788   2.504  25.230  0.00  0.00    +0.085 C 
BRANCH   5  13
ATOM     13  C   UNL     1      -3.695   3.085  26.304  0.00  0.00    +0.124 C 
BRANCH  13  15
ATOM     15  C   UNL     1      -2.581   3.914  25.724  0.00  0.00    +0.008 A 
ATOM     16  C   UNL     1      -1.248   3.547  25.909  0.00  0.00    +0.121 A 
ATOM     17  C   UNL     1      -2.893   5.062  24.994  0.00  0.00    +0.008 A 
ATOM     19  C   UNL     1      -0.228   4.328  25.366  0.00  0.00    +0.046 A 
ATOM     20  C   UNL     1      -1.873   5.842  24.451  0.00  0.00    +0.001 A 
ATOM     22  C   UNL     1      -0.540   5.475  24.636  0.00  0.00    +0.004 A 
BRANCH  16   2
ATOM      2  O   UNL     1      -0.925   2.429  26.620  0.00  0.00    -0.506 OA
ATOM     30  H   UNL     1      -1.352   2.475  27.492  0.00  0.00    +0.292 HD
ENDBRANCH  16   2
ENDBRANCH  13  15
ENDBRANCH   5  13
ENDBRANCH  14   9
TORSDOF 9
ENDMDL
MODEL 4
REMARK VINA RESULT:      -1.7      1.836      3.630
REMARK  Name = 45783562
REMARK  10 active torsions:
REMARK  status: ('A' for Active; 'I' for Inactive)
REMARK    1  A    between atoms: O_2  and  C_16
REMARK    2  A    between atoms: O_3  and  C_26
REMARK    3  A    between atoms: O_3  and  C_27
REMARK    4  A    between atoms: O_4  and  C_28
REMARK    5  A    between atoms: O_4  and  C_29
REMARK    6  A    between atoms: N_5  and  C_13
REMARK    7  A    between atoms: C_9  and  C_14
REMARK    8  A    between atoms: C_13  and  C_15
REMARK    9  A    between atoms: C_18  and  C_21
REMARK   10  A    between atoms: C_27  and  C_28
REMARK                            x       y       z     vdW  Elec       q    Type
REMARK                         _______ _______ _______ _____ _____    ______ ____
ROOT
ATOM      1  O   UNL     1      -3.274  -0.926  25.047  0.00  0.00    -0.336 OA
ATOM      6  N   UNL     1      -2.279   1.035  24.619  0.00  0.00    -0.190 NA
ATOM      7  N   UNL     1      -2.018  -1.235  24.512  0.00  0.00    -0.056 NA
ATOM     14  C   UNL     1      -3.347   0.431  25.075  0.00  0.00    +0.245 A 
ATOM     18  C   UNL     1      -1.491  -0.027  24.286  0.00  0.00    +0.204 A 
ENDROOT
BRANCH  18  21
ATOM      8  N   UNL     1       1.537  -0.612  22.207  0.00  0.00    -0.221 NA
ATOM     21  C   UNL     1      -0.182   0.151  23.726  0.00  0.00    +0.041 A 
ATOM     23  C   UNL     1       0.629   1.208  24.125  0.00  0.00    +0.018 A 
ATOM     24  C   UNL     1       0.314  -0.723  22.772  0.00  0.00    +0.126 A 
ATOM     25  C   UNL     1       1.893   1.356  23.565  0.00  0.00    +0.068 A 
ATOM     26  C   UNL     1       2.297   0.427  22.620  0.00  0.00    +0.215 A 
BRANCH  26   3
ATOM      3  O   UNL     1       3.539   0.551  22.055  0.00  0.00    -0.474 OA
BRANCH   3  27
ATOM     27  C   UNL     1       4.567   1.090  22.877  0.00  0.00    +0.258 C 
BRANCH  27  28
ATOM     28  C   UNL     1       5.599   0.013  23.149  0.00  0.00    +0.200 C 
BRANCH  28   4
ATOM      4  O   UNL     1       5.215  -0.714  24.312  0.00  0.00    -0.380 OA
ATOM     29  C   UNL     1       4.582  -1.940  23.974  0.00  0.00    +0.194 C 
ENDBRANCH  28   4
ENDBRANCH  27  28
ENDBRANCH   3  27
ENDBRANCH  26   3
ENDBRANCH  18  21
BRANCH  14   9
ATOM      5  N   UNL     1      -4.763   2.465  25.309  0.00  0.00    -0.287 NA
ATOM      9  C   UNL     1      -4.628   1.027  25.620  0.00  0.00    +0.146 C 
ATOM     10  C   UNL     1      -5.889   0.379  25.019  0.00  0.00    +0.030 C 
ATOM     11  C   UNL     1      -6.698   1.534  24.447  0.00  0.00    +0.017 C 
ATOM     12  C   UNL     1      -6.198   2.737  25.223  0.00  0.00    +0.085 C 
BRANCH   5  13
ATOM     13  C   UNL     1      -4.098   3.326  26.280  0.00  0.00    +0.124 C 
BRANCH  13  15
ATOM     15  C   UNL     1      -2.763   3.808  25.781  0.00  0.00    +0.008 A 
ATOM     16  C   UNL     1      -2.679   4.667  24.685  0.00  0.00    +0.121 A 
ATOM     17  C   UNL     1      -1.600   3.386  26.426  0.00  0.00    +0.008 A 
ATOM     19  C   UNL     1      -1.433   5.103  24.234  0.00  0.00    +0.046 A 
ATOM     20  C   UNL     1      -0.355   3.822  25.977  0.00  0.00    +0.001 A 
ATOM     22  C   UNL     1      -0.271   4.682  24.881  0.00  0.00    +0.004 A 
BRANCH  16   2
ATOM      2  O   UNL     1      -3.804   5.088  24.041  0.00  0.00    -0.506 OA
ATOM     30  H   UNL     1      -4.410   4.335  23.937  0.00  0.00    +0.292 HD
ENDBRANCH  16   2
ENDBRANCH  13  15
ENDBRANCH   5  13
ENDBRANCH  14   9
TORSDOF 9
ENDMDL
