MODEL 1
REMARK VINA RESULT:      -1.7      0.000      0.000
REMARK  Name = 11913161
REMARK  9 active torsions:
REMARK  status: ('A' for Active; 'I' for Inactive)
REMARK    1  A    between atoms: O_4  and  C_29
REMARK    2  A    between atoms: O_4  and  C_30
REMARK    3  A    between atoms: N_6  and  C_19
REMARK    4  A    between atoms: C_8  and  C_14
REMARK    5  A    between atoms: C_9  and  C_13
REMARK    6  A    between atoms: C_13  and  C_15
REMARK    7  A    between atoms: C_14  and  C_17
REMARK    8  A    between atoms: C_16  and  C_18
REMARK    9  A    between atoms: C_19  and  C_22
REMARK                            x       y       z     vdW  Elec       q    Type
REMARK                         _______ _______ _______ _____ _____    ______ ____
ROOT
ATOM      2  O   UNL     1       0.629   4.522  23.224  0.00  0.00    -0.270 OA
ATOM      5  N   UNL     1      -0.819   3.736  24.884  0.00  0.00    -0.297 N 
ATOM      8  C   UNL     1      -3.541   3.944  25.851  0.00  0.00    +0.004 C 
ATOM      9  C   UNL     1      -2.912   2.563  25.532  0.00  0.00    +0.010 C 
ATOM     10  C   UNL     1      -2.888   5.066  25.027  0.00  0.00    +0.023 C 
ATOM     11  C   UNL     1      -1.382   2.637  25.682  0.00  0.00    +0.112 C 
ATOM     12  C   UNL     1      -1.370   5.057  25.184  0.00  0.00    +0.108 C 
ATOM     16  C   UNL     1       0.160   3.606  23.897  0.00  0.00    +0.247 C 
ENDROOT
BRANCH  16  18
ATOM      1 CL   UNL     1       4.159   0.484  22.838  0.00  0.00    -0.062 Cl
ATOM      7  N   UNL     1       1.699  -0.290  23.105  0.00  0.00    -0.244 NA
ATOM     18  C   UNL     1       0.690   2.265  23.625  0.00  0.00    +0.041 A 
ATOM     20  C   UNL     1       2.050   2.085  23.391  0.00  0.00    +0.053 A 
ATOM     21  C   UNL     1      -0.164   1.169  23.598  0.00  0.00    +0.033 A 
ATOM     23  C   UNL     1       2.499   0.800  23.138  0.00  0.00    +0.130 A 
ATOM     24  C   UNL     1       0.384  -0.076  23.336  0.00  0.00    +0.113 A 
ENDBRANCH  16  18
BRANCH   9  13
ATOM     13  C   UNL     1      -3.286   2.013  24.150  0.00  0.00    +0.002 C 
ATOM     15  C   UNL     1      -3.279   3.109  23.106  0.00  0.00    +0.004 C 
ENDBRANCH   9  13
BRANCH   8  14
ATOM     14  C   UNL     1      -5.060   3.964  25.682  0.00  0.00    +0.099 C 
BRANCH  14  17
ATOM      3  O   UNL     1      -6.344   2.305  26.887  0.00  0.00    -0.276 OA
ATOM      6  N   UNL     1      -5.391   1.749  24.840  0.00  0.00    -0.311 N 
ATOM     17  C   UNL     1      -5.680   2.600  25.897  0.00  0.00    +0.214 C 
ATOM     31  H   UNL     1      -4.832   2.080  24.061  0.00  0.00    +0.149 HD
BRANCH   6  19
ATOM     19  C   UNL     1      -5.854   0.380  24.782  0.00  0.00    +0.139 C 
BRANCH  19  22
ATOM     22  C   UNL     1      -4.714  -0.597  24.779  0.00  0.00    -0.030 A 
ATOM     25  C   UNL     1      -4.636  -1.576  23.787  0.00  0.00    +0.009 A 
ATOM     26  C   UNL     1      -3.731  -0.525  25.766  0.00  0.00    +0.009 A 
ATOM     27  C   UNL     1      -3.576  -2.483  23.784  0.00  0.00    +0.046 A 
ATOM     28  C   UNL     1      -2.672  -1.432  25.763  0.00  0.00    +0.046 A 
ATOM     29  C   UNL     1      -2.594  -2.412  24.772  0.00  0.00    +0.120 A 
BRANCH  29   4
ATOM      4  O   UNL     1      -1.560  -3.296  24.769  0.00  0.00    -0.495 OA
ATOM     30  C   UNL     1      -0.333  -2.863  25.354  0.00  0.00    +0.277 C 
ENDBRANCH  29   4
ENDBRANCH  19  22
ENDBRANCH   6  19
ENDBRANCH  14  17
ENDBRANCH   8  14
TORSDOF 7
ENDMDL
MODEL 2
REMARK VINA RESULT:      -1.2      1.823      4.459
REMARK  Name = 11913161
REMARK  9 active torsions:
REMARK  status: ('A' for Active; 'I' for Inactive)
REMARK    1  A    between atoms: O_4  and  C_29
REMARK    2  A    between atoms: O_4  and  C_30
REMARK    3  A    between atoms: N_6  and  C_19
REMARK    4  A    between atoms: C_8  and  C_14
REMARK    5  A    between atoms: C_9  and  C_13
REMARK    6  A    between atoms: C_13  and  C_15
REMARK    7  A    between atoms: C_14  and  C_17
REMARK    8  A    between atoms: C_16  and  C_18
REMARK    9  A    between atoms: C_19  and  C_22
REMARK                            x       y       z     vdW  Elec       q    Type
REMARK                         _______ _______ _______ _____ _____    ______ ____
ROOT
ATOM      2  O   UNL     1      -0.422  -1.128  25.999  0.00  0.00    -0.270 OA
ATOM      5  N   UNL     1      -2.316  -1.018  24.631  0.00  0.00    -0.297 N 
ATOM      8  C   UNL     1      -4.984   0.097  24.478  0.00  0.00    +0.004 C 
ATOM      9  C   UNL     1      -3.959   0.325  23.337  0.00  0.00    +0.010 C 
ATOM     10  C   UNL     1      -4.285  -0.145  25.826  0.00  0.00    +0.023 C 
ATOM     11  C   UNL     1      -2.938  -0.827  23.312  0.00  0.00    +0.112 C 
ATOM     12  C   UNL     1      -3.256  -1.267  25.722  0.00  0.00    +0.108 C 
ATOM     16  C   UNL     1      -0.946  -0.974  24.897  0.00  0.00    +0.247 C 
ENDROOT
BRANCH  16  18
ATOM      1 CL   UNL     1       3.313   1.278  22.985  0.00  0.00    -0.062 Cl
ATOM      7  N   UNL     1       1.705  -0.247  21.639  0.00  0.00    -0.244 NA
ATOM     18  C   UNL     1      -0.033  -0.723  23.776  0.00  0.00    +0.041 A 
ATOM     20  C   UNL     1       1.084   0.087  23.952  0.00  0.00    +0.053 A 
ATOM     21  C   UNL     1      -0.281  -1.295  22.534  0.00  0.00    +0.033 A 
ATOM     23  C   UNL     1       1.913   0.292  22.861  0.00  0.00    +0.130 A 
ATOM     24  C   UNL     1       0.610  -1.029  21.507  0.00  0.00    +0.113 A 
ENDBRANCH  16  18
BRANCH   9  13
ATOM     13  C   UNL     1      -3.236   1.676  23.410  0.00  0.00    +0.002 C 
ATOM     15  C   UNL     1      -2.358   1.891  22.196  0.00  0.00    +0.004 C 
ENDBRANCH   9  13
BRANCH   8  14
ATOM     14  C   UNL     1      -6.010   1.224  24.596  0.00  0.00    +0.099 C 
BRANCH  14  17
ATOM      3  O   UNL     1      -5.844   2.758  26.460  0.00  0.00    -0.276 OA
ATOM      6  N   UNL     1      -4.493   3.075  24.594  0.00  0.00    -0.311 N 
ATOM     17  C   UNL     1      -5.463   2.422  25.342  0.00  0.00    +0.214 C 
ATOM     31  H   UNL     1      -4.241   2.726  23.675  0.00  0.00    +0.149 HD
BRANCH   6  19
ATOM     19  C   UNL     1      -3.801   4.256  25.060  0.00  0.00    +0.139 C 
BRANCH  19  22
ATOM     22  C   UNL     1      -2.405   3.944  25.517  0.00  0.00    -0.030 A 
ATOM     25  C   UNL     1      -2.187   2.935  26.455  0.00  0.00    +0.009 A 
ATOM     26  C   UNL     1      -1.326   4.662  25.001  0.00  0.00    +0.009 A 
ATOM     27  C   UNL     1      -0.889   2.645  26.879  0.00  0.00    +0.046 A 
ATOM     28  C   UNL     1      -0.029   4.372  25.424  0.00  0.00    +0.046 A 
ATOM     29  C   UNL     1       0.189   3.363  26.363  0.00  0.00    +0.120 A 
BRANCH  29   4
ATOM      4  O   UNL     1       1.455   3.080  26.775  0.00  0.00    -0.495 OA
ATOM     30  C   UNL     1       1.631   2.741  28.150  0.00  0.00    +0.277 C 
ENDBRANCH  29   4
ENDBRANCH  19  22
ENDBRANCH   6  19
ENDBRANCH  14  17
ENDBRANCH   8  14
TORSDOF 7
ENDMDL
MODEL 3
REMARK VINA RESULT:      -0.3      1.600      4.923
REMARK  Name = 11913161
REMARK  9 active torsions:
REMARK  status: ('A' for Active; 'I' for Inactive)
REMARK    1  A    between atoms: O_4  and  C_29
REMARK    2  A    between atoms: O_4  and  C_30
REMARK    3  A    between atoms: N_6  and  C_19
REMARK    4  A    between atoms: C_8  and  C_14
REMARK    5  A    between atoms: C_9  and  C_13
REMARK    6  A    between atoms: C_13  and  C_15
REMARK    7  A    between atoms: C_14  and  C_17
REMARK    8  A    between atoms: C_16  and  C_18
REMARK    9  A    between atoms: C_19  and  C_22
REMARK                            x       y       z     vdW  Elec       q    Type
REMARK                         _______ _______ _______ _____ _____    ______ ____
ROOT
ATOM      2  O   UNL     1       0.191  -1.937  25.740  0.00  0.00    -0.270 OA
ATOM      5  N   UNL     1      -1.502  -1.553  24.173  0.00  0.00    -0.297 N 
ATOM      8  C   UNL     1      -4.363  -1.186  23.918  0.00  0.00    +0.004 C 
ATOM      9  C   UNL     1      -3.371  -0.151  23.328  0.00  0.00    +0.010 C 
ATOM     10  C   UNL     1      -3.748  -1.943  25.108  0.00  0.00    +0.023 C 
ATOM     11  C   UNL     1      -2.030  -0.835  23.005  0.00  0.00    +0.112 C 
ATOM     12  C   UNL     1      -2.402  -2.559  24.735  0.00  0.00    +0.108 C 
ATOM     16  C   UNL     1      -0.252  -1.342  24.760  0.00  0.00    +0.247 C 
ENDROOT
BRANCH  16  18
ATOM      1 CL   UNL     1       3.650  -0.062  21.598  0.00  0.00    -0.062 Cl
ATOM      7  N   UNL     1       2.296   1.612  23.042  0.00  0.00    -0.244 NA
ATOM     18  C   UNL     1       0.625  -0.326  24.168  0.00  0.00    +0.041 A 
ATOM     20  C   UNL     1       1.608  -0.696  23.257  0.00  0.00    +0.053 A 
ATOM     21  C   UNL     1       0.477   1.012  24.517  0.00  0.00    +0.033 A 
ATOM     23  C   UNL     1       2.410   0.302  22.728  0.00  0.00    +0.130 A 
ATOM     24  C   UNL     1       1.329   1.934  23.931  0.00  0.00    +0.113 A 
ENDBRANCH  16  18
BRANCH   9  13
ATOM     13  C   UNL     1      -3.142   1.074  24.222  0.00  0.00    +0.002 C 
ATOM     15  C   UNL     1      -2.242   2.085  23.544  0.00  0.00    +0.004 C 
ENDBRANCH   9  13
BRANCH   8  14
ATOM     14  C   UNL     1      -5.709  -0.573  24.307  0.00  0.00    +0.099 C 
BRANCH  14  17
ATOM      3  O   UNL     1      -4.964   0.462  26.363  0.00  0.00    -0.276 OA
ATOM      6  N   UNL     1      -6.176   1.716  24.826  0.00  0.00    -0.311 N 
ATOM     17  C   UNL     1      -5.557   0.566  25.293  0.00  0.00    +0.214 C 
ATOM     31  H   UNL     1      -6.645   1.710  23.926  0.00  0.00    +0.149 HD
BRANCH   6  19
ATOM     19  C   UNL     1      -6.191   2.959  25.565  0.00  0.00    +0.139 C 
BRANCH  19  22
ATOM     22  C   UNL     1      -4.882   3.687  25.466  0.00  0.00    -0.030 A 
ATOM     25  C   UNL     1      -3.987   3.663  26.535  0.00  0.00    +0.009 A 
ATOM     26  C   UNL     1      -4.559   4.385  24.302  0.00  0.00    +0.009 A 
ATOM     27  C   UNL     1      -2.770   4.339  26.442  0.00  0.00    +0.046 A 
ATOM     28  C   UNL     1      -3.343   5.061  24.209  0.00  0.00    +0.046 A 
ATOM     29  C   UNL     1      -2.448   5.038  25.279  0.00  0.00    +0.120 A 
BRANCH  29   4
ATOM      4  O   UNL     1      -1.260   5.697  25.187  0.00  0.00    -0.495 OA
ATOM     30  C   UNL     1      -0.197   5.029  24.509  0.00  0.00    +0.277 C 
ENDBRANCH  29   4
ENDBRANCH  19  22
ENDBRANCH   6  19
ENDBRANCH  14  17
ENDBRANCH   8  14
TORSDOF 7
ENDMDL
MODEL 4
REMARK VINA RESULT:       0.1      2.450      3.211
REMARK  Name = 11913161
REMARK  9 active torsions:
REMARK  status: ('A' for Active; 'I' for Inactive)
REMARK    1  A    between atoms: O_4  and  C_29
REMARK    2  A    between atoms: O_4  and  C_30
REMARK    3  A    between atoms: N_6  and  C_19
REMARK    4  A    between atoms: C_8  and  C_14
REMARK    5  A    between atoms: C_9  and  C_13
REMARK    6  A    between atoms: C_13  and  C_15
REMARK    7  A    between atoms: C_14  and  C_17
REMARK    8  A    between atoms: C_16  and  C_18
REMARK    9  A    between atoms: C_19  and  C_22
REMARK                            x       y       z     vdW  Elec       q    Type
REMARK                         _______ _______ _______ _____ _____    ______ ____
ROOT
ATOM      2  O   UNL     1       0.497   1.168  25.051  0.00  0.00    -0.270 OA
ATOM      5  N   UNL     1      -0.677   3.190  25.061  0.00  0.00    -0.297 N 
ATOM      8  C   UNL     1      -3.220   4.379  24.350  0.00  0.00    +0.004 C 
ATOM      9  C   UNL     1      -2.642   4.531  25.781  0.00  0.00    +0.010 C 
ATOM     10  C   UNL     1      -2.705   3.102  23.665  0.00  0.00    +0.023 C 
ATOM     11  C   UNL     1      -1.107   4.421  25.740  0.00  0.00    +0.112 C 
ATOM     12  C   UNL     1      -1.181   3.033  23.698  0.00  0.00    +0.108 C 
ATOM     16  C   UNL     1       0.140   2.201  25.613  0.00  0.00    +0.247 C 
ENDROOT
BRANCH  16  18
ATOM      1 CL   UNL     1       3.824   3.796  28.890  0.00  0.00    -0.062 Cl
ATOM      7  N   UNL     1       1.555   2.760  29.595  0.00  0.00    -0.244 NA
ATOM     18  C   UNL     1       0.628   2.394  26.983  0.00  0.00    +0.041 A 
ATOM     20  C   UNL     1       1.880   2.955  27.207  0.00  0.00    +0.053 A 
ATOM     21  C   UNL     1      -0.161   2.016  28.064  0.00  0.00    +0.033 A 
ATOM     23  C   UNL     1       2.293   3.114  28.519  0.00  0.00    +0.130 A 
ATOM     24  C   UNL     1       0.343   2.218  29.338  0.00  0.00    +0.113 A 
ENDBRANCH  16  18
BRANCH   9  13
ATOM     13  C   UNL     1      -3.221   3.536  26.795  0.00  0.00    +0.002 C 
ATOM     15  C   UNL     1      -3.284   4.144  28.180  0.00  0.00    +0.004 C 
ENDBRANCH   9  13
BRANCH   8  14
ATOM     14  C   UNL     1      -4.747   4.433  24.311  0.00  0.00    +0.099 C 
BRANCH  14  17
ATOM      3  O   UNL     1      -6.105   3.256  25.931  0.00  0.00    -0.276 OA
ATOM      6  N   UNL     1      -5.030   2.058  24.254  0.00  0.00    -0.311 N 
ATOM     17  C   UNL     1      -5.381   3.211  24.940  0.00  0.00    +0.214 C 
ATOM     31  H   UNL     1      -4.424   2.115  23.442  0.00  0.00    +0.149 HD
BRANCH   6  19
ATOM     19  C   UNL     1      -5.491   0.742  24.636  0.00  0.00    +0.139 C 
BRANCH  19  22
ATOM     22  C   UNL     1      -4.356  -0.234  24.764  0.00  0.00    -0.030 A 
ATOM     25  C   UNL     1      -4.407  -1.455  24.092  0.00  0.00    +0.009 A 
ATOM     26  C   UNL     1      -3.251   0.083  25.554  0.00  0.00    +0.009 A 
ATOM     27  C   UNL     1      -3.352  -2.361  24.211  0.00  0.00    +0.046 A 
ATOM     28  C   UNL     1      -2.196  -0.823  25.673  0.00  0.00    +0.046 A 
ATOM     29  C   UNL     1      -2.247  -2.045  25.001  0.00  0.00    +0.120 A 
BRANCH  29   4
ATOM      4  O   UNL     1      -1.218  -2.928  25.116  0.00  0.00    -0.495 OA
ATOM     30  C   UNL     1       0.092  -2.383  25.267  0.00  0.00    +0.277 C 
ENDBRANCH  29   4
ENDBRANCH  19  22
ENDBRANCH   6  19
ENDBRANCH  14  17
ENDBRANCH   8  14
TORSDOF 7
ENDMDL
MODEL 5
REMARK VINA RESULT:       0.2      1.960      4.758
REMARK  Name = 11913161
REMARK  9 active torsions:
REMARK  status: ('A' for Active; 'I' for Inactive)
REMARK    1  A    between atoms: O_4  and  C_29
REMARK    2  A    between atoms: O_4  and  C_30
REMARK    3  A    between atoms: N_6  and  C_19
REMARK    4  A    between atoms: C_8  and  C_14
REMARK    5  A    between atoms: C_9  and  C_13
REMARK    6  A    between atoms: C_13  and  C_15
REMARK    7  A    between atoms: C_14  and  C_17
REMARK    8  A    between atoms: C_16  and  C_18
REMARK    9  A    between atoms: C_19  and  C_22
REMARK                            x       y       z     vdW  Elec       q    Type
REMARK                         _______ _______ _______ _____ _____    ______ ____
ROOT
ATOM      2  O   UNL     1       0.219   2.158  24.415  0.00  0.00    -0.270 OA
ATOM      5  N   UNL     1      -0.061  -0.037  25.173  0.00  0.00    -0.297 N 
ATOM      8  C   UNL     1      -2.080  -2.017  25.795  0.00  0.00    +0.004 C 
ATOM      9  C   UNL     1      -0.922  -2.340  24.816  0.00  0.00    +0.010 C 
ATOM     10  C   UNL     1      -2.388  -0.511  25.828  0.00  0.00    +0.023 C 
ATOM     11  C   UNL     1       0.299  -1.462  25.140  0.00  0.00    +0.112 C 
ATOM     12  C   UNL     1      -1.130   0.305  26.110  0.00  0.00    +0.108 C 
ATOM     16  C   UNL     1       0.521   0.967  24.395  0.00  0.00    +0.247 C 
ENDROOT
BRANCH  16  18
ATOM      1 CL   UNL     1       5.564   0.598  23.257  0.00  0.00    -0.062 Cl
ATOM      7  N   UNL     1       3.630  -0.139  21.696  0.00  0.00    -0.244 NA
ATOM     18  C   UNL     1       1.592   0.586  23.467  0.00  0.00    +0.041 A 
ATOM     20  C   UNL     1       2.923   0.775  23.820  0.00  0.00    +0.053 A 
ATOM     21  C   UNL     1       1.279   0.035  22.229  0.00  0.00    +0.033 A 
ATOM     23  C   UNL     1       3.895   0.400  22.908  0.00  0.00    +0.130 A 
ATOM     24  C   UNL     1       2.325  -0.308  21.388  0.00  0.00    +0.113 A 
ENDBRANCH  16  18
BRANCH   9  13
ATOM     13  C   UNL     1      -1.300  -2.202  23.336  0.00  0.00    +0.002 C 
ATOM     15  C   UNL     1      -1.434  -3.558  22.678  0.00  0.00    +0.004 C 
ENDBRANCH   9  13
BRANCH   8  14
ATOM     14  C   UNL     1      -3.349  -2.822  25.510  0.00  0.00    +0.099 C 
BRANCH  14  17
ATOM      3  O   UNL     1      -4.929  -2.532  23.701  0.00  0.00    -0.276 OA
ATOM      6  N   UNL     1      -4.476  -0.747  25.120  0.00  0.00    -0.311 N 
ATOM     17  C   UNL     1      -4.339  -2.050  24.664  0.00  0.00    +0.214 C 
ATOM     31  H   UNL     1      -3.945  -0.433  25.926  0.00  0.00    +0.149 HD
BRANCH   6  19
ATOM     19  C   UNL     1      -5.355   0.218  24.498  0.00  0.00    +0.139 C 
BRANCH  19  22
ATOM     22  C   UNL     1      -4.763   1.597  24.496  0.00  0.00    -0.030 A 
ATOM     25  C   UNL     1      -3.661   1.883  23.690  0.00  0.00    +0.009 A 
ATOM     26  C   UNL     1      -5.317   2.595  25.299  0.00  0.00    +0.009 A 
ATOM     27  C   UNL     1      -3.111   3.165  23.688  0.00  0.00    +0.046 A 
ATOM     28  C   UNL     1      -4.767   3.877  25.297  0.00  0.00    +0.046 A 
ATOM     29  C   UNL     1      -3.664   4.162  24.492  0.00  0.00    +0.120 A 
BRANCH  29   4
ATOM      4  O   UNL     1      -3.129   5.413  24.489  0.00  0.00    -0.495 OA
ATOM     30  C   UNL     1      -1.828   5.565  25.056  0.00  0.00    +0.277 C 
ENDBRANCH  29   4
ENDBRANCH  19  22
ENDBRANCH   6  19
ENDBRANCH  14  17
ENDBRANCH   8  14
TORSDOF 7
ENDMDL
MODEL 6
REMARK VINA RESULT:       0.3      2.062      4.918
REMARK  Name = 11913161
REMARK  9 active torsions:
REMARK  status: ('A' for Active; 'I' for Inactive)
REMARK    1  A    between atoms: O_4  and  C_29
REMARK    2  A    between atoms: O_4  and  C_30
REMARK    3  A    between atoms: N_6  and  C_19
REMARK    4  A    between atoms: C_8  and  C_14
REMARK    5  A    between atoms: C_9  and  C_13
REMARK    6  A    between atoms: C_13  and  C_15
REMARK    7  A    between atoms: C_14  and  C_17
REMARK    8  A    between atoms: C_16  and  C_18
REMARK    9  A    between atoms: C_19  and  C_22
REMARK                            x       y       z     vdW  Elec       q    Type
REMARK                         _______ _______ _______ _____ _____    ______ ____
ROOT
ATOM      2  O   UNL     1      -3.431  -1.176  27.310  0.00  0.00    -0.270 OA
ATOM      5  N   UNL     1      -4.659  -0.083  25.647  0.00  0.00    -0.297 N 
ATOM      8  C   UNL     1      -5.715   2.506  24.892  0.00  0.00    +0.004 C 
ATOM      9  C   UNL     1      -4.827   1.692  23.916  0.00  0.00    +0.010 C 
ATOM     10  C   UNL     1      -5.413   2.152  26.358  0.00  0.00    +0.023 C 
ATOM     11  C   UNL     1      -4.942   0.190  24.231  0.00  0.00    +0.112 C 
ATOM     12  C   UNL     1      -5.501   0.647  26.593  0.00  0.00    +0.108 C 
ATOM     16  C   UNL     1      -3.675  -0.950  26.127  0.00  0.00    +0.247 C 
ENDROOT
BRANCH  16  18
ATOM      1 CL   UNL     1       0.562  -1.209  23.152  0.00  0.00    -0.062 Cl
ATOM      7  N   UNL     1      -1.278  -3.031  23.282  0.00  0.00    -0.244 NA
ATOM     18  C   UNL     1      -2.849  -1.666  25.148  0.00  0.00    +0.041 A 
ATOM     20  C   UNL     1      -1.660  -1.106  24.694  0.00  0.00    +0.053 A 
ATOM     21  C   UNL     1      -3.253  -2.907  24.670  0.00  0.00    +0.033 A 
ATOM     23  C   UNL     1      -0.918  -1.822  23.769  0.00  0.00    +0.130 A 
ATOM     24  C   UNL     1      -2.439  -3.543  23.746  0.00  0.00    +0.113 A 
ENDBRANCH  16  18
BRANCH   9  13
ATOM     13  C   UNL     1      -3.355   2.123  23.906  0.00  0.00    +0.002 C 
ATOM     15  C   UNL     1      -2.704   1.812  22.576  0.00  0.00    +0.004 C 
ENDBRANCH   9  13
BRANCH   8  14
ATOM     14  C   UNL     1      -5.621   4.016  24.671  0.00  0.00    +0.099 C 
BRANCH  14  17
ATOM      3  O   UNL     1      -3.641   4.927  23.623  0.00  0.00    -0.276 OA
ATOM      6  N   UNL     1      -3.595   4.397  25.886  0.00  0.00    -0.311 N 
ATOM     17  C   UNL     1      -4.189   4.503  24.637  0.00  0.00    +0.214 C 
ATOM     31  H   UNL     1      -4.126   4.032  26.670  0.00  0.00    +0.149 HD
BRANCH   6  19
ATOM     19  C   UNL     1      -2.227   4.788  26.145  0.00  0.00    +0.139 C 
BRANCH  19  22
ATOM     22  C   UNL     1      -1.246   3.818  25.552  0.00  0.00    -0.030 A 
ATOM     25  C   UNL     1      -1.018   2.589  26.172  0.00  0.00    +0.009 A 
ATOM     26  C   UNL     1      -0.562   4.146  24.381  0.00  0.00    +0.009 A 
ATOM     27  C   UNL     1      -0.107   1.688  25.621  0.00  0.00    +0.046 A 
ATOM     28  C   UNL     1       0.349   3.245  23.830  0.00  0.00    +0.046 A 
ATOM     29  C   UNL     1       0.577   2.016  24.450  0.00  0.00    +0.120 A 
BRANCH  29   4
ATOM      4  O   UNL     1       1.465   1.137  23.911  0.00  0.00    -0.495 OA
ATOM     30  C   UNL     1       2.554   1.685  23.169  0.00  0.00    +0.277 C 
ENDBRANCH  29   4
ENDBRANCH  19  22
ENDBRANCH   6  19
ENDBRANCH  14  17
ENDBRANCH   8  14
TORSDOF 7
ENDMDL
MODEL 7
REMARK VINA RESULT:       0.4      1.593      2.373
REMARK  Name = 11913161
REMARK  9 active torsions:
REMARK  status: ('A' for Active; 'I' for Inactive)
REMARK    1  A    between atoms: O_4  and  C_29
REMARK    2  A    between atoms: O_4  and  C_30
REMARK    3  A    between atoms: N_6  and  C_19
REMARK    4  A    between atoms: C_8  and  C_14
REMARK    5  A    between atoms: C_9  and  C_13
REMARK    6  A    between atoms: C_13  and  C_15
REMARK    7  A    between atoms: C_14  and  C_17
REMARK    8  A    between atoms: C_16  and  C_18
REMARK    9  A    between atoms: C_19  and  C_22
REMARK                            x       y       z     vdW  Elec       q    Type
REMARK                         _______ _______ _______ _____ _____    ______ ____
ROOT
ATOM      2  O   UNL     1      -1.706   0.372  22.015  0.00  0.00    -0.270 OA
ATOM      5  N   UNL     1      -1.107   2.369  23.074  0.00  0.00    -0.297 N 
ATOM      8  C   UNL     1      -2.128   4.449  24.811  0.00  0.00    +0.004 C 
ATOM      9  C   UNL     1      -0.817   3.696  25.155  0.00  0.00    +0.010 C 
ATOM     10  C   UNL     1      -3.063   3.590  23.944  0.00  0.00    +0.023 C 
ATOM     11  C   UNL     1      -0.161   3.169  23.866  0.00  0.00    +0.112 C 
ATOM     12  C   UNL     1      -2.340   3.063  22.707  0.00  0.00    +0.108 C 
ATOM     16  C   UNL     1      -0.915   1.045  22.673  0.00  0.00    +0.247 C 
ENDROOT
BRANCH  16  18
ATOM      1 CL   UNL     1       4.243   0.650  22.365  0.00  0.00    -0.062 Cl
ATOM      7  N   UNL     1       2.717  -0.883  23.794  0.00  0.00    -0.244 NA
ATOM     18  C   UNL     1       0.336   0.382  23.059  0.00  0.00    +0.041 A 
ATOM     20  C   UNL     1       1.550   0.829  22.549  0.00  0.00    +0.053 A 
ATOM     21  C   UNL     1       0.311  -0.696  23.935  0.00  0.00    +0.033 A 
ATOM     23  C   UNL     1       2.701   0.168  22.944  0.00  0.00    +0.130 A 
ATOM     24  C   UNL     1       1.518  -1.289  24.269  0.00  0.00    +0.113 A 
ENDBRANCH  16  18
BRANCH   9  13
ATOM     13  C   UNL     1      -1.001   2.555  26.164  0.00  0.00    +0.002 C 
ATOM     15  C   UNL     1       0.253   2.347  26.987  0.00  0.00    +0.004 C 
ENDBRANCH   9  13
BRANCH   8  14
ATOM     14  C   UNL     1      -2.863   4.968  26.047  0.00  0.00    +0.099 C 
BRANCH  14  17
ATOM      3  O   UNL     1      -4.054   3.835  27.822  0.00  0.00    -0.276 OA
ATOM      6  N   UNL     1      -4.357   3.147  25.622  0.00  0.00    -0.311 N 
ATOM     17  C   UNL     1      -3.813   3.940  26.622  0.00  0.00    +0.214 C 
ATOM     31  H   UNL     1      -4.099   3.305  24.653  0.00  0.00    +0.149 HD
BRANCH   6  19
ATOM     19  C   UNL     1      -5.296   2.079  25.885  0.00  0.00    +0.139 C 
BRANCH  19  22
ATOM     22  C   UNL     1      -4.762   0.744  25.453  0.00  0.00    -0.030 A 
ATOM     25  C   UNL     1      -5.117   0.220  24.210  0.00  0.00    +0.009 A 
ATOM     26  C   UNL     1      -3.909   0.030  26.294  0.00  0.00    +0.009 A 
ATOM     27  C   UNL     1      -4.620  -1.021  23.809  0.00  0.00    +0.046 A 
ATOM     28  C   UNL     1      -3.412  -1.211  25.892  0.00  0.00    +0.046 A 
ATOM     29  C   UNL     1      -3.767  -1.736  24.650  0.00  0.00    +0.120 A 
BRANCH  29   4
ATOM      4  O   UNL     1      -3.281  -2.945  24.258  0.00  0.00    -0.495 OA
ATOM     30  C   UNL     1      -1.865  -3.114  24.278  0.00  0.00    +0.277 C 
ENDBRANCH  29   4
ENDBRANCH  19  22
ENDBRANCH   6  19
ENDBRANCH  14  17
ENDBRANCH   8  14
TORSDOF 7
ENDMDL
MODEL 8
REMARK VINA RESULT:       0.5      2.091      5.031
REMARK  Name = 11913161
REMARK  9 active torsions:
REMARK  status: ('A' for Active; 'I' for Inactive)
REMARK    1  A    between atoms: O_4  and  C_29
REMARK    2  A    between atoms: O_4  and  C_30
REMARK    3  A    between atoms: N_6  and  C_19
REMARK    4  A    between atoms: C_8  and  C_14
REMARK    5  A    between atoms: C_9  and  C_13
REMARK    6  A    between atoms: C_13  and  C_15
REMARK    7  A    between atoms: C_14  and  C_17
REMARK    8  A    between atoms: C_16  and  C_18
REMARK    9  A    between atoms: C_19  and  C_22
REMARK                            x       y       z     vdW  Elec       q    Type
REMARK                         _______ _______ _______ _____ _____    ______ ____
ROOT
ATOM      2  O   UNL     1      -5.524   4.771  25.346  0.00  0.00    -0.270 OA
ATOM      5  N   UNL     1      -4.654   2.627  25.689  0.00  0.00    -0.297 N 
ATOM      8  C   UNL     1      -5.069  -0.160  25.022  0.00  0.00    +0.004 C 
ATOM      9  C   UNL     1      -3.699   0.523  24.775  0.00  0.00    +0.010 C 
ATOM     10  C   UNL     1      -6.221   0.859  24.994  0.00  0.00    +0.023 C 
ATOM     11  C   UNL     1      -3.516   1.699  25.751  0.00  0.00    +0.112 C 
ATOM     12  C   UNL     1      -5.957   2.019  25.949  0.00  0.00    +0.108 C 
ATOM     16  C   UNL     1      -4.575   3.992  25.404  0.00  0.00    +0.247 C 
ENDROOT
BRANCH  16  18
ATOM      1 CL   UNL     1       0.588   3.733  25.787  0.00  0.00    -0.062 Cl
ATOM      7  N   UNL     1      -0.725   5.667  24.666  0.00  0.00    -0.244 NA
ATOM     18  C   UNL     1      -3.249   4.568  25.150  0.00  0.00    +0.041 A 
ATOM     20  C   UNL     1      -2.104   3.899  25.569  0.00  0.00    +0.053 A 
ATOM     21  C   UNL     1      -3.133   5.786  24.489  0.00  0.00    +0.033 A 
ATOM     23  C   UNL     1      -0.878   4.486  25.305  0.00  0.00    +0.130 A 
ATOM     24  C   UNL     1      -1.860   6.288  24.273  0.00  0.00    +0.113 A 
ENDBRANCH  16  18
BRANCH   9  13
ATOM     13  C   UNL     1      -3.489   0.993  23.330  0.00  0.00    +0.002 C 
ATOM     15  C   UNL     1      -2.208   1.789  23.195  0.00  0.00    +0.004 C 
ENDBRANCH   9  13
BRANCH   8  14
ATOM     14  C   UNL     1      -5.346  -1.315  24.059  0.00  0.00    +0.099 C 
BRANCH  14  17
ATOM      3  O   UNL     1      -4.105  -3.139  23.067  0.00  0.00    -0.276 OA
ATOM      6  N   UNL     1      -3.025  -1.678  24.518  0.00  0.00    -0.311 N 
ATOM     17  C   UNL     1      -4.115  -2.158  23.806  0.00  0.00    +0.214 C 
ATOM     31  H   UNL     1      -3.127  -0.858  25.108  0.00  0.00    +0.149 HD
BRANCH   6  19
ATOM     19  C   UNL     1      -1.718  -2.293  24.468  0.00  0.00    +0.139 C 
BRANCH  19  22
ATOM     22  C   UNL     1      -0.643  -1.297  24.139  0.00  0.00    -0.030 A 
ATOM     25  C   UNL     1       0.092  -1.427  22.961  0.00  0.00    +0.009 A 
ATOM     26  C   UNL     1      -0.380  -0.241  25.012  0.00  0.00    +0.009 A 
ATOM     27  C   UNL     1       1.091  -0.501  22.656  0.00  0.00    +0.046 A 
ATOM     28  C   UNL     1       0.618   0.684  24.707  0.00  0.00    +0.046 A 
ATOM     29  C   UNL     1       1.354   0.554  23.529  0.00  0.00    +0.120 A 
BRANCH  29   4
ATOM      4  O   UNL     1       2.327   1.458  23.231  0.00  0.00    -0.495 OA
ATOM     30  C   UNL     1       3.583   0.941  22.795  0.00  0.00    +0.277 C 
ENDBRANCH  29   4
ENDBRANCH  19  22
ENDBRANCH   6  19
ENDBRANCH  14  17
ENDBRANCH   8  14
TORSDOF 7
ENDMDL
MODEL 9
REMARK VINA RESULT:       0.6      2.709      6.719
REMARK  Name = 11913161
REMARK  9 active torsions:
REMARK  status: ('A' for Active; 'I' for Inactive)
REMARK    1  A    between atoms: O_4  and  C_29
REMARK    2  A    between atoms: O_4  and  C_30
REMARK    3  A    between atoms: N_6  and  C_19
REMARK    4  A    between atoms: C_8  and  C_14
REMARK    5  A    between atoms: C_9  and  C_13
REMARK    6  A    between atoms: C_13  and  C_15
REMARK    7  A    between atoms: C_14  and  C_17
REMARK    8  A    between atoms: C_16  and  C_18
REMARK    9  A    between atoms: C_19  and  C_22
REMARK                            x       y       z     vdW  Elec       q    Type
REMARK                         _______ _______ _______ _____ _____    ______ ____
ROOT
ATOM      2  O   UNL     1      -4.980   1.979  23.237  0.00  0.00    -0.270 OA
ATOM      5  N   UNL     1      -3.998   0.669  24.908  0.00  0.00    -0.297 N 
ATOM      8  C   UNL     1      -2.362  -1.683  25.325  0.00  0.00    +0.004 C 
ATOM      9  C   UNL     1      -1.971  -0.319  25.951  0.00  0.00    +0.010 C 
ATOM     10  C   UNL     1      -3.204  -1.499  24.051  0.00  0.00    +0.023 C 
ATOM     11  C   UNL     1      -3.229   0.544  26.155  0.00  0.00    +0.112 C 
ATOM     12  C   UNL     1      -4.409  -0.599  24.310  0.00  0.00    +0.108 C 
ATOM     16  C   UNL     1      -4.341   1.870  24.282  0.00  0.00    +0.247 C 
ENDROOT
BRANCH  16  18
ATOM      1 CL   UNL     1      -0.811   5.614  24.900  0.00  0.00    -0.062 Cl
ATOM      7  N   UNL     1      -3.098   5.512  26.116  0.00  0.00    -0.244 NA
ATOM     18  C   UNL     1      -3.913   3.124  24.913  0.00  0.00    +0.041 A 
ATOM     20  C   UNL     1      -2.676   3.676  24.600  0.00  0.00    +0.053 A 
ATOM     21  C   UNL     1      -4.743   3.764  25.827  0.00  0.00    +0.033 A 
ATOM     23  C   UNL     1      -2.319   4.860  25.224  0.00  0.00    +0.130 A 
ATOM     24  C   UNL     1      -4.293   4.945  26.395  0.00  0.00    +0.113 A 
ENDBRANCH  16  18
BRANCH   9  13
ATOM     13  C   UNL     1      -0.918   0.455  25.149  0.00  0.00    +0.002 C 
ATOM     15  C   UNL     1      -0.427   1.664  25.916  0.00  0.00    +0.004 C 
ENDBRANCH   9  13
BRANCH   8  14
ATOM     14  C   UNL     1      -1.158  -2.585  25.051  0.00  0.00    +0.099 C 
BRANCH  14  17
ATOM      3  O   UNL     1      -0.683  -3.015  22.718  0.00  0.00    -0.276 OA
ATOM      6  N   UNL     1       0.249  -1.151  23.749  0.00  0.00    -0.311 N 
ATOM     17  C   UNL     1      -0.525  -2.302  23.706  0.00  0.00    +0.214 C 
ATOM     31  H   UNL     1       0.323  -0.623  24.613  0.00  0.00    +0.149 HD
BRANCH   6  19
ATOM     19  C   UNL     1       0.973  -0.644  22.606  0.00  0.00    +0.139 C 
BRANCH  19  22
ATOM     22  C   UNL     1       2.423  -0.408  22.920  0.00  0.00    -0.030 A 
ATOM     25  C   UNL     1       3.016   0.813  22.602  0.00  0.00    +0.009 A 
ATOM     26  C   UNL     1       3.175  -1.411  23.534  0.00  0.00    +0.009 A 
ATOM     27  C   UNL     1       4.363   1.032  22.894  0.00  0.00    +0.046 A 
ATOM     28  C   UNL     1       4.521  -1.192  23.826  0.00  0.00    +0.046 A 
ATOM     29  C   UNL     1       5.115   0.029  23.507  0.00  0.00    +0.120 A 
BRANCH  29   4
ATOM      4  O   UNL     1       6.428   0.243  23.794  0.00  0.00    -0.495 OA
ATOM     30  C   UNL     1       7.386  -0.525  23.066  0.00  0.00    +0.277 C 
ENDBRANCH  29   4
ENDBRANCH  19  22
ENDBRANCH   6  19
ENDBRANCH  14  17
ENDBRANCH   8  14
TORSDOF 7
ENDMDL
MODEL 10
REMARK VINA RESULT:       0.9      2.184      5.179
REMARK  Name = 11913161
REMARK  9 active torsions:
REMARK  status: ('A' for Active; 'I' for Inactive)
REMARK    1  A    between atoms: O_4  and  C_29
REMARK    2  A    between atoms: O_4  and  C_30
REMARK    3  A    between atoms: N_6  and  C_19
REMARK    4  A    between atoms: C_8  and  C_14
REMARK    5  A    between atoms: C_9  and  C_13
REMARK    6  A    between atoms: C_13  and  C_15
REMARK    7  A    between atoms: C_14  and  C_17
REMARK    8  A    between atoms: C_16  and  C_18
REMARK    9  A    between atoms: C_19  and  C_22
REMARK                            x       y       z     vdW  Elec       q    Type
REMARK                         _______ _______ _______ _____ _____    ______ ____
ROOT
ATOM      2  O   UNL     1      -1.188   2.803  27.386  0.00  0.00    -0.270 OA
ATOM      5  N   UNL     1      -0.363   1.446  25.669  0.00  0.00    -0.297 N 
ATOM      8  C   UNL     1      -0.687  -1.152  24.432  0.00  0.00    +0.004 C 
ATOM      9  C   UNL     1      -0.745   0.146  23.586  0.00  0.00    +0.010 C 
ATOM     10  C   UNL     1      -1.100  -0.895  25.891  0.00  0.00    +0.023 C 
ATOM     11  C   UNL     1       0.066   1.258  24.276  0.00  0.00    +0.112 C 
ATOM     12  C   UNL     1      -0.291   0.247  26.501  0.00  0.00    +0.108 C 
ATOM     16  C   UNL     1      -0.823   2.643  26.223  0.00  0.00    +0.247 C 
ENDROOT
BRANCH  16  18
ATOM      1 CL   UNL     1       0.957   5.339  22.170  0.00  0.00    -0.062 Cl
ATOM      7  N   UNL     1      -0.991   6.082  23.711  0.00  0.00    -0.244 NA
ATOM     18  C   UNL     1      -0.880   3.826  25.358  0.00  0.00    +0.041 A 
ATOM     20  C   UNL     1       0.003   3.956  24.292  0.00  0.00    +0.053 A 
ATOM     21  C   UNL     1      -1.819   4.823  25.601  0.00  0.00    +0.033 A 
ATOM     23  C   UNL     1      -0.093   5.093  23.506  0.00  0.00    +0.130 A 
ATOM     24  C   UNL     1      -1.834   5.921  24.756  0.00  0.00    +0.113 A 
ENDBRANCH  16  18
BRANCH   9  13
ATOM     13  C   UNL     1      -2.169   0.632  23.287  0.00  0.00    +0.002 C 
ATOM     15  C   UNL     1      -2.151   1.881  22.432  0.00  0.00    +0.004 C 
ENDBRANCH   9  13
BRANCH   8  14
ATOM     14  C   UNL     1      -1.507  -2.295  23.833  0.00  0.00    +0.099 C 
BRANCH  14  17
ATOM      3  O   UNL     1      -3.401  -3.231  25.012  0.00  0.00    -0.276 OA
ATOM      6  N   UNL     1      -3.613  -1.166  23.964  0.00  0.00    -0.311 N 
ATOM     17  C   UNL     1      -2.930  -2.312  24.348  0.00  0.00    +0.214 C 
ATOM     31  H   UNL     1      -3.143  -0.457  23.412  0.00  0.00    +0.149 HD
BRANCH   6  19
ATOM     19  C   UNL     1      -4.993  -0.917  24.314  0.00  0.00    +0.139 C 
BRANCH  19  22
ATOM     22  C   UNL     1      -5.203   0.487  24.803  0.00  0.00    -0.030 A 
ATOM     25  C   UNL     1      -4.133   1.208  25.334  0.00  0.00    +0.009 A 
ATOM     26  C   UNL     1      -6.467   1.072  24.724  0.00  0.00    +0.009 A 
ATOM     27  C   UNL     1      -4.328   2.514  25.787  0.00  0.00    +0.046 A 
ATOM     28  C   UNL     1      -6.661   2.377  25.177  0.00  0.00    +0.046 A 
ATOM     29  C   UNL     1      -5.592   3.098  25.709  0.00  0.00    +0.120 A 
BRANCH  29   4
ATOM      4  O   UNL     1      -5.782   4.371  26.150  0.00  0.00    -0.495 OA
ATOM     30  C   UNL     1      -6.264   5.322  25.202  0.00  0.00    +0.277 C 
ENDBRANCH  29   4
ENDBRANCH  19  22
ENDBRANCH   6  19
ENDBRANCH  14  17
ENDBRANCH   8  14
TORSDOF 7
ENDMDL
