MODEL 1
REMARK VINA RESULT:       8.6      0.000      0.000
REMARK  Name = 44716482
REMARK  7 active torsions:
REMARK  status: ('A' for Active; 'I' for Inactive)
REMARK    1  A    between atoms: O_3  and  C_21
REMARK    2  A    between atoms: O_3  and  C_33
REMARK    3  A    between atoms: N_7  and  C_12
REMARK    4  A    between atoms: N_7  and  C_22
REMARK    5  A    between atoms: C_10  and  C_18
REMARK    6  A    between atoms: C_14  and  C_21
REMARK    7  A    between atoms: C_22  and  C_28
REMARK                            x       y       z     vdW  Elec       q    Type
REMARK                         _______ _______ _______ _____ _____    ______ ____
ROOT
ATOM      5  N   UNL     1      -1.038   1.538  25.815  0.00  0.00    -0.274 NA
ATOM      6  N   UNL     1      -3.776  -0.003  23.756  0.00  0.00    -0.356 N 
ATOM      9  C   UNL     1      -2.053   1.627  24.721  0.00  0.00    +0.106 C 
ATOM     10  C   UNL     1      -0.394   2.850  26.084  0.00  0.00    +0.090 C 
ATOM     11  C   UNL     1      -3.137   2.660  25.067  0.00  0.00    +0.044 C 
ATOM     12  C   UNL     1      -2.512   4.034  25.302  0.00  0.00    +0.058 C 
ATOM     13  C   UNL     1      -1.453   3.935  26.399  0.00  0.00    +0.042 C 
ATOM     14  C   UNL     1      -0.092   0.403  25.637  0.00  0.00    +0.172 C 
ATOM     15  C   UNL     1      -2.640   0.272  24.466  0.00  0.00    +0.038 A 
ATOM     16  C   UNL     1      -0.808  -0.971  25.628  0.00  0.00    +0.068 C 
ATOM     17  C   UNL     1      -2.079  -0.925  24.856  0.00  0.00    -0.016 A 
ATOM     19  C   UNL     1      -2.923  -1.972  24.395  0.00  0.00    +0.003 A 
ATOM     20  C   UNL     1      -3.980  -1.365  23.710  0.00  0.00    +0.047 A 
ATOM     25  C   UNL     1      -2.894  -3.377  24.488  0.00  0.00    +0.010 A 
ATOM     26  C   UNL     1      -5.012  -2.100  23.113  0.00  0.00    +0.026 A 
ATOM     27  C   UNL     1      -3.919  -4.124  23.898  0.00  0.00    +0.001 A 
ATOM     31  C   UNL     1      -4.961  -3.492  23.221  0.00  0.00    +0.002 A 
ATOM     38  H   UNL     1      -4.381   0.684  23.328  0.00  0.00    +0.166 HD
ENDROOT
BRANCH  10  18
ATOM      1  F   UNL     1       0.665   2.239  30.828  0.00  0.00    -0.202 F 
ATOM      2  F   UNL     1       3.305   2.773  30.361  0.00  0.00    -0.202 F 
ATOM     18  C   UNL     1       0.604   2.828  27.239  0.00  0.00    -0.027 A 
ATOM     23  C   UNL     1       0.169   2.538  28.532  0.00  0.00    +0.046 A 
ATOM     24  C   UNL     1       1.952   3.101  27.000  0.00  0.00    +0.008 A 
ATOM     29  C   UNL     1       1.082   2.519  29.586  0.00  0.00    +0.159 A 
ATOM     30  C   UNL     1       2.864   3.082  28.055  0.00  0.00    +0.041 A 
ATOM     32  C   UNL     1       2.429   2.791  29.348  0.00  0.00    +0.158 A 
ENDBRANCH  10  18
BRANCH  14  21
ATOM      4  O   UNL     1       1.332   1.618  24.116  0.00  0.00    -0.249 OA
ATOM     21  C   UNL     1       0.726   0.591  24.390  0.00  0.00    +0.325 C 
BRANCH  21   3
ATOM      3  O   UNL     1       0.678  -0.545  23.639  0.00  0.00    -0.467 OA
ATOM     33  C   UNL     1       1.301  -0.460  22.353  0.00  0.00    +0.280 C 
ENDBRANCH  21   3
ENDBRANCH  14  21
BRANCH  12   7
ATOM      7  N   UNL     1      -3.547   5.002  25.664  0.00  0.00    -0.309 NA
ATOM     39  H   UNL     1      -3.741   4.927  26.663  0.00  0.00    +0.123 HD
BRANCH   7  22
ATOM     22  C   UNL     1      -4.775   4.744  24.927  0.00  0.00    +0.118 C 
BRANCH  22  28
ATOM      8  N   UNL     1      -6.263   2.135  27.231  0.00  0.00    -0.263 NA
ATOM     28  C   UNL     1      -5.454   3.485  25.395  0.00  0.00    -0.015 A 
ATOM     34  C   UNL     1      -5.892   2.526  24.489  0.00  0.00    +0.008 A 
ATOM     35  C   UNL     1      -5.662   3.244  26.744  0.00  0.00    +0.115 A 
ATOM     36  C   UNL     1      -6.514   1.372  24.952  0.00  0.00    +0.020 A 
ATOM     37  C   UNL     1      -6.675   1.226  26.320  0.00  0.00    +0.111 A 
ENDBRANCH  22  28
ENDBRANCH   7  22
ENDBRANCH  12   7
TORSDOF 6
ENDMDL
