MODEL 1
REMARK VINA RESULT:      -3.7      0.000      0.000
REMARK  Name = 38027050
REMARK  15 active torsions:
REMARK  status: ('A' for Active; 'I' for Inactive)
REMARK    1  A    between atoms: O_4  and  C_29
REMARK    2  A    between atoms: O_4  and  C_30
REMARK    3  A    between atoms: N_5  and  C_15
REMARK    4  A    between atoms: N_6  and  C_22
REMARK    5  A    between atoms: N_7  and  C_23
REMARK    6  A    between atoms: C_8  and  C_12
REMARK    7  A    between atoms: C_9  and  C_15
REMARK    8  A    between atoms: C_11  and  C_16
REMARK    9  A    between atoms: C_12  and  C_17
REMARK   10  A    between atoms: C_12  and  C_18
REMARK   11  A    between atoms: C_13  and  C_19
REMARK   12  A    between atoms: C_16  and  C_20
REMARK   13  A    between atoms: C_21  and  C_24
REMARK   14  A    between atoms: C_22  and  C_23
REMARK   15  A    between atoms: C_24  and  C_29
REMARK                            x       y       z     vdW  Elec       q    Type
REMARK                         _______ _______ _______ _____ _____    ______ ____
ROOT
ATOM      8  C   UNL     1      -3.309   1.102  23.754  0.00  0.00    +0.000 C 
ATOM      9  C   UNL     1      -4.656   0.493  24.218  0.00  0.00    +0.032 C 
ATOM     10  C   UNL     1      -2.334  -0.010  23.336  0.00  0.00    +0.012 C 
ATOM     11  C   UNL     1      -2.053  -0.999  24.482  0.00  0.00    +0.023 C 
ATOM     13  C   UNL     1      -3.329  -1.442  25.169  0.00  0.00    -0.073 C 
ATOM     14  C   UNL     1      -4.486  -0.770  25.029  0.00  0.00    -0.022 C 
ATOM     19  C   UNL     1      -3.256  -2.701  25.986  0.00  0.00    +0.039 C 
ENDROOT
BRANCH   8  12
ATOM     12  C   UNL     1      -3.499   2.088  22.597  0.00  0.00    -0.013 C 
ATOM     17  C   UNL     1      -3.595   3.516  23.125  0.00  0.00    +0.007 C 
ATOM     18  C   UNL     1      -2.357   1.958  21.595  0.00  0.00    +0.007 C 
ENDBRANCH   8  12
BRANCH   9  15
ATOM     15  C   UNL     1      -5.475   1.510  25.022  0.00  0.00    +0.112 C 
BRANCH  15   5
ATOM      2  O   UNL     1      -5.992   4.289  25.601  0.00  0.00    -0.276 OA
ATOM      5  N   UNL     1      -4.615   2.420  25.713  0.00  0.00    -0.315 N 
ATOM     21  C   UNL     1      -4.944   3.755  25.953  0.00  0.00    +0.215 C 
ATOM     31  H   UNL     1      -3.743   2.059  26.090  0.00  0.00    +0.149 HD
BRANCH  21  24
ATOM     24  C   UNL     1      -3.846   4.486  26.710  0.00  0.00    +0.124 C 
BRANCH  24  29
ATOM     29  C   UNL     1      -2.451   4.137  26.217  0.00  0.00    +0.168 C 
BRANCH  29   4
ATOM      4  O   UNL     1      -1.901   5.252  25.529  0.00  0.00    -0.382 OA
ATOM     30  C   UNL     1      -0.694   4.908  24.860  0.00  0.00    +0.194 C 
ENDBRANCH  29   4
ENDBRANCH  24  29
ENDBRANCH  21  24
ENDBRANCH  15   5
ENDBRANCH   9  15
BRANCH  11  16
ATOM     16  C   UNL     1      -1.063  -0.410  25.492  0.00  0.00    +0.103 C 
BRANCH  16  20
ATOM      1  O   UNL     1       0.034   1.734  25.263  0.00  0.00    -0.276 OA
ATOM      6  N   UNL     1       0.514   0.036  23.752  0.00  0.00    -0.314 N 
ATOM     20  C   UNL     1      -0.125   0.589  24.852  0.00  0.00    +0.214 C 
ATOM     32  H   UNL     1       0.319  -0.927  23.495  0.00  0.00    +0.149 HD
BRANCH   6  22
ATOM     22  C   UNL     1       1.467   0.764  22.944  0.00  0.00    +0.119 C 
BRANCH  22  23
ATOM     23  C   UNL     1       2.246  -0.171  22.031  0.00  0.00    +0.103 C 
BRANCH  23   7
ATOM      3  O   UNL     1       5.587  -0.278  24.568  0.00  0.00    -0.377 OA
ATOM      7  N   UNL     1       3.614  -0.331  22.517  0.00  0.00    -0.297 NA
ATOM     25  C   UNL     1       3.686  -1.382  23.542  0.00  0.00    +0.112 C 
ATOM     26  C   UNL     1       4.127   0.936  23.058  0.00  0.00    +0.112 C 
ATOM     27  C   UNL     1       5.121  -1.522  24.042  0.00  0.00    +0.175 C 
ATOM     28  C   UNL     1       5.552   0.741  23.569  0.00  0.00    +0.175 C 
ENDBRANCH  23   7
ENDBRANCH  22  23
ENDBRANCH   6  22
ENDBRANCH  16  20
ENDBRANCH  11  16
TORSDOF 11
ENDMDL
MODEL 2
REMARK VINA RESULT:      -3.3      1.681      7.051
REMARK  Name = 38027050
REMARK  15 active torsions:
REMARK  status: ('A' for Active; 'I' for Inactive)
REMARK    1  A    between atoms: O_4  and  C_29
REMARK    2  A    between atoms: O_4  and  C_30
REMARK    3  A    between atoms: N_5  and  C_15
REMARK    4  A    between atoms: N_6  and  C_22
REMARK    5  A    between atoms: N_7  and  C_23
REMARK    6  A    between atoms: C_8  and  C_12
REMARK    7  A    between atoms: C_9  and  C_15
REMARK    8  A    between atoms: C_11  and  C_16
REMARK    9  A    between atoms: C_12  and  C_17
REMARK   10  A    between atoms: C_12  and  C_18
REMARK   11  A    between atoms: C_13  and  C_19
REMARK   12  A    between atoms: C_16  and  C_20
REMARK   13  A    between atoms: C_21  and  C_24
REMARK   14  A    between atoms: C_22  and  C_23
REMARK   15  A    between atoms: C_24  and  C_29
REMARK                            x       y       z     vdW  Elec       q    Type
REMARK                         _______ _______ _______ _____ _____    ______ ____
ROOT
ATOM      8  C   UNL     1      -1.025   0.334  24.526  0.00  0.00    +0.000 C 
ATOM      9  C   UNL     1      -0.226  -0.993  24.491  0.00  0.00    +0.032 C 
ATOM     10  C   UNL     1      -2.205   0.224  25.503  0.00  0.00    +0.012 C 
ATOM     11  C   UNL     1      -3.169  -0.915  25.126  0.00  0.00    +0.023 C 
ATOM     13  C   UNL     1      -2.429  -2.199  24.813  0.00  0.00    -0.073 C 
ATOM     14  C   UNL     1      -1.111  -2.217  24.545  0.00  0.00    -0.022 C 
ATOM     19  C   UNL     1      -3.229  -3.471  24.859  0.00  0.00    +0.039 C 
ENDROOT
BRANCH   8  12
ATOM     12  C   UNL     1      -0.137   1.521  24.915  0.00  0.00    -0.013 C 
ATOM     17  C   UNL     1      -0.372   2.693  23.967  0.00  0.00    +0.007 C 
ATOM     18  C   UNL     1      -0.402   1.932  26.360  0.00  0.00    +0.007 C 
ENDBRANCH   8  12
BRANCH   9  15
ATOM     15  C   UNL     1       0.672  -1.066  23.251  0.00  0.00    +0.112 C 
BRANCH  15   5
ATOM      2  O   UNL     1       2.428  -0.148  21.153  0.00  0.00    -0.276 OA
ATOM      5  N   UNL     1       1.801  -0.200  23.391  0.00  0.00    -0.315 N 
ATOM     21  C   UNL     1       2.602   0.197  22.319  0.00  0.00    +0.215 C 
ATOM     31  H   UNL     1       1.998   0.181  24.311  0.00  0.00    +0.149 HD
BRANCH  21  24
ATOM     24  C   UNL     1       3.728   1.120  22.758  0.00  0.00    +0.124 C 
BRANCH  24  29
ATOM     29  C   UNL     1       5.045   0.389  22.972  0.00  0.00    +0.168 C 
BRANCH  29   4
ATOM      4  O   UNL     1       4.991  -0.331  24.196  0.00  0.00    -0.382 OA
ATOM     30  C   UNL     1       4.916  -1.733  23.973  0.00  0.00    +0.194 C 
ENDBRANCH  29   4
ENDBRANCH  24  29
ENDBRANCH  21  24
ENDBRANCH  15   5
ENDBRANCH   9  15
BRANCH  11  16
ATOM     16  C   UNL     1      -4.078  -0.508  23.960  0.00  0.00    +0.103 C 
BRANCH  16  20
ATOM      1  O   UNL     1      -3.956   1.827  23.337  0.00  0.00    -0.276 OA
ATOM      6  N   UNL     1      -5.469   1.155  24.968  0.00  0.00    -0.314 N 
ATOM     20  C   UNL     1      -4.469   0.951  24.028  0.00  0.00    +0.214 C 
ATOM     32  H   UNL     1      -5.834   0.361  25.485  0.00  0.00    +0.149 HD
BRANCH   6  22
ATOM     22  C   UNL     1      -6.037   2.455  25.247  0.00  0.00    +0.119 C 
BRANCH  22  23
ATOM     23  C   UNL     1      -5.164   3.242  26.213  0.00  0.00    +0.103 C 
BRANCH  23   7
ATOM      3  O   UNL     1      -2.091   5.700  24.758  0.00  0.00    -0.377 OA
ATOM      7  N   UNL     1      -3.944   3.689  25.546  0.00  0.00    -0.297 NA
ATOM     25  C   UNL     1      -3.015   4.298  26.509  0.00  0.00    +0.112 C 
ATOM     26  C   UNL     1      -4.256   4.645  24.473  0.00  0.00    +0.112 C 
ATOM     27  C   UNL     1      -1.755   4.769  25.787  0.00  0.00    +0.175 C 
ATOM     28  C   UNL     1      -2.966   5.106  23.800  0.00  0.00    +0.175 C 
ENDBRANCH  23   7
ENDBRANCH  22  23
ENDBRANCH   6  22
ENDBRANCH  16  20
ENDBRANCH  11  16
TORSDOF 11
ENDMDL
MODEL 3
REMARK VINA RESULT:      -3.2      1.887      4.141
REMARK  Name = 38027050
REMARK  15 active torsions:
REMARK  status: ('A' for Active; 'I' for Inactive)
REMARK    1  A    between atoms: O_4  and  C_29
REMARK    2  A    between atoms: O_4  and  C_30
REMARK    3  A    between atoms: N_5  and  C_15
REMARK    4  A    between atoms: N_6  and  C_22
REMARK    5  A    between atoms: N_7  and  C_23
REMARK    6  A    between atoms: C_8  and  C_12
REMARK    7  A    between atoms: C_9  and  C_15
REMARK    8  A    between atoms: C_11  and  C_16
REMARK    9  A    between atoms: C_12  and  C_17
REMARK   10  A    between atoms: C_12  and  C_18
REMARK   11  A    between atoms: C_13  and  C_19
REMARK   12  A    between atoms: C_16  and  C_20
REMARK   13  A    between atoms: C_21  and  C_24
REMARK   14  A    between atoms: C_22  and  C_23
REMARK   15  A    between atoms: C_24  and  C_29
REMARK                            x       y       z     vdW  Elec       q    Type
REMARK                         _______ _______ _______ _____ _____    ______ ____
ROOT
ATOM      8  C   UNL     1      -4.214   2.530  25.292  0.00  0.00    +0.000 C 
ATOM      9  C   UNL     1      -4.538   1.233  24.508  0.00  0.00    +0.032 C 
ATOM     10  C   UNL     1      -3.796   3.649  24.327  0.00  0.00    +0.012 C 
ATOM     11  C   UNL     1      -2.563   3.265  23.489  0.00  0.00    +0.023 C 
ATOM     13  C   UNL     1      -2.695   1.877  22.897  0.00  0.00    -0.073 C 
ATOM     14  C   UNL     1      -3.592   0.986  23.356  0.00  0.00    -0.022 C 
ATOM     19  C   UNL     1      -1.801   1.549  21.734  0.00  0.00    +0.039 C 
ENDROOT
BRANCH   8  12
ATOM     12  C   UNL     1      -5.403   2.993  26.141  0.00  0.00    -0.013 C 
ATOM     17  C   UNL     1      -5.862   4.379  25.701  0.00  0.00    +0.007 C 
ATOM     18  C   UNL     1      -6.547   1.988  26.046  0.00  0.00    +0.007 C 
ENDBRANCH   8  12
BRANCH   9  15
ATOM     15  C   UNL     1      -4.543   0.013  25.436  0.00  0.00    +0.112 C 
BRANCH  15   5
ATOM      2  O   UNL     1      -4.766  -2.446  23.941  0.00  0.00    -0.276 OA
ATOM      5  N   UNL     1      -3.486  -0.887  25.095  0.00  0.00    -0.315 N 
ATOM     21  C   UNL     1      -3.680  -2.061  24.365  0.00  0.00    +0.215 C 
ATOM     31  H   UNL     1      -2.538  -0.631  25.358  0.00  0.00    +0.149 HD
BRANCH  21  24
ATOM     24  C   UNL     1      -2.381  -2.821  24.148  0.00  0.00    +0.124 C 
BRANCH  24  29
ATOM     29  C   UNL     1      -1.158  -1.917  24.144  0.00  0.00    +0.168 C 
BRANCH  29   4
ATOM      4  O   UNL     1      -0.643  -1.814  25.465  0.00  0.00    -0.382 OA
ATOM     30  C   UNL     1       0.476  -2.670  25.655  0.00  0.00    +0.194 C 
ENDBRANCH  29   4
ENDBRANCH  24  29
ENDBRANCH  21  24
ENDBRANCH  15   5
ENDBRANCH   9  15
BRANCH  11  16
ATOM     16  C   UNL     1      -1.275   3.392  24.309  0.00  0.00    +0.103 C 
BRANCH  16  20
ATOM      1  O   UNL     1      -1.051   1.328  25.550  0.00  0.00    -0.276 OA
ATOM      6  N   UNL     1       0.360   1.740  23.750  0.00  0.00    -0.314 N 
ATOM     20  C   UNL     1      -0.670   2.043  24.629  0.00  0.00    +0.214 C 
ATOM     32  H   UNL     1       0.596   2.398  23.014  0.00  0.00    +0.149 HD
BRANCH   6  22
ATOM     22  C   UNL     1       1.121   0.512  23.821  0.00  0.00    +0.119 C 
BRANCH  22  23
ATOM     23  C   UNL     1       1.764   0.184  22.482  0.00  0.00    +0.103 C 
BRANCH  23   7
ATOM      3  O   UNL     1       5.523  -0.425  24.246  0.00  0.00    -0.377 OA
ATOM      7  N   UNL     1       3.166  -0.180  22.668  0.00  0.00    -0.297 NA
ATOM     25  C   UNL     1       3.303  -1.229  23.688  0.00  0.00    +0.112 C 
ATOM     26  C   UNL     1       3.965   0.995  23.045  0.00  0.00    +0.112 C 
ATOM     27  C   UNL     1       4.776  -1.584  23.874  0.00  0.00    +0.175 C 
ATOM     28  C   UNL     1       5.423   0.588  23.244  0.00  0.00    +0.175 C 
ENDBRANCH  23   7
ENDBRANCH  22  23
ENDBRANCH   6  22
ENDBRANCH  16  20
ENDBRANCH  11  16
TORSDOF 11
ENDMDL
MODEL 4
REMARK VINA RESULT:      -3.1      1.895      4.275
REMARK  Name = 38027050
REMARK  15 active torsions:
REMARK  status: ('A' for Active; 'I' for Inactive)
REMARK    1  A    between atoms: O_4  and  C_29
REMARK    2  A    between atoms: O_4  and  C_30
REMARK    3  A    between atoms: N_5  and  C_15
REMARK    4  A    between atoms: N_6  and  C_22
REMARK    5  A    between atoms: N_7  and  C_23
REMARK    6  A    between atoms: C_8  and  C_12
REMARK    7  A    between atoms: C_9  and  C_15
REMARK    8  A    between atoms: C_11  and  C_16
REMARK    9  A    between atoms: C_12  and  C_17
REMARK   10  A    between atoms: C_12  and  C_18
REMARK   11  A    between atoms: C_13  and  C_19
REMARK   12  A    between atoms: C_16  and  C_20
REMARK   13  A    between atoms: C_21  and  C_24
REMARK   14  A    between atoms: C_22  and  C_23
REMARK   15  A    between atoms: C_24  and  C_29
REMARK                            x       y       z     vdW  Elec       q    Type
REMARK                         _______ _______ _______ _____ _____    ______ ____
ROOT
ATOM      8  C   UNL     1      -3.646   2.967  25.551  0.00  0.00    +0.000 C 
ATOM      9  C   UNL     1      -3.689   2.894  24.004  0.00  0.00    +0.032 C 
ATOM     10  C   UNL     1      -2.682   4.072  26.009  0.00  0.00    +0.012 C 
ATOM     11  C   UNL     1      -1.250   3.847  25.491  0.00  0.00    +0.023 C 
ATOM     13  C   UNL     1      -1.232   3.503  24.016  0.00  0.00    -0.073 C 
ATOM     14  C   UNL     1      -2.335   3.092  23.364  0.00  0.00    -0.022 C 
ATOM     19  C   UNL     1       0.074   3.686  23.294  0.00  0.00    +0.039 C 
ENDROOT
BRANCH   8  12
ATOM     12  C   UNL     1      -5.036   3.210  26.148  0.00  0.00    -0.013 C 
ATOM     17  C   UNL     1      -5.732   4.359  25.424  0.00  0.00    +0.007 C 
ATOM     18  C   UNL     1      -5.875   1.938  26.076  0.00  0.00    +0.007 C 
ENDBRANCH   8  12
BRANCH   9  15
ATOM     15  C   UNL     1      -4.290   1.566  23.529  0.00  0.00    +0.112 C 
BRANCH  15   5
ATOM      2  O   UNL     1      -4.365  -1.271  23.009  0.00  0.00    -0.276 OA
ATOM      5  N   UNL     1      -3.984   0.515  24.447  0.00  0.00    -0.315 N 
ATOM     21  C   UNL     1      -4.046  -0.840  24.113  0.00  0.00    +0.215 C 
ATOM     31  H   UNL     1      -3.659   0.771  25.375  0.00  0.00    +0.149 HD
BRANCH  21  24
ATOM     24  C   UNL     1      -3.667  -1.735  25.283  0.00  0.00    +0.124 C 
BRANCH  24  29
ATOM     29  C   UNL     1      -2.929  -2.993  24.852  0.00  0.00    +0.168 C 
BRANCH  29   4
ATOM      4  O   UNL     1      -1.684  -2.633  24.267  0.00  0.00    -0.382 OA
ATOM     30  C   UNL     1      -0.647  -2.589  25.238  0.00  0.00    +0.194 C 
ENDBRANCH  29   4
ENDBRANCH  24  29
ENDBRANCH  21  24
ENDBRANCH  15   5
ENDBRANCH   9  15
BRANCH  11  16
ATOM     16  C   UNL     1      -0.526   2.774  26.313  0.00  0.00    +0.103 C 
BRANCH  16  20
ATOM      1  O   UNL     1      -1.447   0.583  25.863  0.00  0.00    -0.276 OA
ATOM      6  N   UNL     1       0.491   1.256  24.771  0.00  0.00    -0.314 N 
ATOM     20  C   UNL     1      -0.575   1.418  25.645  0.00  0.00    +0.214 C 
ATOM     32  H   UNL     1       1.158   2.012  24.655  0.00  0.00    +0.149 HD
BRANCH   6  22
ATOM     22  C   UNL     1       0.699   0.054  23.996  0.00  0.00    +0.119 C 
BRANCH  22  23
ATOM     23  C   UNL     1       1.384   0.362  22.673  0.00  0.00    +0.103 C 
BRANCH  23   7
ATOM      3  O   UNL     1       5.275  -0.493  23.992  0.00  0.00    -0.377 OA
ATOM      7  N   UNL     1       2.770  -0.100  22.700  0.00  0.00    -0.297 NA
ATOM     25  C   UNL     1       2.953  -1.143  23.719  0.00  0.00    +0.112 C 
ATOM     26  C   UNL     1       3.689   1.020  22.954  0.00  0.00    +0.112 C 
ATOM     27  C   UNL     1       4.410  -1.600  23.737  0.00  0.00    +0.175 C 
ATOM     28  C   UNL     1       5.127   0.511  22.988  0.00  0.00    +0.175 C 
ENDBRANCH  23   7
ENDBRANCH  22  23
ENDBRANCH   6  22
ENDBRANCH  16  20
ENDBRANCH  11  16
TORSDOF 11
ENDMDL
MODEL 5
REMARK VINA RESULT:      -2.9      1.336      6.597
REMARK  Name = 38027050
REMARK  15 active torsions:
REMARK  status: ('A' for Active; 'I' for Inactive)
REMARK    1  A    between atoms: O_4  and  C_29
REMARK    2  A    between atoms: O_4  and  C_30
REMARK    3  A    between atoms: N_5  and  C_15
REMARK    4  A    between atoms: N_6  and  C_22
REMARK    5  A    between atoms: N_7  and  C_23
REMARK    6  A    between atoms: C_8  and  C_12
REMARK    7  A    between atoms: C_9  and  C_15
REMARK    8  A    between atoms: C_11  and  C_16
REMARK    9  A    between atoms: C_12  and  C_17
REMARK   10  A    between atoms: C_12  and  C_18
REMARK   11  A    between atoms: C_13  and  C_19
REMARK   12  A    between atoms: C_16  and  C_20
REMARK   13  A    between atoms: C_21  and  C_24
REMARK   14  A    between atoms: C_22  and  C_23
REMARK   15  A    between atoms: C_24  and  C_29
REMARK                            x       y       z     vdW  Elec       q    Type
REMARK                         _______ _______ _______ _____ _____    ______ ____
ROOT
ATOM      8  C   UNL     1      -2.671  -1.396  24.641  0.00  0.00    +0.000 C 
ATOM      9  C   UNL     1      -1.611  -0.575  23.865  0.00  0.00    +0.032 C 
ATOM     10  C   UNL     1      -4.061  -1.203  24.015  0.00  0.00    +0.012 C 
ATOM     11  C   UNL     1      -4.497   0.273  24.009  0.00  0.00    +0.023 C 
ATOM     13  C   UNL     1      -3.396   1.183  23.504  0.00  0.00    -0.073 C 
ATOM     14  C   UNL     1      -2.114   0.783  23.433  0.00  0.00    -0.022 C 
ATOM     19  C   UNL     1      -3.809   2.551  23.037  0.00  0.00    +0.039 C 
ENDROOT
BRANCH   8  12
ATOM     12  C   UNL     1      -2.320  -2.887  24.677  0.00  0.00    -0.013 C 
ATOM     17  C   UNL     1      -3.589  -3.733  24.649  0.00  0.00    +0.007 C 
ATOM     18  C   UNL     1      -1.405  -3.246  23.511  0.00  0.00    +0.007 C 
ENDBRANCH   8  12
BRANCH   9  15
ATOM     15  C   UNL     1      -0.329  -0.406  24.690  0.00  0.00    +0.112 C 
BRANCH  15   5
ATOM      2  O   UNL     1       1.413   1.660  23.678  0.00  0.00    -0.276 OA
ATOM      5  N   UNL     1       0.828  -0.582  23.869  0.00  0.00    -0.315 N 
ATOM     21  C   UNL     1       1.620   0.477  23.421  0.00  0.00    +0.215 C 
ATOM     31  H   UNL     1       1.113  -1.530  23.643  0.00  0.00    +0.149 HD
BRANCH  21  24
ATOM     24  C   UNL     1       2.785  -0.002  22.569  0.00  0.00    +0.124 C 
BRANCH  24  29
ATOM     29  C   UNL     1       3.961   0.964  22.576  0.00  0.00    +0.168 C 
BRANCH  29   4
ATOM      4  O   UNL     1       4.707   0.790  23.773  0.00  0.00    -0.382 OA
ATOM     30  C   UNL     1       5.415  -0.443  23.770  0.00  0.00    +0.194 C 
ENDBRANCH  29   4
ENDBRANCH  24  29
ENDBRANCH  21  24
ENDBRANCH  15   5
ENDBRANCH   9  15
BRANCH  11  16
ATOM     16  C   UNL     1      -4.979   0.714  25.395  0.00  0.00    +0.103 C 
BRANCH  16  20
ATOM      1  O   UNL     1      -6.663   2.387  24.928  0.00  0.00    -0.276 OA
ATOM      6  N   UNL     1      -4.665   3.023  25.931  0.00  0.00    -0.314 N 
ATOM     20  C   UNL     1      -5.555   2.113  25.378  0.00  0.00    +0.214 C 
ATOM     32  H   UNL     1      -3.772   2.694  26.283  0.00  0.00    +0.149 HD
BRANCH   6  22
ATOM     22  C   UNL     1      -4.951   4.436  26.043  0.00  0.00    +0.119 C 
BRANCH  22  23
ATOM     23  C   UNL     1      -3.671   5.259  26.030  0.00  0.00    +0.103 C 
BRANCH  23   7
ATOM      3  O   UNL     1       0.163   3.611  25.595  0.00  0.00    -0.377 OA
ATOM      7  N   UNL     1      -2.555   4.455  25.540  0.00  0.00    -0.297 NA
ATOM     25  C   UNL     1      -2.046   3.569  26.597  0.00  0.00    +0.112 C 
ATOM     26  C   UNL     1      -1.472   5.314  25.039  0.00  0.00    +0.112 C 
ATOM     27  C   UNL     1      -0.873   2.749  26.066  0.00  0.00    +0.175 C 
ATOM     28  C   UNL     1      -0.314   4.452  24.545  0.00  0.00    +0.175 C 
ENDBRANCH  23   7
ENDBRANCH  22  23
ENDBRANCH   6  22
ENDBRANCH  16  20
ENDBRANCH  11  16
TORSDOF 11
ENDMDL
MODEL 6
REMARK VINA RESULT:      -2.3      2.192      3.714
REMARK  Name = 38027050
REMARK  15 active torsions:
REMARK  status: ('A' for Active; 'I' for Inactive)
REMARK    1  A    between atoms: O_4  and  C_29
REMARK    2  A    between atoms: O_4  and  C_30
REMARK    3  A    between atoms: N_5  and  C_15
REMARK    4  A    between atoms: N_6  and  C_22
REMARK    5  A    between atoms: N_7  and  C_23
REMARK    6  A    between atoms: C_8  and  C_12
REMARK    7  A    between atoms: C_9  and  C_15
REMARK    8  A    between atoms: C_11  and  C_16
REMARK    9  A    between atoms: C_12  and  C_17
REMARK   10  A    between atoms: C_12  and  C_18
REMARK   11  A    between atoms: C_13  and  C_19
REMARK   12  A    between atoms: C_16  and  C_20
REMARK   13  A    between atoms: C_21  and  C_24
REMARK   14  A    between atoms: C_22  and  C_23
REMARK   15  A    between atoms: C_24  and  C_29
REMARK                            x       y       z     vdW  Elec       q    Type
REMARK                         _______ _______ _______ _____ _____    ______ ____
ROOT
ATOM      8  C   UNL     1      -3.478   2.306  24.080  0.00  0.00    +0.000 C 
ATOM      9  C   UNL     1      -4.082   3.481  24.890  0.00  0.00    +0.032 C 
ATOM     10  C   UNL     1      -4.558   1.258  23.771  0.00  0.00    +0.012 C 
ATOM     11  C   UNL     1      -5.202   0.690  25.048  0.00  0.00    +0.023 C 
ATOM     13  C   UNL     1      -5.583   1.787  26.022  0.00  0.00    -0.073 C 
ATOM     14  C   UNL     1      -5.083   3.032  25.928  0.00  0.00    -0.022 C 
ATOM     19  C   UNL     1      -6.589   1.432  27.081  0.00  0.00    +0.039 C 
ENDROOT
BRANCH   8  12
ATOM     12  C   UNL     1      -2.831   2.786  22.777  0.00  0.00    -0.013 C 
ATOM     17  C   UNL     1      -2.406   1.596  21.924  0.00  0.00    +0.007 C 
ATOM     18  C   UNL     1      -3.792   3.687  22.008  0.00  0.00    +0.007 C 
ENDBRANCH   8  12
BRANCH   9  15
ATOM     15  C   UNL     1      -2.983   4.310  25.565  0.00  0.00    +0.112 C 
BRANCH  15   5
ATOM      2  O   UNL     1      -0.291   4.068  24.553  0.00  0.00    -0.276 OA
ATOM      5  N   UNL     1      -1.947   3.463  26.069  0.00  0.00    -0.315 N 
ATOM     21  C   UNL     1      -0.665   3.406  25.518  0.00  0.00    +0.215 C 
ATOM     31  H   UNL     1      -2.142   2.911  26.899  0.00  0.00    +0.149 HD
BRANCH  21  24
ATOM     24  C   UNL     1       0.231   2.423  26.254  0.00  0.00    +0.124 C 
BRANCH  24  29
ATOM     29  C   UNL     1       0.425   2.779  27.720  0.00  0.00    +0.168 C 
BRANCH  29   4
ATOM      4  O   UNL     1       1.815   2.834  28.012  0.00  0.00    -0.382 OA
ATOM     30  C   UNL     1       2.082   2.431  29.349  0.00  0.00    +0.194 C 
ENDBRANCH  29   4
ENDBRANCH  24  29
ENDBRANCH  21  24
ENDBRANCH  15   5
ENDBRANCH   9  15
BRANCH  11  16
ATOM     16  C   UNL     1      -4.288  -0.343  25.717  0.00  0.00    +0.103 C 
BRANCH  16  20
ATOM      1  O   UNL     1      -3.466  -1.426  23.716  0.00  0.00    -0.276 OA
ATOM      6  N   UNL     1      -1.953  -0.589  25.268  0.00  0.00    -0.314 N 
ATOM     20  C   UNL     1      -3.222  -0.853  24.773  0.00  0.00    +0.214 C 
ATOM     32  H   UNL     1      -1.856  -0.101  26.153  0.00  0.00    +0.149 HD
BRANCH   6  22
ATOM     22  C   UNL     1      -0.742  -0.967  24.574  0.00  0.00    +0.119 C 
BRANCH  22  23
ATOM     23  C   UNL     1      -0.332   0.093  23.564  0.00  0.00    +0.103 C 
BRANCH  23   7
ATOM      3  O   UNL     1       3.446   0.769  21.866  0.00  0.00    -0.377 OA
ATOM      7  N   UNL     1       1.089  -0.030  23.247  0.00  0.00    -0.297 NA
ATOM     25  C   UNL     1       1.813   1.196  23.610  0.00  0.00    +0.112 C 
ATOM     26  C   UNL     1       1.283  -0.326  21.820  0.00  0.00    +0.112 C 
ATOM     27  C   UNL     1       3.291   1.049  23.258  0.00  0.00    +0.175 C 
ATOM     28  C   UNL     1       2.773  -0.439  21.513  0.00  0.00    +0.175 C 
ENDBRANCH  23   7
ENDBRANCH  22  23
ENDBRANCH   6  22
ENDBRANCH  16  20
ENDBRANCH  11  16
TORSDOF 11
ENDMDL
MODEL 7
REMARK VINA RESULT:      -0.3      2.329      6.049
REMARK  Name = 38027050
REMARK  15 active torsions:
REMARK  status: ('A' for Active; 'I' for Inactive)
REMARK    1  A    between atoms: O_4  and  C_29
REMARK    2  A    between atoms: O_4  and  C_30
REMARK    3  A    between atoms: N_5  and  C_15
REMARK    4  A    between atoms: N_6  and  C_22
REMARK    5  A    between atoms: N_7  and  C_23
REMARK    6  A    between atoms: C_8  and  C_12
REMARK    7  A    between atoms: C_9  and  C_15
REMARK    8  A    between atoms: C_11  and  C_16
REMARK    9  A    between atoms: C_12  and  C_17
REMARK   10  A    between atoms: C_12  and  C_18
REMARK   11  A    between atoms: C_13  and  C_19
REMARK   12  A    between atoms: C_16  and  C_20
REMARK   13  A    between atoms: C_21  and  C_24
REMARK   14  A    between atoms: C_22  and  C_23
REMARK   15  A    between atoms: C_24  and  C_29
REMARK                            x       y       z     vdW  Elec       q    Type
REMARK                         _______ _______ _______ _____ _____    ______ ____
ROOT
ATOM      8  C   UNL     1      -1.667   4.146  24.693  0.00  0.00    +0.000 C 
ATOM      9  C   UNL     1      -1.767   3.574  26.129  0.00  0.00    +0.032 C 
ATOM     10  C   UNL     1      -2.899   5.004  24.371  0.00  0.00    +0.012 C 
ATOM     11  C   UNL     1      -4.211   4.207  24.487  0.00  0.00    +0.023 C 
ATOM     13  C   UNL     1      -4.266   3.398  25.767  0.00  0.00    -0.073 C 
ATOM     14  C   UNL     1      -3.166   3.137  26.495  0.00  0.00    -0.022 C 
ATOM     19  C   UNL     1      -5.624   2.935  26.217  0.00  0.00    +0.039 C 
ENDROOT
BRANCH   8  12
ATOM     12  C   UNL     1      -0.392   4.974  24.498  0.00  0.00    -0.013 C 
ATOM     17  C   UNL     1       0.107   4.853  23.062  0.00  0.00    +0.007 C 
ATOM     18  C   UNL     1      -0.645   6.433  24.862  0.00  0.00    +0.007 C 
ENDBRANCH   8  12
BRANCH   9  15
ATOM     15  C   UNL     1      -0.797   2.403  26.328  0.00  0.00    +0.112 C 
BRANCH  15   5
ATOM      2  O   UNL     1       1.398   2.082  24.483  0.00  0.00    -0.276 OA
ATOM      5  N   UNL     1      -0.764   1.571  25.166  0.00  0.00    -0.315 N 
ATOM     21  C   UNL     1       0.344   1.472  24.323  0.00  0.00    +0.215 C 
ATOM     31  H   UNL     1      -1.572   0.986  24.975  0.00  0.00    +0.149 HD
BRANCH  21  24
ATOM     24  C   UNL     1       0.101   0.513  23.169  0.00  0.00    +0.124 C 
BRANCH  24  29
ATOM     29  C   UNL     1       1.263  -0.441  22.935  0.00  0.00    +0.168 C 
BRANCH  29   4
ATOM      4  O   UNL     1       2.128   0.104  21.947  0.00  0.00    -0.382 OA
ATOM     30  C   UNL     1       3.422   0.364  22.476  0.00  0.00    +0.194 C 
ENDBRANCH  29   4
ENDBRANCH  24  29
ENDBRANCH  21  24
ENDBRANCH  15   5
ENDBRANCH   9  15
BRANCH  11  16
ATOM     16  C   UNL     1      -4.425   3.310  23.263  0.00  0.00    +0.103 C 
BRANCH  16  20
ATOM      1  O   UNL     1      -2.965   1.381  23.262  0.00  0.00    -0.276 OA
ATOM      6  N   UNL     1      -5.107   1.195  24.142  0.00  0.00    -0.314 N 
ATOM     20  C   UNL     1      -4.055   1.871  23.541  0.00  0.00    +0.214 C 
ATOM     32  H   UNL     1      -5.970   1.693  24.339  0.00  0.00    +0.149 HD
BRANCH   6  22
ATOM     22  C   UNL     1      -5.036  -0.199  24.520  0.00  0.00    +0.119 C 
BRANCH  22  23
ATOM     23  C   UNL     1      -4.160  -0.393  25.748  0.00  0.00    +0.103 C 
BRANCH  23   7
ATOM      3  O   UNL     1      -1.146  -2.810  24.110  0.00  0.00    -0.377 OA
ATOM      7  N   UNL     1      -3.230  -1.501  25.539  0.00  0.00    -0.297 NA
ATOM     25  C   UNL     1      -1.838  -1.035  25.612  0.00  0.00    +0.112 C 
ATOM     26  C   UNL     1      -3.476  -2.150  24.243  0.00  0.00    +0.112 C 
ATOM     27  C   UNL     1      -0.887  -2.206  25.378  0.00  0.00    +0.175 C 
ATOM     28  C   UNL     1      -2.487  -3.295  24.042  0.00  0.00    +0.175 C 
ENDBRANCH  23   7
ENDBRANCH  22  23
ENDBRANCH   6  22
ENDBRANCH  16  20
ENDBRANCH  11  16
TORSDOF 11
ENDMDL
MODEL 8
REMARK VINA RESULT:      -0.2      1.532      2.699
REMARK  Name = 38027050
REMARK  15 active torsions:
REMARK  status: ('A' for Active; 'I' for Inactive)
REMARK    1  A    between atoms: O_4  and  C_29
REMARK    2  A    between atoms: O_4  and  C_30
REMARK    3  A    between atoms: N_5  and  C_15
REMARK    4  A    between atoms: N_6  and  C_22
REMARK    5  A    between atoms: N_7  and  C_23
REMARK    6  A    between atoms: C_8  and  C_12
REMARK    7  A    between atoms: C_9  and  C_15
REMARK    8  A    between atoms: C_11  and  C_16
REMARK    9  A    between atoms: C_12  and  C_17
REMARK   10  A    between atoms: C_12  and  C_18
REMARK   11  A    between atoms: C_13  and  C_19
REMARK   12  A    between atoms: C_16  and  C_20
REMARK   13  A    between atoms: C_21  and  C_24
REMARK   14  A    between atoms: C_22  and  C_23
REMARK   15  A    between atoms: C_24  and  C_29
REMARK                            x       y       z     vdW  Elec       q    Type
REMARK                         _______ _______ _______ _____ _____    ______ ____
ROOT
ATOM      8  C   UNL     1      -3.115  -1.337  24.522  0.00  0.00    +0.000 C 
ATOM      9  C   UNL     1      -3.601  -0.102  25.322  0.00  0.00    +0.032 C 
ATOM     10  C   UNL     1      -1.757  -1.819  25.053  0.00  0.00    +0.012 C 
ATOM     11  C   UNL     1      -0.676  -0.726  24.966  0.00  0.00    +0.023 C 
ATOM     13  C   UNL     1      -1.176   0.603  25.495  0.00  0.00    -0.073 C 
ATOM     14  C   UNL     1      -2.486   0.859  25.661  0.00  0.00    -0.022 C 
ATOM     19  C   UNL     1      -0.132   1.616  25.874  0.00  0.00    +0.039 C 
ENDROOT
BRANCH   8  12
ATOM     12  C   UNL     1      -4.130  -2.483  24.575  0.00  0.00    -0.013 C 
ATOM     17  C   UNL     1      -4.760  -2.699  23.202  0.00  0.00    +0.007 C 
ATOM     18  C   UNL     1      -3.463  -3.762  25.071  0.00  0.00    +0.007 C 
ENDBRANCH   8  12
BRANCH   9  15
ATOM     15  C   UNL     1      -4.708   0.644  24.569  0.00  0.00    +0.112 C 
BRANCH  15   5
ATOM      2  O   UNL     1      -6.000   2.405  26.456  0.00  0.00    -0.276 OA
ATOM      5  N   UNL     1      -4.535   2.059  24.685  0.00  0.00    -0.315 N 
ATOM     21  C   UNL     1      -5.201   2.840  25.630  0.00  0.00    +0.215 C 
ATOM     31  H   UNL     1      -3.854   2.507  24.078  0.00  0.00    +0.149 HD
BRANCH  21  24
ATOM     24  C   UNL     1      -4.824   4.309  25.526  0.00  0.00    +0.124 C 
BRANCH  24  29
ATOM     29  C   UNL     1      -3.385   4.583  25.938  0.00  0.00    +0.168 C 
BRANCH  29   4
ATOM      4  O   UNL     1      -2.521   4.302  24.845  0.00  0.00    -0.382 OA
ATOM     30  C   UNL     1      -1.235   4.876  25.039  0.00  0.00    +0.194 C 
ENDBRANCH  29   4
ENDBRANCH  24  29
ENDBRANCH  21  24
ENDBRANCH  15   5
ENDBRANCH   9  15
BRANCH  11  16
ATOM     16  C   UNL     1      -0.148  -0.582  23.535  0.00  0.00    +0.103 C 
BRANCH  16  20
ATOM      1  O   UNL     1      -0.098   1.811  23.184  0.00  0.00    -0.276 OA
ATOM      6  N   UNL     1       1.898   0.622  23.254  0.00  0.00    -0.314 N 
ATOM     20  C   UNL     1       0.518   0.756  23.307  0.00  0.00    +0.214 C 
ATOM     32  H   UNL     1       2.314  -0.296  23.375  0.00  0.00    +0.149 HD
BRANCH   6  22
ATOM     22  C   UNL     1       2.791   1.740  23.043  0.00  0.00    +0.119 C 
BRANCH  22  23
ATOM     23  C   UNL     1       3.915   1.374  22.084  0.00  0.00    +0.103 C 
BRANCH  23   7
ATOM      3  O   UNL     1       5.592  -1.376  24.773  0.00  0.00    -0.377 OA
ATOM      7  N   UNL     1       4.716   0.283  22.633  0.00  0.00    -0.297 NA
ATOM     25  C   UNL     1       3.854  -0.767  23.193  0.00  0.00    +0.112 C 
ATOM     26  C   UNL     1       5.639   0.780  23.664  0.00  0.00    +0.112 C 
ATOM     27  C   UNL     1       4.713  -1.889  23.772  0.00  0.00    +0.175 C 
ATOM     28  C   UNL     1       6.455  -0.378  24.230  0.00  0.00    +0.175 C 
ENDBRANCH  23   7
ENDBRANCH  22  23
ENDBRANCH   6  22
ENDBRANCH  16  20
ENDBRANCH  11  16
TORSDOF 11
ENDMDL
MODEL 9
REMARK VINA RESULT:       0.1      2.143      3.263
REMARK  Name = 38027050
REMARK  15 active torsions:
REMARK  status: ('A' for Active; 'I' for Inactive)
REMARK    1  A    between atoms: O_4  and  C_29
REMARK    2  A    between atoms: O_4  and  C_30
REMARK    3  A    between atoms: N_5  and  C_15
REMARK    4  A    between atoms: N_6  and  C_22
REMARK    5  A    between atoms: N_7  and  C_23
REMARK    6  A    between atoms: C_8  and  C_12
REMARK    7  A    between atoms: C_9  and  C_15
REMARK    8  A    between atoms: C_11  and  C_16
REMARK    9  A    between atoms: C_12  and  C_17
REMARK   10  A    between atoms: C_12  and  C_18
REMARK   11  A    between atoms: C_13  and  C_19
REMARK   12  A    between atoms: C_16  and  C_20
REMARK   13  A    between atoms: C_21  and  C_24
REMARK   14  A    between atoms: C_22  and  C_23
REMARK   15  A    between atoms: C_24  and  C_29
REMARK                            x       y       z     vdW  Elec       q    Type
REMARK                         _______ _______ _______ _____ _____    ______ ____
ROOT
ATOM      8  C   UNL     1      -3.785   1.607  24.541  0.00  0.00    +0.000 C 
ATOM      9  C   UNL     1      -2.973   1.860  25.836  0.00  0.00    +0.032 C 
ATOM     10  C   UNL     1      -4.219   0.135  24.460  0.00  0.00    +0.012 C 
ATOM     11  C   UNL     1      -3.019  -0.828  24.479  0.00  0.00    +0.023 C 
ATOM     13  C   UNL     1      -2.030  -0.474  25.571  0.00  0.00    -0.073 C 
ATOM     14  C   UNL     1      -2.033   0.727  26.176  0.00  0.00    -0.022 C 
ATOM     19  C   UNL     1      -1.065  -1.550  25.985  0.00  0.00    +0.039 C 
ENDROOT
BRANCH   8  12
ATOM     12  C   UNL     1      -5.014   2.517  24.454  0.00  0.00    -0.013 C 
ATOM     17  C   UNL     1      -6.225   1.838  25.088  0.00  0.00    +0.007 C 
ATOM     18  C   UNL     1      -4.733   3.857  25.127  0.00  0.00    +0.007 C 
ENDBRANCH   8  12
BRANCH   9  15
ATOM     15  C   UNL     1      -2.182   3.170  25.746  0.00  0.00    +0.112 C 
BRANCH  15   5
ATOM      2  O   UNL     1       0.501   2.327  25.102  0.00  0.00    -0.276 OA
ATOM      5  N   UNL     1      -1.055   3.143  26.624  0.00  0.00    -0.315 N 
ATOM     21  C   UNL     1       0.216   2.719  26.230  0.00  0.00    +0.215 C 
ATOM     31  H   UNL     1      -1.177   3.496  27.569  0.00  0.00    +0.149 HD
BRANCH  21  24
ATOM     24  C   UNL     1       1.223   2.797  27.367  0.00  0.00    +0.124 C 
BRANCH  24  29
ATOM     29  C   UNL     1       0.639   2.377  28.707  0.00  0.00    +0.168 C 
BRANCH  29   4
ATOM      4  O   UNL     1       1.646   2.458  29.707  0.00  0.00    -0.382 OA
ATOM     30  C   UNL     1       2.875   2.929  29.170  0.00  0.00    +0.194 C 
ENDBRANCH  29   4
ENDBRANCH  24  29
ENDBRANCH  21  24
ENDBRANCH  15   5
ENDBRANCH   9  15
BRANCH  11  16
ATOM     16  C   UNL     1      -2.329  -0.880  23.111  0.00  0.00    +0.103 C 
BRANCH  16  20
ATOM      1  O   UNL     1      -1.452   1.341  22.724  0.00  0.00    -0.276 OA
ATOM      6  N   UNL     1       0.011  -0.402  23.195  0.00  0.00    -0.314 N 
ATOM     20  C   UNL     1      -1.240   0.161  22.984  0.00  0.00    +0.214 C 
ATOM     32  H   UNL     1       0.082  -1.391  23.411  0.00  0.00    +0.149 HD
BRANCH   6  22
ATOM     22  C   UNL     1       1.239   0.360  23.133  0.00  0.00    +0.119 C 
BRANCH  22  23
ATOM     23  C   UNL     1       2.127  -0.118  21.994  0.00  0.00    +0.103 C 
BRANCH  23   7
ATOM      3  O   UNL     1       5.498  -0.279  24.488  0.00  0.00    -0.377 OA
ATOM      7  N   UNL     1       3.492  -0.329  22.469  0.00  0.00    -0.297 NA
ATOM     25  C   UNL     1       3.522  -1.327  23.548  0.00  0.00    +0.112 C 
ATOM     26  C   UNL     1       4.084   0.934  22.934  0.00  0.00    +0.112 C 
ATOM     27  C   UNL     1       4.955  -1.520  24.036  0.00  0.00    +0.175 C 
ATOM     28  C   UNL     1       5.504   0.686  23.436  0.00  0.00    +0.175 C 
ENDBRANCH  23   7
ENDBRANCH  22  23
ENDBRANCH   6  22
ENDBRANCH  16  20
ENDBRANCH  11  16
TORSDOF 11
ENDMDL
MODEL 10
REMARK VINA RESULT:       0.1      1.502      2.755
REMARK  Name = 38027050
REMARK  15 active torsions:
REMARK  status: ('A' for Active; 'I' for Inactive)
REMARK    1  A    between atoms: O_4  and  C_29
REMARK    2  A    between atoms: O_4  and  C_30
REMARK    3  A    between atoms: N_5  and  C_15
REMARK    4  A    between atoms: N_6  and  C_22
REMARK    5  A    between atoms: N_7  and  C_23
REMARK    6  A    between atoms: C_8  and  C_12
REMARK    7  A    between atoms: C_9  and  C_15
REMARK    8  A    between atoms: C_11  and  C_16
REMARK    9  A    between atoms: C_12  and  C_17
REMARK   10  A    between atoms: C_12  and  C_18
REMARK   11  A    between atoms: C_13  and  C_19
REMARK   12  A    between atoms: C_16  and  C_20
REMARK   13  A    between atoms: C_21  and  C_24
REMARK   14  A    between atoms: C_22  and  C_23
REMARK   15  A    between atoms: C_24  and  C_29
REMARK                            x       y       z     vdW  Elec       q    Type
REMARK                         _______ _______ _______ _____ _____    ______ ____
ROOT
ATOM      8  C   UNL     1      -3.085  -0.760  24.852  0.00  0.00    +0.000 C 
ATOM      9  C   UNL     1      -3.151   0.783  24.739  0.00  0.00    +0.032 C 
ATOM     10  C   UNL     1      -2.521  -1.174  26.220  0.00  0.00    +0.012 C 
ATOM     11  C   UNL     1      -1.112  -0.606  26.465  0.00  0.00    +0.023 C 
ATOM     13  C   UNL     1      -1.029   0.867  26.117  0.00  0.00    -0.073 C 
ATOM     14  C   UNL     1      -1.957   1.474  25.356  0.00  0.00    -0.022 C 
ATOM     19  C   UNL     1       0.121   1.637  26.703  0.00  0.00    +0.039 C 
ENDROOT
BRANCH   8  12
ATOM     12  C   UNL     1      -4.458  -1.405  24.639  0.00  0.00    -0.013 C 
ATOM     17  C   UNL     1      -5.506  -0.338  24.336  0.00  0.00    +0.007 C 
ATOM     18  C   UNL     1      -4.393  -2.434  23.514  0.00  0.00    +0.007 C 
ENDBRANCH   8  12
BRANCH   9  15
ATOM     15  C   UNL     1      -3.299   1.226  23.279  0.00  0.00    +0.112 C 
BRANCH  15   5
ATOM      2  O   UNL     1      -4.888   3.126  24.759  0.00  0.00    -0.276 OA
ATOM      5  N   UNL     1      -3.255   2.651  23.174  0.00  0.00    -0.315 N 
ATOM     21  C   UNL     1      -4.062   3.502  23.932  0.00  0.00    +0.215 C 
ATOM     31  H   UNL     1      -2.567   3.063  22.551  0.00  0.00    +0.149 HD
BRANCH  21  24
ATOM     24  C   UNL     1      -3.803   4.967  23.616  0.00  0.00    +0.124 C 
BRANCH  24  29
ATOM     29  C   UNL     1      -2.788   5.605  24.552  0.00  0.00    +0.168 C 
BRANCH  29   4
ATOM      4  O   UNL     1      -1.964   4.593  25.115  0.00  0.00    -0.382 OA
ATOM     30  C   UNL     1      -0.589   4.832  24.845  0.00  0.00    +0.194 C 
ENDBRANCH  29   4
ENDBRANCH  24  29
ENDBRANCH  21  24
ENDBRANCH  15   5
ENDBRANCH   9  15
BRANCH  11  16
ATOM     16  C   UNL     1      -0.051  -1.409  25.704  0.00  0.00    +0.103 C 
BRANCH  16  20
ATOM      1  O   UNL     1      -0.888  -1.820  23.472  0.00  0.00    -0.276 OA
ATOM      6  N   UNL     1       0.743  -0.198  23.802  0.00  0.00    -0.314 N 
ATOM     20  C   UNL     1      -0.136  -1.190  24.210  0.00  0.00    +0.214 C 
ATOM     32  H   UNL     1       1.320   0.270  24.494  0.00  0.00    +0.149 HD
BRANCH   6  22
ATOM     22  C   UNL     1       0.877   0.219  22.424  0.00  0.00    +0.119 C 
BRANCH  22  23
ATOM     23  C   UNL     1       2.238  -0.163  21.862  0.00  0.00    +0.103 C 
BRANCH  23   7
ATOM      3  O   UNL     1       5.933  -0.346  23.843  0.00  0.00    -0.377 OA
ATOM      7  N   UNL     1       3.256  -0.096  22.907  0.00  0.00    -0.297 NA
ATOM     25  C   UNL     1       4.284   0.899  22.571  0.00  0.00    +0.112 C 
ATOM     26  C   UNL     1       3.878  -1.411  23.116  0.00  0.00    +0.112 C 
ATOM     27  C   UNL     1       5.343   0.943  23.670  0.00  0.00    +0.175 C 
ATOM     28  C   UNL     1       4.945  -1.312  24.202  0.00  0.00    +0.175 C 
ENDBRANCH  23   7
ENDBRANCH  22  23
ENDBRANCH   6  22
ENDBRANCH  16  20
ENDBRANCH  11  16
TORSDOF 11
ENDMDL
