MODEL 1
REMARK VINA RESULT:       5.3      0.000      0.000
REMARK  Name = 11883068
REMARK  9 active torsions:
REMARK  status: ('A' for Active; 'I' for Inactive)
REMARK    1  A    between atoms: O_2  and  C_15
REMARK    2  A    between atoms: O_3  and  C_20
REMARK    3  A    between atoms: N_8  and  C_26
REMARK    4  A    between atoms: C_10  and  C_18
REMARK    5  A    between atoms: C_12  and  C_20
REMARK    6  A    between atoms: C_12  and  C_21
REMARK    7  A    between atoms: C_13  and  C_23
REMARK    8  A    between atoms: C_23  and  C_24
REMARK    9  A    between atoms: C_31  and  C_32
REMARK                            x       y       z     vdW  Elec       q    Type
REMARK                         _______ _______ _______ _____ _____    ______ ____
ROOT
ATOM      1  S   UNL     1       0.410   2.115  25.811  0.00  0.00    -0.057 S 
ATOM      5  O   UNL     1       1.921   0.044  21.965  0.00  0.00    -0.266 OA
ATOM      7  N   UNL     1      -0.258   1.286  23.453  0.00  0.00    -0.229 NA
ATOM      9  N   UNL     1       2.031   0.937  24.121  0.00  0.00    -0.258 N 
ATOM     10  C   UNL     1      -3.904   2.212  24.303  0.00  0.00    -0.019 C 
ATOM     11  C   UNL     1      -3.460   3.407  25.258  0.00  0.00    +0.011 C 
ATOM     12  C   UNL     1      -4.604   4.150  26.051  0.00  0.00    +0.021 C 
ATOM     13  C   UNL     1      -2.698   1.910  23.298  0.00  0.00    +0.054 C 
ATOM     14  C   UNL     1      -5.136   2.648  23.470  0.00  0.00    +0.010 C 
ATOM     15  C   UNL     1      -5.775   4.472  25.080  0.00  0.00    +0.123 C 
ATOM     16  C   UNL     1      -2.243   3.007  26.141  0.00  0.00    +0.049 C 
ATOM     17  C   UNL     1      -6.259   3.255  24.299  0.00  0.00    +0.032 C 
ATOM     18  C   UNL     1      -4.261   0.921  25.081  0.00  0.00    +0.012 C 
ATOM     19  C   UNL     1      -1.385   1.837  24.036  0.00  0.00    +0.058 A 
ATOM     21  C   UNL     1      -4.054   5.506  26.578  0.00  0.00    +0.016 C 
ATOM     22  C   UNL     1      -1.198   2.352  25.303  0.00  0.00    +0.015 A 
ATOM     25  C   UNL     1       0.744   1.371  24.300  0.00  0.00    +0.165 A 
ATOM     31  C   UNL     1       2.566   0.299  22.979  0.00  0.00    +0.285 C 
ATOM     39  H   UNL     1       2.652   1.096  24.911  0.00  0.00    +0.157 HD
ENDROOT
BRANCH  31  32
ATOM      6  O   UNL     1       4.259  -1.296  23.671  0.00  0.00    -0.458 OA
ATOM     32  C   UNL     1       3.981  -0.099  23.092  0.00  0.00    +0.189 A 
ATOM     33  C   UNL     1       5.141   0.533  22.708  0.00  0.00    +0.054 A 
ATOM     34  C   UNL     1       6.200  -0.331  23.074  0.00  0.00    +0.042 A 
ATOM     35  C   UNL     1       5.612  -1.430  23.656  0.00  0.00    +0.196 A 
ENDBRANCH  31  32
BRANCH  15   2
ATOM      2  O   UNL     1      -6.879   5.029  25.791  0.00  0.00    -0.391 OA
ATOM     36  H   UNL     1      -7.692   4.766  25.327  0.00  0.00    +0.210 HD
ENDBRANCH  15   2
BRANCH  12  20
ATOM     20  C   UNL     1      -5.114   3.396  27.299  0.00  0.00    +0.165 C 
BRANCH  20   3
ATOM      3  O   UNL     1      -6.243   2.644  26.918  0.00  0.00    -0.394 OA
ATOM     37  H   UNL     1      -6.591   3.036  26.100  0.00  0.00    +0.209 HD
ENDBRANCH  20   3
ENDBRANCH  12  20
BRANCH  13  23
ATOM     23  C   UNL     1      -2.907   0.683  22.401  0.00  0.00    +0.106 C 
BRANCH  23  24
ATOM      4  O   UNL     1      -4.123  -1.186  23.339  0.00  0.00    -0.276 OA
ATOM      8  N   UNL     1      -1.849  -0.970  23.762  0.00  0.00    -0.312 N 
ATOM     24  C   UNL     1      -3.059  -0.587  23.206  0.00  0.00    +0.214 C 
ATOM     38  H   UNL     1      -1.017  -0.427  23.547  0.00  0.00    +0.149 HD
BRANCH   8  26
ATOM     26  C   UNL     1      -1.696  -2.146  24.584  0.00  0.00    +0.073 C 
ATOM     27  C   UNL     1      -2.954  -2.433  25.394  0.00  0.00    +0.022 C 
ATOM     28  C   UNL     1      -0.636  -1.954  25.662  0.00  0.00    +0.022 C 
ATOM     29  C   UNL     1      -2.849  -1.508  26.605  0.00  0.00    +0.002 C 
ATOM     30  C   UNL     1      -1.357  -1.235  26.801  0.00  0.00    +0.002 C 
ENDBRANCH   8  26
ENDBRANCH  23  24
ENDBRANCH  13  23
TORSDOF 7
ENDMDL
