MODEL 1
REMARK VINA RESULT:      -3.7      0.000      0.000
REMARK  Name = 45360662
REMARK  10 active torsions:
REMARK  status: ('A' for Active; 'I' for Inactive)
REMARK    1  A    between atoms: O_4  and  C_32
REMARK    2  A    between atoms: O_4  and  C_33
REMARK    3  A    between atoms: N_7  and  C_10
REMARK    4  A    between atoms: N_7  and  C_18
REMARK    5  A    between atoms: N_8  and  C_23
REMARK    6  A    between atoms: C_11  and  C_16
REMARK    7  A    between atoms: C_16  and  C_17
REMARK    8  A    between atoms: C_17  and  C_19
REMARK    9  A    between atoms: C_18  and  C_20
REMARK   10  A    between atoms: C_23  and  C_27
REMARK                            x       y       z     vdW  Elec       q    Type
REMARK                         _______ _______ _______ _____ _____    ______ ____
ROOT
ATOM      2  O   UNL     1       0.973   2.692  26.871  0.00  0.00    -0.274 OA
ATOM      5  N   UNL     1      -1.917   2.302  24.675  0.00  0.00    -0.286 NA
ATOM      6  N   UNL     1      -0.453   4.262  26.049  0.00  0.00    -0.313 N 
ATOM      9  C   UNL     1      -0.908   1.849  25.641  0.00  0.00    +0.145 C 
ATOM     10  C   UNL     1      -0.639   0.842  23.448  0.00  0.00    +0.070 C 
ATOM     11  C   UNL     1      -2.570   3.556  25.031  0.00  0.00    +0.075 C 
ATOM     12  C   UNL     1      -0.051   0.841  24.861  0.00  0.00    +0.048 C 
ATOM     13  C   UNL     1      -1.315   2.201  23.346  0.00  0.00    +0.104 C 
ATOM     14  C   UNL     1      -1.549   4.670  25.201  0.00  0.00    +0.123 C 
ATOM     15  C   UNL     1      -0.040   2.963  26.218  0.00  0.00    +0.230 C 
ATOM     34  H   UNL     1       0.123   4.994  26.455  0.00  0.00    +0.149 HD
ENDROOT
BRANCH  10   7
ATOM      7  N   UNL     1       0.358   0.611  22.416  0.00  0.00    -0.308 NA
ATOM     35  H   UNL     1      -0.108   0.546  21.511  0.00  0.00    +0.123 HD
BRANCH   7  18
ATOM     18  C   UNL     1       1.088  -0.628  22.659  0.00  0.00    +0.116 C 
BRANCH  18  20
ATOM      1  F   UNL     1       6.548   0.305  23.668  0.00  0.00    -0.205 F 
ATOM     20  C   UNL     1       2.544  -0.379  22.928  0.00  0.00    -0.033 A 
ATOM     21  C   UNL     1       3.308  -1.348  23.577  0.00  0.00    +0.008 A 
ATOM     22  C   UNL     1       3.132   0.822  22.529  0.00  0.00    +0.008 A 
ATOM     24  C   UNL     1       4.661  -1.118  23.827  0.00  0.00    +0.038 A 
ATOM     25  C   UNL     1       4.484   1.052  22.780  0.00  0.00    +0.038 A 
ATOM     26  C   UNL     1       5.249   0.083  23.428  0.00  0.00    +0.123 A 
ENDBRANCH  18  20
ENDBRANCH   7  18
ENDBRANCH  10   7
BRANCH  11  16
ATOM     16  C   UNL     1      -3.663   3.959  24.039  0.00  0.00    +0.029 C 
BRANCH  16  17
ATOM     17  C   UNL     1      -5.010   4.106  24.733  0.00  0.00    +0.097 C 
BRANCH  17  19
ATOM      3  O   UNL     1      -5.945   2.763  26.518  0.00  0.00    -0.276 OA
ATOM      8  N   UNL     1      -5.244   1.719  24.567  0.00  0.00    -0.311 N 
ATOM     19  C   UNL     1      -5.458   2.813  25.392  0.00  0.00    +0.213 C 
ATOM     36  H   UNL     1      -4.809   1.844  23.658  0.00  0.00    +0.149 HD
BRANCH   8  23
ATOM     23  C   UNL     1      -5.587   0.374  24.966  0.00  0.00    +0.139 C 
BRANCH  23  27
ATOM     27  C   UNL     1      -4.394  -0.538  24.948  0.00  0.00    -0.030 A 
ATOM     28  C   UNL     1      -4.163  -1.363  23.846  0.00  0.00    +0.009 A 
ATOM     29  C   UNL     1      -3.517  -0.560  26.031  0.00  0.00    +0.009 A 
ATOM     30  C   UNL     1      -3.055  -2.210  23.830  0.00  0.00    +0.046 A 
ATOM     31  C   UNL     1      -2.410  -1.408  26.015  0.00  0.00    +0.046 A 
ATOM     32  C   UNL     1      -2.179  -2.232  24.915  0.00  0.00    +0.120 A 
BRANCH  32   4
ATOM      4  O   UNL     1      -1.097  -3.058  24.897  0.00  0.00    -0.495 OA
ATOM     33  C   UNL     1       0.107  -2.565  25.485  0.00  0.00    +0.277 C 
ENDBRANCH  32   4
ENDBRANCH  23  27
ENDBRANCH   8  23
ENDBRANCH  17  19
ENDBRANCH  16  17
ENDBRANCH  11  16
TORSDOF 9
ENDMDL
MODEL 2
REMARK VINA RESULT:      -1.4      1.763      2.806
REMARK  Name = 45360662
REMARK  10 active torsions:
REMARK  status: ('A' for Active; 'I' for Inactive)
REMARK    1  A    between atoms: O_4  and  C_32
REMARK    2  A    between atoms: O_4  and  C_33
REMARK    3  A    between atoms: N_7  and  C_10
REMARK    4  A    between atoms: N_7  and  C_18
REMARK    5  A    between atoms: N_8  and  C_23
REMARK    6  A    between atoms: C_11  and  C_16
REMARK    7  A    between atoms: C_16  and  C_17
REMARK    8  A    between atoms: C_17  and  C_19
REMARK    9  A    between atoms: C_18  and  C_20
REMARK   10  A    between atoms: C_23  and  C_27
REMARK                            x       y       z     vdW  Elec       q    Type
REMARK                         _______ _______ _______ _____ _____    ______ ____
ROOT
ATOM      2  O   UNL     1      -0.920  -1.064  26.649  0.00  0.00    -0.274 OA
ATOM      5  N   UNL     1      -0.713   1.763  24.349  0.00  0.00    -0.286 NA
ATOM      6  N   UNL     1      -0.167   1.053  27.008  0.00  0.00    -0.313 N 
ATOM      9  C   UNL     1      -1.221   0.472  24.829  0.00  0.00    +0.145 C 
ATOM     10  C   UNL     1       0.074   0.281  22.784  0.00  0.00    +0.070 C 
ATOM     11  C   UNL     1      -0.666   2.806  25.368  0.00  0.00    +0.075 C 
ATOM     12  C   UNL     1      -0.739  -0.545  23.783  0.00  0.00    +0.048 C 
ATOM     13  C   UNL     1       0.510   1.492  23.595  0.00  0.00    +0.104 C 
ATOM     14  C   UNL     1       0.191   2.374  26.546  0.00  0.00    +0.123 C 
ATOM     15  C   UNL     1      -0.739   0.081  26.223  0.00  0.00    +0.230 C 
ATOM     34  H   UNL     1       0.130   0.785  27.942  0.00  0.00    +0.149 HD
ENDROOT
BRANCH  10   7
ATOM      7  N   UNL     1       1.184  -0.458  22.203  0.00  0.00    -0.308 NA
ATOM     35  H   UNL     1       1.465  -1.198  22.846  0.00  0.00    +0.123 HD
BRANCH   7  18
ATOM     18  C   UNL     1       2.327   0.416  21.965  0.00  0.00    +0.116 C 
BRANCH  18  20
ATOM      1  F   UNL     1       6.806  -1.085  25.029  0.00  0.00    -0.205 F 
ATOM     20  C   UNL     1       3.521   0.015  22.782  0.00  0.00    -0.033 A 
ATOM     21  C   UNL     1       4.560   0.922  22.988  0.00  0.00    +0.008 A 
ATOM     22  C   UNL     1       3.591  -1.263  23.335  0.00  0.00    +0.008 A 
ATOM     24  C   UNL     1       5.670   0.550  23.747  0.00  0.00    +0.038 A 
ATOM     25  C   UNL     1       4.701  -1.635  24.093  0.00  0.00    +0.038 A 
ATOM     26  C   UNL     1       5.740  -0.728  24.300  0.00  0.00    +0.123 A 
ENDBRANCH  18  20
ENDBRANCH   7  18
ENDBRANCH  10   7
BRANCH  11  16
ATOM     16  C   UNL     1      -0.201   4.155  24.815  0.00  0.00    +0.029 C 
BRANCH  16  17
ATOM     17  C   UNL     1      -1.244   5.237  25.053  0.00  0.00    +0.097 C 
BRANCH  17  19
ATOM      3  O   UNL     1      -3.014   4.635  26.592  0.00  0.00    -0.276 OA
ATOM      8  N   UNL     1      -3.270   4.163  24.333  0.00  0.00    -0.311 N 
ATOM     19  C   UNL     1      -2.593   4.657  25.438  0.00  0.00    +0.213 C 
ATOM     36  H   UNL     1      -2.838   4.195  23.415  0.00  0.00    +0.149 HD
BRANCH   8  23
ATOM     23  C   UNL     1      -4.578   3.558  24.438  0.00  0.00    +0.139 C 
BRANCH  23  27
ATOM     27  C   UNL     1      -4.512   2.060  24.341  0.00  0.00    -0.030 A 
ATOM     28  C   UNL     1      -5.076   1.271  25.344  0.00  0.00    +0.009 A 
ATOM     29  C   UNL     1      -3.888   1.459  23.250  0.00  0.00    +0.009 A 
ATOM     30  C   UNL     1      -5.015  -0.119  25.255  0.00  0.00    +0.046 A 
ATOM     31  C   UNL     1      -3.827   0.068  23.160  0.00  0.00    +0.046 A 
ATOM     32  C   UNL     1      -4.390  -0.720  24.162  0.00  0.00    +0.120 A 
BRANCH  32   4
ATOM      4  O   UNL     1      -4.333  -2.077  24.075  0.00  0.00    -0.495 OA
ATOM     33  C   UNL     1      -3.429  -2.748  24.952  0.00  0.00    +0.277 C 
ENDBRANCH  32   4
ENDBRANCH  23  27
ENDBRANCH   8  23
ENDBRANCH  17  19
ENDBRANCH  16  17
ENDBRANCH  11  16
TORSDOF 9
ENDMDL
