MODEL 1
REMARK VINA RESULT:       3.3      0.000      0.000
REMARK  Name = 11882510
REMARK  5 active torsions:
REMARK  status: ('A' for Active; 'I' for Inactive)
REMARK    1  A    between atoms: N_6  and  C_14
REMARK    2  A    between atoms: CA_18  and  CB_21
REMARK    3  A    between atoms: CB_21  and  CG_23
REMARK    4  A    between atoms: C_22  and  C_27
REMARK    5  A    between atoms: C_25  and  C_30
REMARK                            x       y       z     vdW  Elec       q    Type
REMARK                         _______ _______ _______ _____ _____    ______ ____
ROOT
ATOM      1  O   TRP A   2      -3.967  -2.406  24.995  0.00  0.00    -0.274 OA
ATOM      2  O   UNK A   1      -1.396   1.727  22.835  0.00  0.00    -0.274 OA
ATOM      5  N   UNK A   1      -2.000  -1.197  24.688  0.00  0.00    -0.288 N 
ATOM      7  N   TRP A   2      -3.359   0.633  23.312  0.00  0.00    -0.302 N 
ATOM     13  C   UNK A   1      -1.411   0.145  24.673  0.00  0.00    +0.164 C 
ATOM     14  C   UNK A   1       0.666  -0.952  23.688  0.00  0.00    +0.113 C 
ATOM     15  C   UNK A   1       0.123   0.119  24.653  0.00  0.00    +0.059 C 
ATOM     16  C   UNK A   1       0.027  -2.342  23.912  0.00  0.00    +0.046 C 
ATOM     17  C   UNK A   1      -1.103  -2.319  24.939  0.00  0.00    +0.110 C 
ATOM     18  CA  TRP A   2      -4.162  -0.137  24.248  0.00  0.00    +0.163 C 
ATOM     19  C   TRP A   2      -3.383  -1.377  24.658  0.00  0.00    +0.237 C 
ATOM     20  C   UNK A   1      -2.011   0.891  23.492  0.00  0.00    +0.234 C 
ATOM     34  H   TRP A   2      -3.838   1.127  22.565  0.00  0.00    +0.150 HD
ENDROOT
BRANCH  14   6
ATOM      6  N   UNK A   1       2.135  -1.002  23.696  0.00  0.00    -0.236 N 
ATOM      8  N   UNK A   1       2.763  -2.146  23.989  0.00  0.00    -0.064 NA
ATOM      9  N   UNK A   1       4.067  -1.901  23.920  0.00  0.00    -0.124 NA
ATOM     22  C   UNK A   1       3.002   0.006  23.432  0.00  0.00    +0.156 A 
ATOM     25  C   UNK A   1       4.229  -0.587  23.580  0.00  0.00    +0.179 A 
BRANCH  22  27
ATOM      3  O   UNK A   1       3.350   2.068  22.327  0.00  0.00    -0.269 OA
ATOM     11  N   UNK A   1       1.473   1.878  23.608  0.00  0.00    -0.324 N 
ATOM     27  C   UNK A   1       2.660   1.348  23.086  0.00  0.00    +0.262 C 
ATOM     36  H   UNK A   1       0.867   1.340  24.219  0.00  0.00    +0.145 HD
ATOM     37  H   UNK A   1       1.182   2.824  23.385  0.00  0.00    +0.145 HD
ENDBRANCH  22  27
BRANCH  25  30
ATOM      4  O   UNK A   1       6.362  -0.371  22.583  0.00  0.00    -0.269 OA
ATOM     12  N   UNK A   1       5.824   1.120  24.221  0.00  0.00    -0.324 N 
ATOM     30  C   UNK A   1       5.515   0.019  23.418  0.00  0.00    +0.264 C 
ATOM     38  H   UNK A   1       5.172   1.486  24.908  0.00  0.00    +0.145 HD
ATOM     39  H   UNK A   1       6.719   1.591  24.139  0.00  0.00    +0.145 HD
ENDBRANCH  25  30
ENDBRANCH  14   6
BRANCH  18  21
ATOM     21  CB  TRP A   2      -4.637   0.677  25.441  0.00  0.00    +0.069 C 
BRANCH  21  23
ATOM     10  NE1 TRP A   2      -5.065   4.215  24.647  0.00  0.00    -0.360 N 
ATOM     23  CG  TRP A   2      -4.533   2.158  25.185  0.00  0.00    -0.020 A 
ATOM     24  CD2 TRP A   2      -3.374   2.936  25.345  0.00  0.00    +0.003 A 
ATOM     26  CD1 TRP A   2      -5.558   2.943  24.760  0.00  0.00    +0.087 A 
ATOM     28  CE2 TRP A   2      -3.734   4.241  24.998  0.00  0.00    +0.047 A 
ATOM     29  CE3 TRP A   2      -2.049   2.683  25.749  0.00  0.00    +0.010 A 
ATOM     31  CZ2 TRP A   2      -2.829   5.308  25.035  0.00  0.00    +0.026 A 
ATOM     32  CZ3 TRP A   2      -1.133   3.740  25.790  0.00  0.00    +0.001 A 
ATOM     33  CH2 TRP A   2      -1.520   5.033  25.438  0.00  0.00    +0.002 A 
ATOM     35  HE1 TRP A   2      -5.600   5.019  24.350  0.00  0.00    +0.165 HD
ENDBRANCH  21  23
ENDBRANCH  18  21
TORSDOF 5
ENDMDL
MODEL 2
REMARK VINA RESULT:       3.9      2.326      7.853
REMARK  Name = 11882510
REMARK  5 active torsions:
REMARK  status: ('A' for Active; 'I' for Inactive)
REMARK    1  A    between atoms: N_6  and  C_14
REMARK    2  A    between atoms: CA_18  and  CB_21
REMARK    3  A    between atoms: CB_21  and  CG_23
REMARK    4  A    between atoms: C_22  and  C_27
REMARK    5  A    between atoms: C_25  and  C_30
REMARK                            x       y       z     vdW  Elec       q    Type
REMARK                         _______ _______ _______ _____ _____    ______ ____
ROOT
ATOM      1  O   TRP A   2      -1.563  -3.159  23.934  0.00  0.00    -0.274 OA
ATOM      2  O   UNK A   1      -0.230   1.745  25.525  0.00  0.00    -0.274 OA
ATOM      5  N   UNK A   1      -2.090  -0.901  24.151  0.00  0.00    -0.288 N 
ATOM      7  N   TRP A   2       0.346  -0.442  25.122  0.00  0.00    -0.302 N 
ATOM     13  C   UNK A   1      -1.591   0.466  23.978  0.00  0.00    +0.164 C 
ATOM     14  C   UNK A   1      -3.666   1.213  25.251  0.00  0.00    +0.113 C 
ATOM     15  C   UNK A   1      -2.699   1.521  24.092  0.00  0.00    +0.059 C 
ATOM     16  C   UNK A   1      -4.195  -0.239  25.224  0.00  0.00    +0.046 C 
ATOM     17  C   UNK A   1      -3.536  -1.092  24.143  0.00  0.00    +0.110 C 
ATOM     18  CA  TRP A   2       0.245  -1.624  24.282  0.00  0.00    +0.163 C 
ATOM     19  C   TRP A   2      -1.222  -1.993  24.129  0.00  0.00    +0.237 C 
ATOM     20  C   UNK A   1      -0.467   0.669  24.982  0.00  0.00    +0.234 C 
ATOM     34  H   TRP A   2       1.143  -0.367  25.747  0.00  0.00    +0.150 HD
ENDROOT
BRANCH  14   6
ATOM      6  N   UNK A   1      -4.748   2.205  25.339  0.00  0.00    -0.236 N 
ATOM      8  N   UNK A   1      -6.015   1.798  25.484  0.00  0.00    -0.064 NA
ATOM      9  N   UNK A   1      -6.768   2.892  25.535  0.00  0.00    -0.124 NA
ATOM     22  C   UNK A   1      -4.644   3.555  25.291  0.00  0.00    +0.156 A 
ATOM     25  C   UNK A   1      -5.943   3.976  25.418  0.00  0.00    +0.179 A 
BRANCH  22  27
ATOM      3  O   UNK A   1      -3.106   4.884  24.083  0.00  0.00    -0.269 OA
ATOM     11  N   UNK A   1      -2.598   4.423  26.257  0.00  0.00    -0.324 N 
ATOM     27  C   UNK A   1      -3.440   4.307  25.144  0.00  0.00    +0.262 C 
ATOM     36  H   UNK A   1      -2.821   3.986  27.146  0.00  0.00    +0.145 HD
ATOM     37  H   UNK A   1      -1.736   4.953  26.206  0.00  0.00    +0.145 HD
ENDBRANCH  22  27
BRANCH  25  30
ATOM      4  O   UNK A   1      -6.357   6.092  24.449  0.00  0.00    -0.269 OA
ATOM     12  N   UNK A   1      -7.026   5.787  26.607  0.00  0.00    -0.324 N 
ATOM     30  C   UNK A   1      -6.426   5.322  25.433  0.00  0.00    +0.264 C 
ATOM     38  H   UNK A   1      -7.118   5.204  27.433  0.00  0.00    +0.145 HD
ATOM     39  H   UNK A   1      -7.392   6.732  26.667  0.00  0.00    +0.145 HD
ENDBRANCH  25  30
ENDBRANCH  14   6
BRANCH  18  21
ATOM     21  CB  TRP A   2       0.952  -1.471  22.944  0.00  0.00    +0.069 C 
BRANCH  21  23
ATOM     10  NE1 TRP A   2       3.074   1.499  22.872  0.00  0.00    -0.360 N 
ATOM     23  CG  TRP A   2       2.036  -0.426  23.001  0.00  0.00    -0.020 A 
ATOM     24  CD2 TRP A   2       3.373  -0.655  23.371  0.00  0.00    +0.003 A 
ATOM     26  CD1 TRP A   2       1.862   0.887  22.699  0.00  0.00    +0.087 A 
ATOM     28  CE2 TRP A   2       4.015   0.583  23.282  0.00  0.00    +0.047 A 
ATOM     29  CE3 TRP A   2       4.119  -1.779  23.776  0.00  0.00    +0.010 A 
ATOM     31  CZ2 TRP A   2       5.372   0.751  23.579  0.00  0.00    +0.026 A 
ATOM     32  CZ3 TRP A   2       5.477  -1.625  24.075  0.00  0.00    +0.001 A 
ATOM     33  CH2 TRP A   2       6.092  -0.378  23.978  0.00  0.00    +0.002 A 
ATOM     35  HE1 TRP A   2       3.253   2.482  22.721  0.00  0.00    +0.165 HD
ENDBRANCH  21  23
ENDBRANCH  18  21
TORSDOF 5
ENDMDL
MODEL 3
REMARK VINA RESULT:       5.4      1.992      4.014
REMARK  Name = 11882510
REMARK  5 active torsions:
REMARK  status: ('A' for Active; 'I' for Inactive)
REMARK    1  A    between atoms: N_6  and  C_14
REMARK    2  A    between atoms: CA_18  and  CB_21
REMARK    3  A    between atoms: CB_21  and  CG_23
REMARK    4  A    between atoms: C_22  and  C_27
REMARK    5  A    between atoms: C_25  and  C_30
REMARK                            x       y       z     vdW  Elec       q    Type
REMARK                         _______ _______ _______ _____ _____    ______ ____
ROOT
ATOM      1  O   TRP A   2      -4.623   3.472  23.054  0.00  0.00    -0.274 OA
ATOM      2  O   UNK A   1      -0.974   3.496  26.933  0.00  0.00    -0.274 OA
ATOM      5  N   UNK A   1      -2.662   2.620  23.978  0.00  0.00    -0.288 N 
ATOM      7  N   TRP A   2      -3.005   4.182  26.107  0.00  0.00    -0.302 N 
ATOM     13  C   UNK A   1      -2.027   2.149  25.212  0.00  0.00    +0.164 C 
ATOM     14  C   UNK A   1       0.160   2.181  23.909  0.00  0.00    +0.113 C 
ATOM     15  C   UNK A   1      -0.690   1.441  24.959  0.00  0.00    +0.059 C 
ATOM     16  C   UNK A   1      -0.624   2.501  22.616  0.00  0.00    +0.046 C 
ATOM     17  C   UNK A   1      -2.106   2.145  22.716  0.00  0.00    +0.110 C 
ATOM     18  CA  TRP A   2      -4.228   3.869  25.385  0.00  0.00    +0.163 C 
ATOM     19  C   TRP A   2      -3.862   3.331  24.011  0.00  0.00    +0.237 C 
ATOM     20  C   UNK A   1      -1.903   3.346  26.142  0.00  0.00    +0.234 C 
ATOM     34  H   TRP A   2      -3.011   4.983  26.731  0.00  0.00    +0.150 HD
ENDROOT
BRANCH  14   6
ATOM      6  N   UNK A   1       1.426   1.483  23.640  0.00  0.00    -0.236 N 
ATOM      8  N   UNK A   1       2.528   2.186  23.355  0.00  0.00    -0.064 NA
ATOM      9  N   UNK A   1       3.507   1.308  23.161  0.00  0.00    -0.124 NA
ATOM     22  C   UNK A   1       1.654   0.147  23.639  0.00  0.00    +0.156 A 
ATOM     25  C   UNK A   1       2.988   0.055  23.331  0.00  0.00    +0.179 A 
BRANCH  22  27
ATOM      3  O   UNK A   1      -0.247  -1.163  23.129  0.00  0.00    -0.269 OA
ATOM     11  N   UNK A   1       0.832  -1.615  25.085  0.00  0.00    -0.324 N 
ATOM     27  C   UNK A   1       0.695  -0.876  23.903  0.00  0.00    +0.262 C 
ATOM     36  H   UNK A   1       1.582  -1.436  25.746  0.00  0.00    +0.145 HD
ATOM     37  H   UNK A   1       0.182  -2.357  25.315  0.00  0.00    +0.145 HD
ENDBRANCH  22  27
BRANCH  25  30
ATOM      4  O   UNK A   1       3.497  -2.054  22.393  0.00  0.00    -0.269 OA
ATOM     12  N   UNK A   1       4.916  -1.255  23.988  0.00  0.00    -0.324 N 
ATOM     30  C   UNK A   1       3.771  -1.133  23.196  0.00  0.00    +0.264 C 
ATOM     38  H   UNK A   1       5.193  -0.536  24.650  0.00  0.00    +0.145 HD
ATOM     39  H   UNK A   1       5.510  -2.075  23.924  0.00  0.00    +0.145 HD
ENDBRANCH  25  30
ENDBRANCH  14   6
BRANCH  18  21
ATOM     21  CB  TRP A   2      -5.155   2.939  26.150  0.00  0.00    +0.069 C 
BRANCH  21  23
ATOM     10  NE1 TRP A   2      -6.476   0.264  24.045  0.00  0.00    -0.360 N 
ATOM     23  CG  TRP A   2      -5.464   1.689  25.367  0.00  0.00    -0.020 A 
ATOM     24  CD2 TRP A   2      -4.678   0.525  25.340  0.00  0.00    +0.003 A 
ATOM     26  CD1 TRP A   2      -6.557   1.523  24.577  0.00  0.00    +0.087 A 
ATOM     28  CE2 TRP A   2      -5.339  -0.369  24.494  0.00  0.00    +0.047 A 
ATOM     29  CE3 TRP A   2      -3.468   0.122  25.940  0.00  0.00    +0.010 A 
ATOM     31  CZ2 TRP A   2      -4.849  -1.650  24.218  0.00  0.00    +0.026 A 
ATOM     32  CZ3 TRP A   2      -2.967  -1.157  25.674  0.00  0.00    +0.001 A 
ATOM     33  CH2 TRP A   2      -3.647  -2.027  24.825  0.00  0.00    +0.002 A 
ATOM     35  HE1 TRP A   2      -7.153  -0.143  23.415  0.00  0.00    +0.165 HD
ENDBRANCH  21  23
ENDBRANCH  18  21
TORSDOF 5
ENDMDL
