MODEL 1
REMARK VINA RESULT:      -1.4      0.000      0.000
REMARK  Name = 11884350
REMARK  9 active torsions:
REMARK  status: ('A' for Active; 'I' for Inactive)
REMARK    1  A    between atoms: O_3  and  C_12
REMARK    2  A    between atoms: O_5  and  C_19
REMARK    3  A    between atoms: O_5  and  C_22
REMARK    4  A    between atoms: O_6  and  C_20
REMARK    5  A    between atoms: O_6  and  C_23
REMARK    6  A    between atoms: O_7  and  C_21
REMARK    7  A    between atoms: O_7  and  C_24
REMARK    8  A    between atoms: N_8  and  C_11
REMARK    9  A    between atoms: C_15  and  C_16
REMARK                            x       y       z     vdW  Elec       q    Type
REMARK                         _______ _______ _______ _____ _____    ______ ____
ROOT
ATOM      4  O   UNL     1       0.206  -1.306  24.569  0.00  0.00    -0.270 OA
ATOM      8  N   UNL     1       1.026   0.124  22.937  0.00  0.00    -0.304 N 
ATOM     15  C   UNL     1       0.105  -0.286  23.891  0.00  0.00    +0.245 C 
ATOM     25  H   UNL     1       0.823   0.915  22.336  0.00  0.00    +0.149 HD
ENDROOT
BRANCH   8  11
ATOM      1  O   UNL     1       3.959   0.984  22.321  0.00  0.00    -0.369 OA
ATOM      2  O   UNL     1       4.124  -1.752  23.671  0.00  0.00    -0.369 OA
ATOM      9  C   UNL     1       3.179  -0.672  23.824  0.00  0.00    +0.172 C 
ATOM     10  C   UNL     1       3.966   0.617  23.712  0.00  0.00    +0.179 C 
ATOM     11  C   UNL     1       2.238  -0.635  22.638  0.00  0.00    +0.130 C 
ATOM     12  C   UNL     1       5.343   0.198  24.171  0.00  0.00    +0.171 C 
ATOM     13  C   UNL     1       3.073   0.109  21.606  0.00  0.00    +0.185 C 
ATOM     14  C   UNL     1       5.450  -1.205  23.620  0.00  0.00    +0.194 C 
BRANCH  12   3
ATOM      3  O   UNL     1       6.373   1.036  23.695  0.00  0.00    -0.387 OA
ATOM     26  H   UNL     1       7.051   1.102  24.388  0.00  0.00    +0.210 HD
ENDBRANCH  12   3
ENDBRANCH   8  11
BRANCH  15  16
ATOM     16  C   UNL     1      -1.088   0.581  24.060  0.00  0.00    +0.044 A 
ATOM     17  C   UNL     1      -0.919   1.950  24.096  0.00  0.00    +0.062 A 
ATOM     18  C   UNL     1      -2.331  -0.009  24.173  0.00  0.00    +0.062 A 
ATOM     19  C   UNL     1      -3.453   0.805  24.329  0.00  0.00    +0.166 A 
ATOM     20  C   UNL     1      -2.041   2.764  24.252  0.00  0.00    +0.166 A 
ATOM     21  C   UNL     1      -3.308   2.191  24.368  0.00  0.00    +0.204 A 
BRANCH  19   5
ATOM      5  O   UNL     1      -4.684   0.233  24.440  0.00  0.00    -0.491 OA
ATOM     22  C   UNL     1      -4.765  -1.175  24.230  0.00  0.00    +0.277 C 
ENDBRANCH  19   5
BRANCH  20   6
ATOM      6  O   UNL     1      -1.885   4.117  24.290  0.00  0.00    -0.491 OA
ATOM     23  C   UNL     1      -0.788   4.622  25.048  0.00  0.00    +0.277 C 
ENDBRANCH  20   6
BRANCH  21   7
ATOM      7  O   UNL     1      -4.403   2.988  24.521  0.00  0.00    -0.488 OA
ATOM     24  C   UNL     1      -4.748   3.364  25.853  0.00  0.00    +0.277 C 
ENDBRANCH  21   7
ENDBRANCH  15  16
TORSDOF 6
ENDMDL
MODEL 2
REMARK VINA RESULT:      -1.4      0.009      2.657
REMARK  Name = 11884350
REMARK  9 active torsions:
REMARK  status: ('A' for Active; 'I' for Inactive)
REMARK    1  A    between atoms: O_3  and  C_12
REMARK    2  A    between atoms: O_5  and  C_19
REMARK    3  A    between atoms: O_5  and  C_22
REMARK    4  A    between atoms: O_6  and  C_20
REMARK    5  A    between atoms: O_6  and  C_23
REMARK    6  A    between atoms: O_7  and  C_21
REMARK    7  A    between atoms: O_7  and  C_24
REMARK    8  A    between atoms: N_8  and  C_11
REMARK    9  A    between atoms: C_15  and  C_16
REMARK                            x       y       z     vdW  Elec       q    Type
REMARK                         _______ _______ _______ _____ _____    ______ ____
ROOT
ATOM      4  O   UNL     1       0.213  -1.306  24.572  0.00  0.00    -0.270 OA
ATOM      8  N   UNL     1       1.023   0.118  22.931  0.00  0.00    -0.304 N 
ATOM     15  C   UNL     1       0.107  -0.289  23.890  0.00  0.00    +0.245 C 
ATOM     25  H   UNL     1       0.816   0.906  22.326  0.00  0.00    +0.149 HD
ENDROOT
BRANCH   8  11
ATOM      1  O   UNL     1       3.956   0.984  22.320  0.00  0.00    -0.369 OA
ATOM      2  O   UNL     1       4.123  -1.755  23.664  0.00  0.00    -0.369 OA
ATOM      9  C   UNL     1       3.176  -0.676  23.818  0.00  0.00    +0.172 C 
ATOM     10  C   UNL     1       3.962   0.615  23.710  0.00  0.00    +0.179 C 
ATOM     11  C   UNL     1       2.237  -0.638  22.631  0.00  0.00    +0.130 C 
ATOM     12  C   UNL     1       5.339   0.196  24.169  0.00  0.00    +0.171 C 
ATOM     13  C   UNL     1       3.072   0.109  21.601  0.00  0.00    +0.185 C 
ATOM     14  C   UNL     1       5.448  -1.206  23.615  0.00  0.00    +0.194 C 
BRANCH  12   3
ATOM      3  O   UNL     1       6.368   1.037  23.696  0.00  0.00    -0.387 OA
ATOM     26  H   UNL     1       6.103   1.957  23.860  0.00  0.00    +0.210 HD
ENDBRANCH  12   3
ENDBRANCH   8  11
BRANCH  15  16
ATOM     16  C   UNL     1      -1.089   0.575  24.058  0.00  0.00    +0.044 A 
ATOM     17  C   UNL     1      -2.330  -0.016  24.173  0.00  0.00    +0.062 A 
ATOM     18  C   UNL     1      -0.921   1.945  24.094  0.00  0.00    +0.062 A 
ATOM     19  C   UNL     1      -2.044   2.757  24.252  0.00  0.00    +0.166 A 
ATOM     20  C   UNL     1      -3.452   0.796  24.333  0.00  0.00    +0.166 A 
ATOM     21  C   UNL     1      -3.308   2.183  24.373  0.00  0.00    +0.204 A 
BRANCH  19   5
ATOM      5  O   UNL     1      -1.890   4.110  24.291  0.00  0.00    -0.491 OA
ATOM     22  C   UNL     1      -0.798   4.616  25.057  0.00  0.00    +0.277 C 
ENDBRANCH  19   5
BRANCH  20   6
ATOM      6  O   UNL     1      -4.682   0.222  24.447  0.00  0.00    -0.491 OA
ATOM     23  C   UNL     1      -4.763  -1.186  24.236  0.00  0.00    +0.277 C 
ENDBRANCH  20   6
BRANCH  21   7
ATOM      7  O   UNL     1      -4.406   2.976  24.528  0.00  0.00    -0.488 OA
ATOM     24  C   UNL     1      -4.736   3.372  25.857  0.00  0.00    +0.277 C 
ENDBRANCH  21   7
ENDBRANCH  15  16
TORSDOF 6
ENDMDL
MODEL 3
REMARK VINA RESULT:       1.9      1.127      2.463
REMARK  Name = 11884350
REMARK  9 active torsions:
REMARK  status: ('A' for Active; 'I' for Inactive)
REMARK    1  A    between atoms: O_3  and  C_12
REMARK    2  A    between atoms: O_5  and  C_19
REMARK    3  A    between atoms: O_5  and  C_22
REMARK    4  A    between atoms: O_6  and  C_20
REMARK    5  A    between atoms: O_6  and  C_23
REMARK    6  A    between atoms: O_7  and  C_21
REMARK    7  A    between atoms: O_7  and  C_24
REMARK    8  A    between atoms: N_8  and  C_11
REMARK    9  A    between atoms: C_15  and  C_16
REMARK                            x       y       z     vdW  Elec       q    Type
REMARK                         _______ _______ _______ _____ _____    ______ ____
ROOT
ATOM      4  O   UNL     1       0.539  -1.610  24.486  0.00  0.00    -0.270 OA
ATOM      8  N   UNL     1       1.123  -0.094  22.831  0.00  0.00    -0.304 N 
ATOM     15  C   UNL     1       0.284  -0.621  23.803  0.00  0.00    +0.245 C 
ATOM     25  H   UNL     1       0.801   0.655  22.227  0.00  0.00    +0.149 HD
ENDROOT
BRANCH   8  11
ATOM      1  O   UNL     1       3.958   1.147  22.450  0.00  0.00    -0.369 OA
ATOM      2  O   UNL     1       4.388  -1.681  23.522  0.00  0.00    -0.369 OA
ATOM      9  C   UNL     1       3.319  -0.735  23.737  0.00  0.00    +0.172 C 
ATOM     10  C   UNL     1       3.956   0.638  23.795  0.00  0.00    +0.179 C 
ATOM     11  C   UNL     1       2.426  -0.678  22.516  0.00  0.00    +0.130 C 
ATOM     12  C   UNL     1       5.353   0.328  24.276  0.00  0.00    +0.171 C 
ATOM     13  C   UNL     1       3.207   0.260  21.607  0.00  0.00    +0.185 C 
ATOM     14  C   UNL     1       5.643  -0.989  23.592  0.00  0.00    +0.194 C 
BRANCH  12   3
ATOM      3  O   UNL     1       6.297   1.321  23.939  0.00  0.00    -0.387 OA
ATOM     26  H   UNL     1       6.690   1.654  24.763  0.00  0.00    +0.210 HD
ENDBRANCH  12   3
ENDBRANCH   8  11
BRANCH  15  16
ATOM     16  C   UNL     1      -1.016   0.072  23.985  0.00  0.00    +0.044 A 
ATOM     17  C   UNL     1      -1.967  -0.498  24.806  0.00  0.00    +0.062 A 
ATOM     18  C   UNL     1      -1.234   1.265  23.327  0.00  0.00    +0.062 A 
ATOM     19  C   UNL     1      -2.455   1.917  23.498  0.00  0.00    +0.166 A 
ATOM     20  C   UNL     1      -3.188   0.154  24.979  0.00  0.00    +0.166 A 
ATOM     21  C   UNL     1      -3.431   1.362  24.325  0.00  0.00    +0.204 A 
BRANCH  19   5
ATOM      5  O   UNL     1      -2.680   3.097  22.855  0.00  0.00    -0.491 OA
ATOM     22  C   UNL     1      -3.204   3.022  21.531  0.00  0.00    +0.277 C 
ENDBRANCH  19   5
BRANCH  20   6
ATOM      6  O   UNL     1      -4.133  -0.400  25.787  0.00  0.00    -0.491 OA
ATOM     23  C   UNL     1      -3.788  -1.615  26.451  0.00  0.00    +0.277 C 
ENDBRANCH  20   6
BRANCH  21   7
ATOM      7  O   UNL     1      -4.626   1.998  24.493  0.00  0.00    -0.488 OA
ATOM     24  C   UNL     1      -4.697   2.978  25.526  0.00  0.00    +0.277 C 
ENDBRANCH  21   7
ENDBRANCH  15  16
TORSDOF 6
ENDMDL
MODEL 4
REMARK VINA RESULT:       2.3      1.783      8.083
REMARK  Name = 11884350
REMARK  9 active torsions:
REMARK  status: ('A' for Active; 'I' for Inactive)
REMARK    1  A    between atoms: O_3  and  C_12
REMARK    2  A    between atoms: O_5  and  C_19
REMARK    3  A    between atoms: O_5  and  C_22
REMARK    4  A    between atoms: O_6  and  C_20
REMARK    5  A    between atoms: O_6  and  C_23
REMARK    6  A    between atoms: O_7  and  C_21
REMARK    7  A    between atoms: O_7  and  C_24
REMARK    8  A    between atoms: N_8  and  C_11
REMARK    9  A    between atoms: C_15  and  C_16
REMARK                            x       y       z     vdW  Elec       q    Type
REMARK                         _______ _______ _______ _____ _____    ______ ____
ROOT
ATOM      4  O   UNL     1      -0.178   3.882  24.253  0.00  0.00    -0.270 OA
ATOM      8  N   UNL     1      -1.884   2.318  24.396  0.00  0.00    -0.304 N 
ATOM     15  C   UNL     1      -0.569   2.718  24.206  0.00  0.00    +0.245 C 
ATOM     25  H   UNL     1      -2.156   1.354  24.231  0.00  0.00    +0.149 HD
ENDROOT
BRANCH   8  11
ATOM      1  O   UNL     1      -4.874   2.442  23.521  0.00  0.00    -0.369 OA
ATOM      2  O   UNL     1      -4.720   3.772  26.267  0.00  0.00    -0.369 OA
ATOM      9  C   UNL     1      -3.945   2.703  25.684  0.00  0.00    +0.172 C 
ATOM     10  C   UNL     1      -4.900   1.879  24.845  0.00  0.00    +0.179 C 
ATOM     11  C   UNL     1      -2.961   3.265  24.680  0.00  0.00    +0.130 C 
ATOM     12  C   UNL     1      -6.225   2.121  25.528  0.00  0.00    +0.171 C 
ATOM     13  C   UNL     1      -3.839   3.434  23.448  0.00  0.00    +0.185 C 
ATOM     14  C   UNL     1      -6.105   3.566  25.955  0.00  0.00    +0.194 C 
BRANCH  12   3
ATOM      3  O   UNL     1      -7.337   1.905  24.688  0.00  0.00    -0.387 OA
ATOM     26  H   UNL     1      -7.626   0.984  24.803  0.00  0.00    +0.210 HD
ENDBRANCH  12   3
ENDBRANCH   8  11
BRANCH  15  16
ATOM     16  C   UNL     1       0.403   1.638  23.900  0.00  0.00    +0.044 A 
ATOM     17  C   UNL     1       0.057   0.331  24.175  0.00  0.00    +0.062 A 
ATOM     18  C   UNL     1       1.623   1.975  23.349  0.00  0.00    +0.062 A 
ATOM     19  C   UNL     1       2.536   0.961  23.060  0.00  0.00    +0.166 A 
ATOM     20  C   UNL     1       0.969  -0.683  23.885  0.00  0.00    +0.166 A 
ATOM     21  C   UNL     1       2.208  -0.368  23.327  0.00  0.00    +0.204 A 
BRANCH  19   5
ATOM      5  O   UNL     1       3.742   1.282  22.515  0.00  0.00    -0.491 OA
ATOM     22  C   UNL     1       4.905   0.881  23.235  0.00  0.00    +0.277 C 
ENDBRANCH  19   5
BRANCH  20   6
ATOM      6  O   UNL     1       0.637  -1.977  24.152  0.00  0.00    -0.491 OA
ATOM     23  C   UNL     1      -0.387  -2.197  25.120  0.00  0.00    +0.277 C 
ENDBRANCH  20   6
BRANCH  21   7
ATOM      7  O   UNL     1       3.100  -1.360  23.046  0.00  0.00    -0.488 OA
ATOM     24  C   UNL     1       4.079  -1.651  24.040  0.00  0.00    +0.277 C 
ENDBRANCH  21   7
ENDBRANCH  15  16
TORSDOF 6
ENDMDL
