MODEL 1
REMARK VINA RESULT:       4.8      0.000      0.000
REMARK  Name = 7143712
REMARK  4 active torsions:
REMARK  status: ('A' for Active; 'I' for Inactive)
REMARK    1  A    between atoms: S_1  and  C_18
REMARK    2  A    between atoms: S_1  and  C_25
REMARK    3  A    between atoms: C_15  and  C_18
REMARK    4  A    between atoms: C_16  and  C_19
REMARK                            x       y       z     vdW  Elec       q    Type
REMARK                         _______ _______ _______ _____ _____    ______ ____
ROOT
ATOM      2  O   UNL     1      -0.047   1.982  25.821  0.00  0.00    -0.267 OA
ATOM      3  O   UNL     1      -5.044   0.288  26.689  0.00  0.00    -0.275 OA
ATOM      4  N   UNL     1      -5.016   1.981  25.098  0.00  0.00    -0.300 N 
ATOM      5  N   UNL     1      -1.935   2.688  24.647  0.00  0.00    -0.311 N 
ATOM      6  C   UNL     1      -3.797   4.066  25.736  0.00  0.00    +0.027 C 
ATOM      7  C   UNL     1      -3.972   3.432  23.366  0.00  0.00    +0.054 C 
ATOM      8  C   UNL     1      -4.022   4.614  24.332  0.00  0.00    +0.018 C 
ATOM      9  C   UNL     1      -4.889   3.044  26.097  0.00  0.00    +0.113 C 
ATOM     10  C   UNL     1      -2.392   3.459  25.812  0.00  0.00    +0.130 C 
ATOM     11  C   UNL     1      -5.105   2.442  23.704  0.00  0.00    +0.117 C 
ATOM     12  C   UNL     1      -2.633   2.723  23.438  0.00  0.00    +0.027 A 
ATOM     13  C   UNL     1      -2.133   2.109  22.353  0.00  0.00    +0.022 A 
ATOM     14  C   UNL     1      -0.709   2.007  24.782  0.00  0.00    +0.259 A 
ATOM     15  C   UNL     1      -5.122   0.653  25.514  0.00  0.00    +0.225 C 
ATOM     16  C   UNL     1      -0.192   1.298  23.559  0.00  0.00    +0.047 A 
ATOM     17  C   UNL     1      -0.897   1.384  22.421  0.00  0.00    +0.015 A 
ENDROOT
BRANCH  16  19
ATOM     19  C   UNL     1       1.055   0.516  23.599  0.00  0.00    -0.012 A 
ATOM     20  C   UNL     1       2.281   1.140  23.364  0.00  0.00    +0.017 A 
ATOM     21  C   UNL     1       1.013  -0.849  23.873  0.00  0.00    +0.009 A 
ATOM     22  C   UNL     1       3.479   0.408  23.398  0.00  0.00    -0.017 A 
ATOM     23  C   UNL     1       2.192  -1.593  23.911  0.00  0.00    +0.009 A 
ATOM     24  C   UNL     1       3.434  -0.979  23.677  0.00  0.00    -0.018 A 
ATOM     26  C   UNL     1       4.721   1.021  23.164  0.00  0.00    +0.008 A 
ATOM     27  C   UNL     1       4.631  -1.711  23.711  0.00  0.00    +0.008 A 
ATOM     28  C   UNL     1       5.900   0.278  23.202  0.00  0.00    +0.001 A 
ATOM     29  C   UNL     1       5.856  -1.086  23.476  0.00  0.00    +0.001 A 
ENDBRANCH  16  19
BRANCH  15  18
ATOM     18  C   UNL     1      -5.338  -0.377  24.434  0.00  0.00    +0.164 C 
BRANCH  18   1
ATOM      1  S   UNL     1      -3.720  -0.965  23.909  0.00  0.00    -0.155 S 
ATOM     25  C   UNL     1      -3.572  -2.395  25.007  0.00  0.00    +0.085 C 
ENDBRANCH  18   1
ENDBRANCH  15  18
TORSDOF 3
ENDMDL
MODEL 2
REMARK VINA RESULT:       6.0      1.010      1.651
REMARK  Name = 7143712
REMARK  4 active torsions:
REMARK  status: ('A' for Active; 'I' for Inactive)
REMARK    1  A    between atoms: S_1  and  C_18
REMARK    2  A    between atoms: S_1  and  C_25
REMARK    3  A    between atoms: C_15  and  C_18
REMARK    4  A    between atoms: C_16  and  C_19
REMARK                            x       y       z     vdW  Elec       q    Type
REMARK                         _______ _______ _______ _____ _____    ______ ____
ROOT
ATOM      2  O   UNL     1       0.255   2.222  25.625  0.00  0.00    -0.267 OA
ATOM      3  O   UNL     1      -4.027  -0.825  26.613  0.00  0.00    -0.275 OA
ATOM      4  N   UNL     1      -4.552   0.866  25.109  0.00  0.00    -0.300 N 
ATOM      5  N   UNL     1      -1.814   2.418  24.567  0.00  0.00    -0.311 N 
ATOM      6  C   UNL     1      -3.923   3.183  25.799  0.00  0.00    +0.027 C 
ATOM      7  C   UNL     1      -4.044   2.612  23.410  0.00  0.00    +0.054 C 
ATOM      8  C   UNL     1      -4.365   3.698  24.435  0.00  0.00    +0.018 C 
ATOM      9  C   UNL     1      -4.669   1.885  26.154  0.00  0.00    +0.113 C 
ATOM     10  C   UNL     1      -2.404   2.988  25.786  0.00  0.00    +0.130 C 
ATOM     11  C   UNL     1      -4.839   1.335  23.744  0.00  0.00    +0.117 C 
ATOM     12  C   UNL     1      -2.559   2.302  23.390  0.00  0.00    +0.027 A 
ATOM     13  C   UNL     1      -1.968   1.891  22.257  0.00  0.00    +0.022 A 
ATOM     14  C   UNL     1      -0.443   2.100  24.616  0.00  0.00    +0.259 A 
ATOM     15  C   UNL     1      -4.265  -0.453  25.462  0.00  0.00    +0.225 C 
ATOM     16  C   UNL     1       0.183   1.607  23.339  0.00  0.00    +0.047 A 
ATOM     17  C   UNL     1      -0.578   1.535  22.237  0.00  0.00    +0.015 A 
ENDROOT
BRANCH  16  19
ATOM     19  C   UNL     1       1.598   1.202  23.289  0.00  0.00    -0.012 A 
ATOM     20  C   UNL     1       1.963  -0.108  23.601  0.00  0.00    +0.017 A 
ATOM     21  C   UNL     1       2.575   2.128  22.930  0.00  0.00    +0.009 A 
ATOM     22  C   UNL     1       3.308  -0.510  23.558  0.00  0.00    -0.017 A 
ATOM     23  C   UNL     1       3.916   1.747  22.881  0.00  0.00    +0.009 A 
ATOM     24  C   UNL     1       4.299   0.432  23.192  0.00  0.00    -0.018 A 
ATOM     26  C   UNL     1       3.691  -1.825  23.868  0.00  0.00    +0.008 A 
ATOM     27  C   UNL     1       5.644   0.031  23.149  0.00  0.00    +0.008 A 
ATOM     28  C   UNL     1       5.033  -2.205  23.821  0.00  0.00    +0.001 A 
ATOM     29  C   UNL     1       6.007  -1.279  23.461  0.00  0.00    +0.001 A 
ENDBRANCH  16  19
BRANCH  15  18
ATOM     18  C   UNL     1      -4.246  -1.462  24.342  0.00  0.00    +0.164 C 
BRANCH  18   1
ATOM      1  S   UNL     1      -2.893  -2.605  24.660  0.00  0.00    -0.155 S 
ATOM     25  C   UNL     1      -1.513  -1.438  24.558  0.00  0.00    +0.085 C 
ENDBRANCH  18   1
ENDBRANCH  15  18
TORSDOF 3
ENDMDL
