MODEL 1
REMARK VINA RESULT:      -4.7      0.000      0.000
REMARK  Name = 45784151
REMARK  11 active torsions:
REMARK  status: ('A' for Active; 'I' for Inactive)
REMARK    1  A    between atoms: N_3  and  C_15
REMARK    2  A    between atoms: N_5  and  C_23
REMARK    3  A    between atoms: C_8  and  C_12
REMARK    4  A    between atoms: C_9  and  C_15
REMARK    5  A    between atoms: C_11  and  C_16
REMARK    6  A    between atoms: C_12  and  C_17
REMARK    7  A    between atoms: C_12  and  C_18
REMARK    8  A    between atoms: C_13  and  C_19
REMARK    9  A    between atoms: C_16  and  C_20
REMARK   10  A    between atoms: C_22  and  C_24
REMARK   11  A    between atoms: C_23  and  C_25
REMARK                            x       y       z     vdW  Elec       q    Type
REMARK                         _______ _______ _______ _____ _____    ______ ____
ROOT
ATOM      8  C   UNL     1      -2.433   2.253  23.661  0.00  0.00    +0.000 C 
ATOM      9  C   UNL     1      -0.971   2.745  23.795  0.00  0.00    +0.032 C 
ATOM     10  C   UNL     1      -3.369   3.431  23.352  0.00  0.00    +0.012 C 
ATOM     11  C   UNL     1      -3.318   4.518  24.444  0.00  0.00    +0.024 C 
ATOM     13  C   UNL     1      -1.893   4.867  24.823  0.00  0.00    -0.073 C 
ATOM     14  C   UNL     1      -0.856   4.069  24.513  0.00  0.00    -0.022 C 
ATOM     19  C   UNL     1      -1.683   6.177  25.528  0.00  0.00    +0.039 C 
ENDROOT
BRANCH   8  12
ATOM     12  C   UNL     1      -2.575   1.179  22.577  0.00  0.00    -0.013 C 
ATOM     17  C   UNL     1      -2.367   1.788  21.194  0.00  0.00    +0.007 C 
ATOM     18  C   UNL     1      -1.589   0.042  22.822  0.00  0.00    +0.007 C 
ENDBRANCH   8  12
BRANCH   9  15
ATOM     15  C   UNL     1      -0.099   1.702  24.503  0.00  0.00    +0.113 C 
BRANCH  15   3
ATOM      2  O   UNL     1       1.524  -0.173  23.029  0.00  0.00    -0.253 OA
ATOM      3  N   UNL     1       1.274   1.854  24.135  0.00  0.00    -0.299 N 
ATOM      5  N   UNL     1       3.312   1.296  23.193  0.00  0.00    -0.300 N 
ATOM     21  C   UNL     1       1.997   0.894  23.416  0.00  0.00    +0.300 C 
ATOM     30  H   UNL     1       1.738   2.732  24.347  0.00  0.00    +0.150 HD
ATOM     31  H   UNL     1       3.617   2.191  23.564  0.00  0.00    +0.150 HD
BRANCH   5  23
ATOM     23  C   UNL     1       4.267   0.486  22.474  0.00  0.00    +0.102 C 
ATOM     25  C   UNL     1       5.381   0.006  23.381  0.00  0.00    +0.024 C 
ENDBRANCH   5  23
ENDBRANCH  15   3
ENDBRANCH   9  15
BRANCH  11  16
ATOM     16  C   UNL     1      -4.129   4.101  25.676  0.00  0.00    +0.105 C 
BRANCH  16  20
ATOM      1  O   UNL     1      -3.967   1.686  25.368  0.00  0.00    -0.420 OA
ATOM      4  N   UNL     1      -6.062   2.470  25.383  0.00  0.00    -0.112 NA
ATOM      6  N   UNL     1      -6.119   1.100  25.203  0.00  0.00    -0.107 NA
ATOM     20  C   UNL     1      -4.787   2.767  25.475  0.00  0.00    +0.218 A 
ATOM     22  C   UNL     1      -4.873   0.686  25.200  0.00  0.00    +0.248 A 
BRANCH  22  24
ATOM      7  N   UNL     1      -3.275  -3.205  24.758  0.00  0.00    -0.263 NA
ATOM     24  C   UNL     1      -4.332  -0.634  25.051  0.00  0.00    +0.041 A 
ATOM     26  C   UNL     1      -4.641  -1.392  23.927  0.00  0.00    +0.033 A 
ATOM     27  C   UNL     1      -3.495  -1.160  26.029  0.00  0.00    +0.033 A 
ATOM     28  C   UNL     1      -4.091  -2.660  23.828  0.00  0.00    +0.111 A 
ATOM     29  C   UNL     1      -2.997  -2.439  25.837  0.00  0.00    +0.111 A 
ENDBRANCH  22  24
ENDBRANCH  16  20
ENDBRANCH  11  16
TORSDOF 7
ENDMDL
MODEL 2
REMARK VINA RESULT:      -4.4      1.249      1.586
REMARK  Name = 45784151
REMARK  11 active torsions:
REMARK  status: ('A' for Active; 'I' for Inactive)
REMARK    1  A    between atoms: N_3  and  C_15
REMARK    2  A    between atoms: N_5  and  C_23
REMARK    3  A    between atoms: C_8  and  C_12
REMARK    4  A    between atoms: C_9  and  C_15
REMARK    5  A    between atoms: C_11  and  C_16
REMARK    6  A    between atoms: C_12  and  C_17
REMARK    7  A    between atoms: C_12  and  C_18
REMARK    8  A    between atoms: C_13  and  C_19
REMARK    9  A    between atoms: C_16  and  C_20
REMARK   10  A    between atoms: C_22  and  C_24
REMARK   11  A    between atoms: C_23  and  C_25
REMARK                            x       y       z     vdW  Elec       q    Type
REMARK                         _______ _______ _______ _____ _____    ______ ____
ROOT
ATOM      8  C   UNL     1      -2.944   2.791  23.839  0.00  0.00    +0.000 C 
ATOM      9  C   UNL     1      -1.617   2.992  24.612  0.00  0.00    +0.032 C 
ATOM     10  C   UNL     1      -3.889   3.978  24.077  0.00  0.00    +0.012 C 
ATOM     11  C   UNL     1      -4.219   4.170  25.570  0.00  0.00    +0.024 C 
ATOM     13  C   UNL     1      -2.974   4.112  26.433  0.00  0.00    -0.073 C 
ATOM     14  C   UNL     1      -1.817   3.594  25.983  0.00  0.00    -0.022 C 
ATOM     19  C   UNL     1      -3.077   4.704  27.810  0.00  0.00    +0.039 C 
ENDROOT
BRANCH   8  12
ATOM     12  C   UNL     1      -2.706   2.612  22.336  0.00  0.00    -0.013 C 
ATOM     17  C   UNL     1      -2.484   1.140  22.004  0.00  0.00    +0.007 C 
ATOM     18  C   UNL     1      -3.880   3.175  21.541  0.00  0.00    +0.007 C 
ENDBRANCH   8  12
BRANCH   9  15
ATOM     15  C   UNL     1      -0.846   1.674  24.740  0.00  0.00    +0.113 C 
BRANCH  15   3
ATOM      2  O   UNL     1       0.731  -0.120  23.122  0.00  0.00    -0.253 OA
ATOM      3  N   UNL     1       0.517   1.842  24.346  0.00  0.00    -0.299 N 
ATOM      5  N   UNL     1       2.528   1.333  23.324  0.00  0.00    -0.300 N 
ATOM     21  C   UNL     1       1.218   0.923  23.557  0.00  0.00    +0.300 C 
ATOM     30  H   UNL     1       0.990   2.706  24.596  0.00  0.00    +0.150 HD
ATOM     31  H   UNL     1       2.846   2.205  23.736  0.00  0.00    +0.150 HD
BRANCH   5  23
ATOM     23  C   UNL     1       3.462   0.562  22.536  0.00  0.00    +0.102 C 
ATOM     25  C   UNL     1       4.801   0.435  23.232  0.00  0.00    +0.024 C 
ENDBRANCH   5  23
ENDBRANCH  15   3
ENDBRANCH   9  15
BRANCH  11  16
ATOM     16  C   UNL     1      -5.262   3.151  26.041  0.00  0.00    +0.105 C 
BRANCH  16  20
ATOM      1  O   UNL     1      -4.056   1.078  25.590  0.00  0.00    -0.420 OA
ATOM      4  N   UNL     1      -5.924   1.334  24.385  0.00  0.00    -0.112 NA
ATOM      6  N   UNL     1      -5.347   0.128  24.031  0.00  0.00    -0.107 NA
ATOM     20  C   UNL     1      -5.136   1.853  25.298  0.00  0.00    +0.218 A 
ATOM     22  C   UNL     1      -4.261   0.021  24.759  0.00  0.00    +0.248 A 
BRANCH  22  24
ATOM      7  N   UNL     1      -1.352  -3.046  24.914  0.00  0.00    -0.263 NA
ATOM     24  C   UNL     1      -3.275  -1.019  24.812  0.00  0.00    +0.041 A 
ATOM     26  C   UNL     1      -3.543  -2.265  24.256  0.00  0.00    +0.033 A 
ATOM     27  C   UNL     1      -2.046  -0.785  25.420  0.00  0.00    +0.033 A 
ATOM     28  C   UNL     1      -2.557  -3.236  24.332  0.00  0.00    +0.111 A 
ATOM     29  C   UNL     1      -1.127  -1.823  25.444  0.00  0.00    +0.111 A 
ENDBRANCH  22  24
ENDBRANCH  16  20
ENDBRANCH  11  16
TORSDOF 7
ENDMDL
MODEL 3
REMARK VINA RESULT:      -3.7      1.785      5.024
REMARK  Name = 45784151
REMARK  11 active torsions:
REMARK  status: ('A' for Active; 'I' for Inactive)
REMARK    1  A    between atoms: N_3  and  C_15
REMARK    2  A    between atoms: N_5  and  C_23
REMARK    3  A    between atoms: C_8  and  C_12
REMARK    4  A    between atoms: C_9  and  C_15
REMARK    5  A    between atoms: C_11  and  C_16
REMARK    6  A    between atoms: C_12  and  C_17
REMARK    7  A    between atoms: C_12  and  C_18
REMARK    8  A    between atoms: C_13  and  C_19
REMARK    9  A    between atoms: C_16  and  C_20
REMARK   10  A    between atoms: C_22  and  C_24
REMARK   11  A    between atoms: C_23  and  C_25
REMARK                            x       y       z     vdW  Elec       q    Type
REMARK                         _______ _______ _______ _____ _____    ______ ____
ROOT
ATOM      8  C   UNL     1      -1.246   0.374  24.760  0.00  0.00    +0.000 C 
ATOM      9  C   UNL     1      -0.429  -0.826  24.221  0.00  0.00    +0.032 C 
ATOM     10  C   UNL     1      -2.193  -0.082  25.880  0.00  0.00    +0.012 C 
ATOM     11  C   UNL     1      -3.178  -1.168  25.406  0.00  0.00    +0.024 C 
ATOM     13  C   UNL     1      -2.475  -2.262  24.627  0.00  0.00    -0.073 C 
ATOM     14  C   UNL     1      -1.242  -2.095  24.116  0.00  0.00    -0.022 C 
ATOM     19  C   UNL     1      -3.205  -3.568  24.486  0.00  0.00    +0.039 C 
ENDROOT
BRANCH   8  12
ATOM     12  C   UNL     1      -0.338   1.497  25.273  0.00  0.00    -0.013 C 
ATOM     17  C   UNL     1      -0.282   2.638  24.263  0.00  0.00    +0.007 C 
ATOM     18  C   UNL     1      -0.826   1.996  26.629  0.00  0.00    +0.007 C 
ENDBRANCH   8  12
BRANCH   9  15
ATOM     15  C   UNL     1       0.193  -0.504  22.858  0.00  0.00    +0.113 C 
BRANCH  15   3
ATOM      2  O   UNL     1       2.359   1.369  23.208  0.00  0.00    -0.253 OA
ATOM      3  N   UNL     1       1.593  -0.795  22.857  0.00  0.00    -0.299 N 
ATOM      5  N   UNL     1       3.864  -0.383  22.989  0.00  0.00    -0.300 N 
ATOM     21  C   UNL     1       2.589   0.173  23.033  0.00  0.00    +0.300 C 
ATOM     30  H   UNL     1       1.885  -1.766  22.790  0.00  0.00    +0.150 HD
ATOM     31  H   UNL     1       3.956  -1.381  22.826  0.00  0.00    +0.150 HD
BRANCH   5  23
ATOM     23  C   UNL     1       5.066   0.403  23.144  0.00  0.00    +0.102 C 
ATOM     25  C   UNL     1       5.820   0.021  24.401  0.00  0.00    +0.024 C 
ENDBRANCH   5  23
ENDBRANCH  15   3
ENDBRANCH   9  15
BRANCH  11  16
ATOM     16  C   UNL     1      -4.321  -0.559  24.587  0.00  0.00    +0.105 C 
BRANCH  16  20
ATOM      1  O   UNL     1      -3.703   1.802  24.552  0.00  0.00    -0.420 OA
ATOM      4  N   UNL     1      -5.562   1.358  25.715  0.00  0.00    -0.112 NA
ATOM      6  N   UNL     1      -5.331   2.720  25.779  0.00  0.00    -0.107 NA
ATOM     20  C   UNL     1      -4.587   0.864  24.989  0.00  0.00    +0.218 A 
ATOM     22  C   UNL     1      -4.237   2.933  25.087  0.00  0.00    +0.248 A 
BRANCH  22  24
ATOM      7  N   UNL     1      -2.155   6.524  24.275  0.00  0.00    -0.263 NA
ATOM     24  C   UNL     1      -3.531   4.151  24.812  0.00  0.00    +0.041 A 
ATOM     26  C   UNL     1      -2.459   4.532  25.610  0.00  0.00    +0.033 A 
ATOM     27  C   UNL     1      -3.917   4.956  23.745  0.00  0.00    +0.033 A 
ATOM     28  C   UNL     1      -1.809   5.717  25.303  0.00  0.00    +0.111 A 
ATOM     29  C   UNL     1      -3.202   6.122  23.521  0.00  0.00    +0.111 A 
ENDBRANCH  22  24
ENDBRANCH  16  20
ENDBRANCH  11  16
TORSDOF 7
ENDMDL
MODEL 4
REMARK VINA RESULT:      -3.3      2.292      3.116
REMARK  Name = 45784151
REMARK  11 active torsions:
REMARK  status: ('A' for Active; 'I' for Inactive)
REMARK    1  A    between atoms: N_3  and  C_15
REMARK    2  A    between atoms: N_5  and  C_23
REMARK    3  A    between atoms: C_8  and  C_12
REMARK    4  A    between atoms: C_9  and  C_15
REMARK    5  A    between atoms: C_11  and  C_16
REMARK    6  A    between atoms: C_12  and  C_17
REMARK    7  A    between atoms: C_12  and  C_18
REMARK    8  A    between atoms: C_13  and  C_19
REMARK    9  A    between atoms: C_16  and  C_20
REMARK   10  A    between atoms: C_22  and  C_24
REMARK   11  A    between atoms: C_23  and  C_25
REMARK                            x       y       z     vdW  Elec       q    Type
REMARK                         _______ _______ _______ _____ _____    ______ ____
ROOT
ATOM      8  C   UNL     1      -1.491   2.324  24.066  0.00  0.00    +0.000 C 
ATOM      9  C   UNL     1      -0.204   3.172  24.217  0.00  0.00    +0.032 C 
ATOM     10  C   UNL     1      -2.649   3.194  23.555  0.00  0.00    +0.012 C 
ATOM     11  C   UNL     1      -2.951   4.375  24.497  0.00  0.00    +0.024 C 
ATOM     13  C   UNL     1      -1.688   5.104  24.908  0.00  0.00    -0.073 C 
ATOM     14  C   UNL     1      -0.468   4.555  24.763  0.00  0.00    -0.022 C 
ATOM     19  C   UNL     1      -1.855   6.496  25.448  0.00  0.00    +0.039 C 
ENDROOT
BRANCH   8  12
ATOM     12  C   UNL     1      -1.281   1.134  23.124  0.00  0.00    -0.013 C 
ATOM     17  C   UNL     1      -1.032  -0.140  23.923  0.00  0.00    +0.007 C 
ATOM     18  C   UNL     1      -2.485   0.968  22.201  0.00  0.00    +0.007 C 
ENDBRANCH   8  12
BRANCH   9  15
ATOM     15  C   UNL     1       0.826   2.461  25.102  0.00  0.00    +0.113 C 
BRANCH  15   3
ATOM      2  O   UNL     1       2.183   3.098  27.568  0.00  0.00    -0.253 OA
ATOM      3  N   UNL     1       0.324   2.294  26.430  0.00  0.00    -0.299 N 
ATOM      5  N   UNL     1       0.323   2.362  28.742  0.00  0.00    -0.300 N 
ATOM     21  C   UNL     1       1.047   2.627  27.583  0.00  0.00    +0.300 C 
ATOM     30  H   UNL     1      -0.633   1.976  26.550  0.00  0.00    +0.150 HD
ATOM     31  H   UNL     1      -0.605   1.959  28.656  0.00  0.00    +0.150 HD
BRANCH   5  23
ATOM     23  C   UNL     1       0.843   2.616  30.065  0.00  0.00    +0.102 C 
ATOM     25  C   UNL     1       2.096   1.810  30.333  0.00  0.00    +0.024 C 
ENDBRANCH   5  23
ENDBRANCH  15   3
ENDBRANCH   9  15
BRANCH  11  16
ATOM     16  C   UNL     1      -3.743   3.913  25.725  0.00  0.00    +0.105 C 
BRANCH  16  20
ATOM      1  O   UNL     1      -3.740   1.500  25.360  0.00  0.00    -0.420 OA
ATOM      4  N   UNL     1      -5.771   2.437  25.283  0.00  0.00    -0.112 NA
ATOM      6  N   UNL     1      -5.916   1.079  25.062  0.00  0.00    -0.107 NA
ATOM     20  C   UNL     1      -4.484   2.636  25.453  0.00  0.00    +0.218 A 
ATOM     22  C   UNL     1      -4.706   0.574  25.116  0.00  0.00    +0.248 A 
BRANCH  22  24
ATOM      7  N   UNL     1      -3.375  -3.414  24.657  0.00  0.00    -0.263 NA
ATOM     24  C   UNL     1      -4.254  -0.778  24.960  0.00  0.00    +0.041 A 
ATOM     26  C   UNL     1      -3.538  -1.397  25.979  0.00  0.00    +0.033 A 
ATOM     27  C   UNL     1      -4.531  -1.476  23.789  0.00  0.00    +0.033 A 
ATOM     28  C   UNL     1      -3.125  -2.705  25.780  0.00  0.00    +0.111 A 
ATOM     29  C   UNL     1      -4.073  -2.780  23.688  0.00  0.00    +0.111 A 
ENDBRANCH  22  24
ENDBRANCH  16  20
ENDBRANCH  11  16
TORSDOF 7
ENDMDL
MODEL 5
REMARK VINA RESULT:      -2.9      2.106      4.971
REMARK  Name = 45784151
REMARK  11 active torsions:
REMARK  status: ('A' for Active; 'I' for Inactive)
REMARK    1  A    between atoms: N_3  and  C_15
REMARK    2  A    between atoms: N_5  and  C_23
REMARK    3  A    between atoms: C_8  and  C_12
REMARK    4  A    between atoms: C_9  and  C_15
REMARK    5  A    between atoms: C_11  and  C_16
REMARK    6  A    between atoms: C_12  and  C_17
REMARK    7  A    between atoms: C_12  and  C_18
REMARK    8  A    between atoms: C_13  and  C_19
REMARK    9  A    between atoms: C_16  and  C_20
REMARK   10  A    between atoms: C_22  and  C_24
REMARK   11  A    between atoms: C_23  and  C_25
REMARK                            x       y       z     vdW  Elec       q    Type
REMARK                         _______ _______ _______ _____ _____    ______ ____
ROOT
ATOM      8  C   UNL     1      -3.409   2.127  23.956  0.00  0.00    +0.000 C 
ATOM      9  C   UNL     1      -4.210   3.318  24.539  0.00  0.00    +0.032 C 
ATOM     10  C   UNL     1      -4.327   0.914  23.747  0.00  0.00    +0.012 C 
ATOM     11  C   UNL     1      -4.997   0.456  25.057  0.00  0.00    +0.024 C 
ATOM     13  C   UNL     1      -5.583   1.623  25.826  0.00  0.00    -0.073 C 
ATOM     14  C   UNL     1      -5.228   2.896  25.572  0.00  0.00    -0.022 C 
ATOM     19  C   UNL     1      -6.618   1.297  26.865  0.00  0.00    +0.039 C 
ENDROOT
BRANCH   8  12
ATOM     12  C   UNL     1      -2.724   2.493  22.635  0.00  0.00    -0.013 C 
ATOM     17  C   UNL     1      -2.382   1.234  21.846  0.00  0.00    +0.007 C 
ATOM     18  C   UNL     1      -3.613   3.422  21.815  0.00  0.00    +0.007 C 
ENDBRANCH   8  12
BRANCH   9  15
ATOM     15  C   UNL     1      -3.275   4.370  25.144  0.00  0.00    +0.113 C 
BRANCH  15   3
ATOM      2  O   UNL     1      -0.440   3.872  24.947  0.00  0.00    -0.253 OA
ATOM      3  N   UNL     1      -2.432   3.788  26.140  0.00  0.00    -0.299 N 
ATOM      5  N   UNL     1      -0.480   2.995  27.095  0.00  0.00    -0.300 N 
ATOM     21  C   UNL     1      -1.058   3.577  25.969  0.00  0.00    +0.300 C 
ATOM     30  H   UNL     1      -2.832   3.573  27.048  0.00  0.00    +0.150 HD
ATOM     31  H   UNL     1      -1.074   2.774  27.888  0.00  0.00    +0.150 HD
BRANCH   5  23
ATOM     23  C   UNL     1       0.926   2.674  27.176  0.00  0.00    +0.102 C 
ATOM     25  C   UNL     1       1.393   2.588  28.614  0.00  0.00    +0.024 C 
ENDBRANCH   5  23
ENDBRANCH  15   3
ENDBRANCH   9  15
BRANCH  11  16
ATOM     16  C   UNL     1      -4.021  -0.341  25.927  0.00  0.00    +0.105 C 
BRANCH  16  20
ATOM      1  O   UNL     1      -1.843  -0.040  24.868  0.00  0.00    -0.420 OA
ATOM      4  N   UNL     1      -2.722  -2.079  24.594  0.00  0.00    -0.112 NA
ATOM      6  N   UNL     1      -1.499  -2.049  23.949  0.00  0.00    -0.107 NA
ATOM     20  C   UNL     1      -2.880  -0.886  25.117  0.00  0.00    +0.218 A 
ATOM     22  C   UNL     1      -1.023  -0.841  24.135  0.00  0.00    +0.248 A 
BRANCH  22  24
ATOM      7  N   UNL     1       2.597   0.915  22.832  0.00  0.00    -0.263 NA
ATOM     24  C   UNL     1       0.205  -0.246  23.694  0.00  0.00    +0.041 A 
ATOM     26  C   UNL     1       1.033  -0.928  22.810  0.00  0.00    +0.033 A 
ATOM     27  C   UNL     1       0.571   1.017  24.148  0.00  0.00    +0.033 A 
ATOM     28  C   UNL     1       2.208  -0.309  22.412  0.00  0.00    +0.111 A 
ATOM     29  C   UNL     1       1.767   1.548  23.691  0.00  0.00    +0.111 A 
ENDBRANCH  22  24
ENDBRANCH  16  20
ENDBRANCH  11  16
TORSDOF 7
ENDMDL
MODEL 6
REMARK VINA RESULT:      -2.7      2.596      4.952
REMARK  Name = 45784151
REMARK  11 active torsions:
REMARK  status: ('A' for Active; 'I' for Inactive)
REMARK    1  A    between atoms: N_3  and  C_15
REMARK    2  A    between atoms: N_5  and  C_23
REMARK    3  A    between atoms: C_8  and  C_12
REMARK    4  A    between atoms: C_9  and  C_15
REMARK    5  A    between atoms: C_11  and  C_16
REMARK    6  A    between atoms: C_12  and  C_17
REMARK    7  A    between atoms: C_12  and  C_18
REMARK    8  A    between atoms: C_13  and  C_19
REMARK    9  A    between atoms: C_16  and  C_20
REMARK   10  A    between atoms: C_22  and  C_24
REMARK   11  A    between atoms: C_23  and  C_25
REMARK                            x       y       z     vdW  Elec       q    Type
REMARK                         _______ _______ _______ _____ _____    ______ ____
ROOT
ATOM      8  C   UNL     1      -3.035  -0.039  25.083  0.00  0.00    +0.000 C 
ATOM      9  C   UNL     1      -2.197  -0.433  23.843  0.00  0.00    +0.032 C 
ATOM     10  C   UNL     1      -4.200   0.876  24.676  0.00  0.00    +0.012 C 
ATOM     11  C   UNL     1      -3.714   2.166  23.986  0.00  0.00    +0.024 C 
ATOM     13  C   UNL     1      -2.676   1.877  22.921  0.00  0.00    -0.073 C 
ATOM     14  C   UNL     1      -2.017   0.705  22.865  0.00  0.00    -0.022 C 
ATOM     19  C   UNL     1      -2.443   2.949  21.895  0.00  0.00    +0.039 C 
ENDROOT
BRANCH   8  12
ATOM     12  C   UNL     1      -3.576  -1.270  25.819  0.00  0.00    -0.013 C 
ATOM     17  C   UNL     1      -3.594  -2.479  24.891  0.00  0.00    +0.007 C 
ATOM     18  C   UNL     1      -2.740  -1.554  27.064  0.00  0.00    +0.007 C 
ENDBRANCH   8  12
BRANCH   9  15
ATOM     15  C   UNL     1      -0.824  -0.976  24.252  0.00  0.00    +0.113 C 
BRANCH  15   3
ATOM      2  O   UNL     1       1.459  -0.954  22.488  0.00  0.00    -0.253 OA
ATOM      3  N   UNL     1       0.176   0.041  24.148  0.00  0.00    -0.299 N 
ATOM      5  N   UNL     1       2.079   1.100  23.370  0.00  0.00    -0.300 N 
ATOM     21  C   UNL     1       1.260  -0.021  23.264  0.00  0.00    +0.300 C 
ATOM     30  H   UNL     1       0.064   0.888  24.698  0.00  0.00    +0.150 HD
ATOM     31  H   UNL     1       1.841   1.815  24.051  0.00  0.00    +0.150 HD
BRANCH   5  23
ATOM     23  C   UNL     1       3.265   1.281  22.567  0.00  0.00    +0.102 C 
ATOM     25  C   UNL     1       4.465   0.598  23.188  0.00  0.00    +0.024 C 
ENDBRANCH   5  23
ENDBRANCH  15   3
ENDBRANCH   9  15
BRANCH  11  16
ATOM     16  C   UNL     1      -3.184   3.174  25.011  0.00  0.00    +0.105 C 
BRANCH  16  20
ATOM      1  O   UNL     1      -1.305   2.952  26.552  0.00  0.00    -0.420 OA
ATOM      4  N   UNL     1      -0.735   2.857  24.390  0.00  0.00    -0.112 NA
ATOM      6  N   UNL     1       0.417   2.719  25.144  0.00  0.00    -0.107 NA
ATOM     20  C   UNL     1      -1.714   2.989  25.254  0.00  0.00    +0.218 A 
ATOM     22  C   UNL     1       0.036   2.781  26.398  0.00  0.00    +0.248 A 
BRANCH  22  24
ATOM      7  N   UNL     1       2.292   2.531  29.967  0.00  0.00    -0.263 NA
ATOM     24  C   UNL     1       0.801   2.697  27.608  0.00  0.00    +0.041 A 
ATOM     26  C   UNL     1       0.192   2.298  28.793  0.00  0.00    +0.033 A 
ATOM     27  C   UNL     1       2.155   3.014  27.601  0.00  0.00    +0.033 A 
ATOM     28  C   UNL     1       0.975   2.231  29.935  0.00  0.00    +0.111 A 
ATOM     29  C   UNL     1       2.850   2.916  28.797  0.00  0.00    +0.111 A 
ENDBRANCH  22  24
ENDBRANCH  16  20
ENDBRANCH  11  16
TORSDOF 7
ENDMDL
MODEL 7
REMARK VINA RESULT:      -1.5      1.623      4.600
REMARK  Name = 45784151
REMARK  11 active torsions:
REMARK  status: ('A' for Active; 'I' for Inactive)
REMARK    1  A    between atoms: N_3  and  C_15
REMARK    2  A    between atoms: N_5  and  C_23
REMARK    3  A    between atoms: C_8  and  C_12
REMARK    4  A    between atoms: C_9  and  C_15
REMARK    5  A    between atoms: C_11  and  C_16
REMARK    6  A    between atoms: C_12  and  C_17
REMARK    7  A    between atoms: C_12  and  C_18
REMARK    8  A    between atoms: C_13  and  C_19
REMARK    9  A    between atoms: C_16  and  C_20
REMARK   10  A    between atoms: C_22  and  C_24
REMARK   11  A    between atoms: C_23  and  C_25
REMARK                            x       y       z     vdW  Elec       q    Type
REMARK                         _______ _______ _______ _____ _____    ______ ____
ROOT
ATOM      8  C   UNL     1      -2.939  -1.147  24.823  0.00  0.00    +0.000 C 
ATOM      9  C   UNL     1      -1.986  -0.286  23.957  0.00  0.00    +0.032 C 
ATOM     10  C   UNL     1      -4.346  -1.173  24.208  0.00  0.00    +0.012 C 
ATOM     11  C   UNL     1      -4.950   0.238  24.072  0.00  0.00    +0.024 C 
ATOM     13  C   UNL     1      -3.964   1.215  23.465  0.00  0.00    -0.073 C 
ATOM     14  C   UNL     1      -2.645   0.959  23.411  0.00  0.00    -0.022 C 
ATOM     19  C   UNL     1      -4.536   2.477  22.882  0.00  0.00    +0.039 C 
ENDROOT
BRANCH   8  12
ATOM     12  C   UNL     1      -2.419  -2.578  24.991  0.00  0.00    -0.013 C 
ATOM     17  C   UNL     1      -3.575  -3.572  24.953  0.00  0.00    +0.007 C 
ATOM     18  C   UNL     1      -1.391  -2.901  23.911  0.00  0.00    +0.007 C 
ENDBRANCH   8  12
BRANCH   9  15
ATOM     15  C   UNL     1      -0.727   0.104  24.740  0.00  0.00    +0.113 C 
BRANCH  15   3
ATOM      2  O   UNL     1       1.415   1.802  23.818  0.00  0.00    -0.253 OA
ATOM      3  N   UNL     1       0.451  -0.300  24.040  0.00  0.00    -0.299 N 
ATOM      5  N   UNL     1       2.486  -0.070  22.964  0.00  0.00    -0.300 N 
ATOM     21  C   UNL     1       1.451   0.588  23.622  0.00  0.00    +0.300 C 
ATOM     30  H   UNL     1       0.610  -1.292  23.890  0.00  0.00    +0.150 HD
ATOM     31  H   UNL     1       2.421  -1.076  22.837  0.00  0.00    +0.150 HD
BRANCH   5  23
ATOM     23  C   UNL     1       3.640   0.618  22.434  0.00  0.00    +0.102 C 
ATOM     25  C   UNL     1       4.853   0.430  23.321  0.00  0.00    +0.024 C 
ENDBRANCH   5  23
ENDBRANCH  15   3
ENDBRANCH   9  15
BRANCH  11  16
ATOM     16  C   UNL     1      -5.470   0.747  25.421  0.00  0.00    +0.105 C 
BRANCH  16  20
ATOM      1  O   UNL     1      -3.686   2.407  25.293  0.00  0.00    -0.420 OA
ATOM      4  N   UNL     1      -5.514   3.107  26.377  0.00  0.00    -0.112 NA
ATOM      6  N   UNL     1      -4.592   4.139  26.380  0.00  0.00    -0.107 NA
ATOM     20  C   UNL     1      -4.941   2.118  25.731  0.00  0.00    +0.218 A 
ATOM     22  C   UNL     1      -3.542   3.685  25.737  0.00  0.00    +0.248 A 
BRANCH  22  24
ATOM      7  N   UNL     1       0.150   5.548  24.849  0.00  0.00    -0.263 NA
ATOM     24  C   UNL     1      -2.290   4.317  25.437  0.00  0.00    +0.041 A 
ATOM     26  C   UNL     1      -1.107   3.589  25.504  0.00  0.00    +0.033 A 
ATOM     27  C   UNL     1      -2.255   5.660  25.077  0.00  0.00    +0.033 A 
ATOM     28  C   UNL     1       0.076   4.245  25.203  0.00  0.00    +0.111 A 
ATOM     29  C   UNL     1      -1.020   6.223  24.796  0.00  0.00    +0.111 A 
ENDBRANCH  22  24
ENDBRANCH  16  20
ENDBRANCH  11  16
TORSDOF 7
ENDMDL
MODEL 8
REMARK VINA RESULT:      -1.4      1.913      7.120
REMARK  Name = 45784151
REMARK  11 active torsions:
REMARK  status: ('A' for Active; 'I' for Inactive)
REMARK    1  A    between atoms: N_3  and  C_15
REMARK    2  A    between atoms: N_5  and  C_23
REMARK    3  A    between atoms: C_8  and  C_12
REMARK    4  A    between atoms: C_9  and  C_15
REMARK    5  A    between atoms: C_11  and  C_16
REMARK    6  A    between atoms: C_12  and  C_17
REMARK    7  A    between atoms: C_12  and  C_18
REMARK    8  A    between atoms: C_13  and  C_19
REMARK    9  A    between atoms: C_16  and  C_20
REMARK   10  A    between atoms: C_22  and  C_24
REMARK   11  A    between atoms: C_23  and  C_25
REMARK                            x       y       z     vdW  Elec       q    Type
REMARK                         _______ _______ _______ _____ _____    ______ ____
ROOT
ATOM      8  C   UNL     1      -3.283  -1.095  24.422  0.00  0.00    +0.000 C 
ATOM      9  C   UNL     1      -3.703  -0.178  25.597  0.00  0.00    +0.032 C 
ATOM     10  C   UNL     1      -1.789  -1.441  24.520  0.00  0.00    +0.012 C 
ATOM     11  C   UNL     1      -0.897  -0.185  24.501  0.00  0.00    +0.024 C 
ATOM     13  C   UNL     1      -1.408   0.881  25.449  0.00  0.00    -0.073 C 
ATOM     14  C   UNL     1      -2.661   0.861  25.938  0.00  0.00    -0.022 C 
ATOM     19  C   UNL     1      -0.431   1.948  25.856  0.00  0.00    +0.039 C 
ENDROOT
BRANCH   8  12
ATOM     12  C   UNL     1      -4.112  -2.383  24.380  0.00  0.00    -0.013 C 
ATOM     17  C   UNL     1      -4.728  -2.574  22.998  0.00  0.00    +0.007 C 
ATOM     18  C   UNL     1      -3.249  -3.583  24.759  0.00  0.00    +0.007 C 
ENDBRANCH   8  12
BRANCH   9  15
ATOM     15  C   UNL     1      -5.039   0.515  25.307  0.00  0.00    +0.113 C 
BRANCH  15   3
ATOM      2  O   UNL     1      -3.657   2.369  23.582  0.00  0.00    -0.253 OA
ATOM      3  N   UNL     1      -4.924   1.929  25.479  0.00  0.00    -0.299 N 
ATOM      5  N   UNL     1      -4.279   4.098  24.999  0.00  0.00    -0.300 N 
ATOM     21  C   UNL     1      -4.233   2.767  24.594  0.00  0.00    +0.300 C 
ATOM     30  H   UNL     1      -5.424   2.366  26.247  0.00  0.00    +0.150 HD
ATOM     31  H   UNL     1      -4.768   4.329  25.858  0.00  0.00    +0.150 HD
BRANCH   5  23
ATOM     23  C   UNL     1      -3.644   5.163  24.259  0.00  0.00    +0.102 C 
ATOM     25  C   UNL     1      -2.217   5.383  24.718  0.00  0.00    +0.024 C 
ENDBRANCH   5  23
ENDBRANCH  15   3
ENDBRANCH   9  15
BRANCH  11  16
ATOM     16  C   UNL     1      -0.751   0.368  23.079  0.00  0.00    +0.105 C 
BRANCH  16  20
ATOM      1  O   UNL     1       1.656   0.090  23.373  0.00  0.00    -0.420 OA
ATOM      4  N   UNL     1       0.946  -0.224  21.275  0.00  0.00    -0.112 NA
ATOM      6  N   UNL     1       2.316  -0.411  21.296  0.00  0.00    -0.107 NA
ATOM     20  C   UNL     1       0.605   0.066  22.509  0.00  0.00    +0.218 A 
ATOM     22  C   UNL     1       2.686  -0.218  22.540  0.00  0.00    +0.248 A 
BRANCH  22  24
ATOM      7  N   UNL     1       6.518  -0.401  24.322  0.00  0.00    -0.263 NA
ATOM     24  C   UNL     1       3.985  -0.280  23.145  0.00  0.00    +0.041 A 
ATOM     26  C   UNL     1       4.417  -1.453  23.753  0.00  0.00    +0.033 A 
ATOM     27  C   UNL     1       4.818   0.834  23.125  0.00  0.00    +0.033 A 
ATOM     28  C   UNL     1       5.681  -1.462  24.322  0.00  0.00    +0.111 A 
ATOM     29  C   UNL     1       6.064   0.723  23.722  0.00  0.00    +0.111 A 
ENDBRANCH  22  24
ENDBRANCH  16  20
ENDBRANCH  11  16
TORSDOF 7
ENDMDL
