MODEL 1
REMARK VINA RESULT:      -4.0      0.000      0.000
REMARK  Name = 11885207
REMARK  5 active torsions:
REMARK  status: ('A' for Active; 'I' for Inactive)
REMARK    1  A    between atoms: S_1  and  C_30
REMARK    2  A    between atoms: S_1  and  C_32
REMARK    3  A    between atoms: C_16  and  C_19
REMARK    4  A    between atoms: C_17  and  C_20
REMARK    5  A    between atoms: C_29  and  C_31
REMARK                            x       y       z     vdW  Elec       q    Type
REMARK                         _______ _______ _______ _____ _____    ______ ____
ROOT
ATOM      2  O   UNL     1      14.708  -7.966  26.055  0.00  0.00    -0.267 OA
ATOM      3  O   UNL     1      11.932  -7.040  30.237  0.00  0.00    -0.270 OA
ATOM      4  N   UNL     1      13.679  -8.451  30.893  0.00  0.00    -0.297 N 
ATOM      5  N   UNL     1      15.296  -8.692  28.191  0.00  0.00    -0.311 N 
ATOM      7  C   UNL     1      13.951 -10.466  29.462  0.00  0.00    +0.027 C 
ATOM      8  C   UNL     1      15.926  -9.437  30.514  0.00  0.00    +0.054 C 
ATOM      9  C   UNL     1      15.276 -10.772  30.154  0.00  0.00    +0.018 C 
ATOM     10  C   UNL     1      13.029  -9.665  30.399  0.00  0.00    +0.113 C 
ATOM     11  C   UNL     1      14.240  -9.715  28.155  0.00  0.00    +0.130 C 
ATOM     12  C   UNL     1      15.011  -8.660  31.483  0.00  0.00    +0.117 C 
ATOM     13  C   UNL     1      16.175  -8.599  29.273  0.00  0.00    +0.027 A 
ATOM     14  C   UNL     1      17.207  -7.742  29.232  0.00  0.00    +0.022 A 
ATOM     15  C   UNL     1      15.440  -7.891  27.043  0.00  0.00    +0.259 A 
ATOM     16  C   UNL     1      13.045  -7.218  30.731  0.00  0.00    +0.247 C 
ATOM     17  C   UNL     1      16.579  -6.906  27.046  0.00  0.00    +0.047 A 
ATOM     18  C   UNL     1      17.405  -6.880  28.102  0.00  0.00    +0.015 A 
ENDROOT
BRANCH  16  19
ATOM     19  C   UNL     1      13.763  -6.011  31.156  0.00  0.00    +0.037 A 
ATOM     21  C   UNL     1      13.464  -5.423  32.383  0.00  0.00    +0.014 A 
ATOM     22  C   UNL     1      14.739  -5.459  30.331  0.00  0.00    +0.014 A 
ATOM     25  C   UNL     1      14.148  -4.276  32.787  0.00  0.00    +0.019 A 
ATOM     26  C   UNL     1      15.423  -4.312  30.735  0.00  0.00    +0.019 A 
ATOM     29  C   UNL     1      15.127  -3.721  31.962  0.00  0.00    +0.052 A 
BRANCH  29  31
ATOM      6  N   UNL     1      16.394  -1.588  32.712  0.00  0.00    -0.191 NA
ATOM     31  C   UNL     1      15.825  -2.545  32.376  0.00  0.00    +0.099 C 
ENDBRANCH  29  31
ENDBRANCH  16  19
BRANCH  17  20
ATOM     20  C   UNL     1      16.781  -5.971  25.927  0.00  0.00    -0.013 A 
ATOM     23  C   UNL     1      16.562  -4.605  26.109  0.00  0.00    +0.010 A 
ATOM     24  C   UNL     1      17.190  -6.450  24.682  0.00  0.00    +0.010 A 
ATOM     27  C   UNL     1      16.754  -3.719  25.048  0.00  0.00    +0.015 A 
ATOM     28  C   UNL     1      17.381  -5.565  23.621  0.00  0.00    +0.015 A 
ATOM     30  C   UNL     1      17.163  -4.200  23.805  0.00  0.00    +0.008 A 
BRANCH  30   1
ATOM      1  S   UNL     1      17.405  -3.069  22.450  0.00  0.00    -0.129 S 
ATOM     32  C   UNL     1      17.037  -1.471  23.230  0.00  0.00    +0.090 C 
ENDBRANCH  30   1
ENDBRANCH  17  20
TORSDOF 4
ENDMDL
