MODEL 1
REMARK VINA RESULT:      -3.3      0.000      0.000
REMARK  Name = 75536177
REMARK  13 active torsions:
REMARK  status: ('A' for Active; 'I' for Inactive)
REMARK    1  A    between atoms: O_3  and  C_31
REMARK    2  A    between atoms: N_5  and  C_15
REMARK    3  A    between atoms: C_8  and  C_12
REMARK    4  A    between atoms: C_9  and  C_15
REMARK    5  A    between atoms: C_11  and  C_16
REMARK    6  A    between atoms: C_12  and  C_17
REMARK    7  A    between atoms: C_12  and  C_18
REMARK    8  A    between atoms: C_13  and  C_19
REMARK    9  A    between atoms: C_16  and  C_20
REMARK   10  A    between atoms: C_21  and  C_24
REMARK   11  A    between atoms: C_24  and  C_25
REMARK   12  A    between atoms: C_25  and  C_30
REMARK   13  A    between atoms: C_30  and  C_31
REMARK                            x       y       z     vdW  Elec       q    Type
REMARK                         _______ _______ _______ _____ _____    ______ ____
ROOT
ATOM      8  C   UNL     1      -2.613   2.366  23.675  0.00  0.00    +0.000 C 
ATOM      9  C   UNL     1      -1.434   2.842  24.560  0.00  0.00    +0.032 C 
ATOM     10  C   UNL     1      -3.696   3.454  23.594  0.00  0.00    +0.012 C 
ATOM     11  C   UNL     1      -4.249   3.828  24.982  0.00  0.00    +0.022 C 
ATOM     13  C   UNL     1      -3.139   4.052  25.989  0.00  0.00    -0.073 C 
ATOM     14  C   UNL     1      -1.885   3.616  25.777  0.00  0.00    -0.022 C 
ATOM     19  C   UNL     1      -3.493   4.831  27.225  0.00  0.00    +0.039 C 
ENDROOT
BRANCH   8  12
ATOM     12  C   UNL     1      -2.148   1.991  22.263  0.00  0.00    -0.013 C 
ATOM     17  C   UNL     1      -2.384   0.507  22.003  0.00  0.00    +0.007 C 
ATOM     18  C   UNL     1      -2.865   2.845  21.223  0.00  0.00    +0.007 C 
ENDBRANCH   8  12
BRANCH   9  15
ATOM     15  C   UNL     1      -0.561   1.662  25.001  0.00  0.00    +0.112 C 
BRANCH  15   5
ATOM      2  O   UNL     1       0.083  -0.915  23.913  0.00  0.00    -0.276 OA
ATOM      5  N   UNL     1       0.439   1.377  24.020  0.00  0.00    -0.315 N 
ATOM     21  C   UNL     1       0.687   0.089  23.545  0.00  0.00    +0.213 C 
ATOM     32  H   UNL     1       0.912   2.153  23.567  0.00  0.00    +0.149 HD
BRANCH  21  24
ATOM     24  C   UNL     1       1.817   0.059  22.530  0.00  0.00    +0.096 C 
BRANCH  24  25
ATOM     25  C   UNL     1       2.985   0.980  22.884  0.00  0.00    +0.020 C 
BRANCH  25  30
ATOM     30  C   UNL     1       4.342   0.330  22.608  0.00  0.00    +0.121 C 
BRANCH  30  31
ATOM      4  O   UNL     1       5.665   0.716  24.615  0.00  0.00    -0.251 OA
ATOM     31  C   UNL     1       5.054  -0.052  23.886  0.00  0.00    +0.305 C 
BRANCH  31   3
ATOM      3  O   UNL     1       4.932  -1.381  24.142  0.00  0.00    -0.481 OA
ATOM     34  H   UNL     1       5.278  -1.928  23.405  0.00  0.00    +0.295 HD
ENDBRANCH  31   3
ENDBRANCH  30  31
ENDBRANCH  25  30
ENDBRANCH  24  25
ENDBRANCH  21  24
ENDBRANCH  15   5
ENDBRANCH   9  15
BRANCH  11  16
ATOM     16  C   UNL     1      -5.241   2.774  25.485  0.00  0.00    +0.082 C 
BRANCH  16  20
ATOM      1 CL   UNL     1      -3.631  -4.349  23.311  0.00  0.00    -0.083 Cl
ATOM      6  N   UNL     1      -5.127   0.546  24.354  0.00  0.00    -0.342 N 
ATOM      7  N   UNL     1      -3.766   0.824  26.089  0.00  0.00    -0.232 NA
ATOM     20  C   UNL     1      -4.687   1.386  25.338  0.00  0.00    +0.109 A 
ATOM     22  C   UNL     1      -4.442  -0.636  24.476  0.00  0.00    +0.068 A 
ATOM     23  C   UNL     1      -3.600  -0.438  25.566  0.00  0.00    +0.089 A 
ATOM     26  C   UNL     1      -4.488  -1.826  23.748  0.00  0.00    +0.047 A 
ATOM     27  C   UNL     1      -2.744  -1.477  25.969  0.00  0.00    +0.031 A 
ATOM     28  C   UNL     1      -3.630  -2.850  24.163  0.00  0.00    +0.043 A 
ATOM     29  C   UNL     1      -2.772  -2.681  25.253  0.00  0.00    +0.022 A 
ATOM     33  H   UNL     1      -5.829   0.757  23.657  0.00  0.00    +0.167 HD
ENDBRANCH  16  20
ENDBRANCH  11  16
TORSDOF 10
ENDMDL
MODEL 2
REMARK VINA RESULT:      -2.4      1.626      2.297
REMARK  Name = 75536177
REMARK  13 active torsions:
REMARK  status: ('A' for Active; 'I' for Inactive)
REMARK    1  A    between atoms: O_3  and  C_31
REMARK    2  A    between atoms: N_5  and  C_15
REMARK    3  A    between atoms: C_8  and  C_12
REMARK    4  A    between atoms: C_9  and  C_15
REMARK    5  A    between atoms: C_11  and  C_16
REMARK    6  A    between atoms: C_12  and  C_17
REMARK    7  A    between atoms: C_12  and  C_18
REMARK    8  A    between atoms: C_13  and  C_19
REMARK    9  A    between atoms: C_16  and  C_20
REMARK   10  A    between atoms: C_21  and  C_24
REMARK   11  A    between atoms: C_24  and  C_25
REMARK   12  A    between atoms: C_25  and  C_30
REMARK   13  A    between atoms: C_30  and  C_31
REMARK                            x       y       z     vdW  Elec       q    Type
REMARK                         _______ _______ _______ _____ _____    ______ ____
ROOT
ATOM      8  C   UNL     1      -3.217   2.415  23.830  0.00  0.00    +0.000 C 
ATOM      9  C   UNL     1      -2.919   3.883  24.228  0.00  0.00    +0.032 C 
ATOM     10  C   UNL     1      -4.697   2.252  23.451  0.00  0.00    +0.012 C 
ATOM     11  C   UNL     1      -5.639   2.646  24.605  0.00  0.00    +0.022 C 
ATOM     13  C   UNL     1      -5.242   3.968  25.230  0.00  0.00    -0.073 C 
ATOM     14  C   UNL     1      -4.027   4.511  25.039  0.00  0.00    -0.022 C 
ATOM     19  C   UNL     1      -6.291   4.675  26.043  0.00  0.00    +0.039 C 
ENDROOT
BRANCH   8  12
ATOM     12  C   UNL     1      -2.331   1.949  22.670  0.00  0.00    -0.013 C 
ATOM     17  C   UNL     1      -2.467   0.443  22.468  0.00  0.00    +0.007 C 
ATOM     18  C   UNL     1      -2.688   2.701  21.393  0.00  0.00    +0.007 C 
ENDBRANCH   8  12
BRANCH   9  15
ATOM     15  C   UNL     1      -1.597   3.990  24.998  0.00  0.00    +0.112 C 
BRANCH  15   5
ATOM      2  O   UNL     1      -0.017   1.857  26.091  0.00  0.00    -0.276 OA
ATOM      5  N   UNL     1      -0.561   3.269  24.329  0.00  0.00    -0.315 N 
ATOM     21  C   UNL     1       0.161   2.242  24.939  0.00  0.00    +0.213 C 
ATOM     32  H   UNL     1      -0.416   3.430  23.337  0.00  0.00    +0.149 HD
BRANCH  21  24
ATOM     24  C   UNL     1       1.222   1.661  24.019  0.00  0.00    +0.096 C 
BRANCH  24  25
ATOM     25  C   UNL     1       0.823   0.329  23.385  0.00  0.00    +0.020 C 
BRANCH  25  30
ATOM     30  C   UNL     1       1.829  -0.138  22.331  0.00  0.00    +0.121 C 
BRANCH  30  31
ATOM      4  O   UNL     1       3.939   1.056  22.548  0.00  0.00    -0.251 OA
ATOM     31  C   UNL     1       3.256   0.070  22.784  0.00  0.00    +0.305 C 
BRANCH  31   3
ATOM      3  O   UNL     1       3.707  -0.990  23.504  0.00  0.00    -0.481 OA
ATOM     34  H   UNL     1       3.126  -1.185  24.269  0.00  0.00    +0.295 HD
ENDBRANCH  31   3
ENDBRANCH  30  31
ENDBRANCH  25  30
ENDBRANCH  24  25
ENDBRANCH  21  24
ENDBRANCH  15   5
ENDBRANCH   9  15
BRANCH  11  16
ATOM     16  C   UNL     1      -5.712   1.539  25.662  0.00  0.00    +0.082 C 
BRANCH  16  20
ATOM      1 CL   UNL     1       0.573  -2.762  25.435  0.00  0.00    -0.083 Cl
ATOM      6  N   UNL     1      -3.424   0.564  25.929  0.00  0.00    -0.342 N 
ATOM      7  N   UNL     1      -4.847  -0.624  24.703  0.00  0.00    -0.232 NA
ATOM     20  C   UNL     1      -4.685   0.472  25.411  0.00  0.00    +0.109 A 
ATOM     22  C   UNL     1      -2.726  -0.547  25.530  0.00  0.00    +0.068 A 
ATOM     23  C   UNL     1      -3.635  -1.272  24.766  0.00  0.00    +0.089 A 
ATOM     26  C   UNL     1      -1.416  -0.966  25.764  0.00  0.00    +0.047 A 
ATOM     27  C   UNL     1      -3.233  -2.491  24.194  0.00  0.00    +0.031 A 
ATOM     28  C   UNL     1      -1.031  -2.181  25.188  0.00  0.00    +0.043 A 
ATOM     29  C   UNL     1      -1.921  -2.932  24.416  0.00  0.00    +0.022 A 
ATOM     33  H   UNL     1      -3.068   1.315  26.505  0.00  0.00    +0.167 HD
ENDBRANCH  16  20
ENDBRANCH  11  16
TORSDOF 10
ENDMDL
MODEL 3
REMARK VINA RESULT:      -2.4      2.449      4.633
REMARK  Name = 75536177
REMARK  13 active torsions:
REMARK  status: ('A' for Active; 'I' for Inactive)
REMARK    1  A    between atoms: O_3  and  C_31
REMARK    2  A    between atoms: N_5  and  C_15
REMARK    3  A    between atoms: C_8  and  C_12
REMARK    4  A    between atoms: C_9  and  C_15
REMARK    5  A    between atoms: C_11  and  C_16
REMARK    6  A    between atoms: C_12  and  C_17
REMARK    7  A    between atoms: C_12  and  C_18
REMARK    8  A    between atoms: C_13  and  C_19
REMARK    9  A    between atoms: C_16  and  C_20
REMARK   10  A    between atoms: C_21  and  C_24
REMARK   11  A    between atoms: C_24  and  C_25
REMARK   12  A    between atoms: C_25  and  C_30
REMARK   13  A    between atoms: C_30  and  C_31
REMARK                            x       y       z     vdW  Elec       q    Type
REMARK                         _______ _______ _______ _____ _____    ______ ____
ROOT
ATOM      8  C   UNL     1      -1.437   0.604  25.402  0.00  0.00    +0.000 C 
ATOM      9  C   UNL     1      -0.185   0.086  24.651  0.00  0.00    +0.032 C 
ATOM     10  C   UNL     1      -2.055  -0.517  26.251  0.00  0.00    +0.012 C 
ATOM     11  C   UNL     1      -2.466  -1.733  25.399  0.00  0.00    +0.022 C 
ATOM     13  C   UNL     1      -1.371  -2.141  24.434  0.00  0.00    -0.073 C 
ATOM     14  C   UNL     1      -0.353  -1.320  24.123  0.00  0.00    -0.022 C 
ATOM     19  C   UNL     1      -1.448  -3.533  23.871  0.00  0.00    +0.039 C 
ENDROOT
BRANCH   8  12
ATOM     12  C   UNL     1      -1.109   1.807  26.292  0.00  0.00    -0.013 C 
ATOM     17  C   UNL     1       0.399   1.922  26.497  0.00  0.00    +0.007 C 
ATOM     18  C   UNL     1      -1.672   3.088  25.685  0.00  0.00    +0.007 C 
ENDBRANCH   8  12
BRANCH   9  15
ATOM     15  C   UNL     1       0.197   1.022  23.499  0.00  0.00    +0.112 C 
BRANCH  15   5
ATOM      2  O   UNL     1       1.311  -0.504  21.339  0.00  0.00    -0.276 OA
ATOM      5  N   UNL     1       1.583   0.890  23.175  0.00  0.00    -0.315 N 
ATOM     21  C   UNL     1       2.039   0.124  22.103  0.00  0.00    +0.213 C 
ATOM     32  H   UNL     1       2.257   1.463  23.674  0.00  0.00    +0.149 HD
BRANCH  21  24
ATOM     24  C   UNL     1       3.555   0.129  21.997  0.00  0.00    +0.096 C 
BRANCH  24  25
ATOM     25  C   UNL     1       4.218   1.296  22.728  0.00  0.00    +0.020 C 
BRANCH  25  30
ATOM     30  C   UNL     1       5.073   0.833  23.909  0.00  0.00    +0.121 C 
BRANCH  30  31
ATOM      4  O   UNL     1       6.712  -0.705  22.973  0.00  0.00    -0.251 OA
ATOM     31  C   UNL     1       5.711  -0.513  23.648  0.00  0.00    +0.305 C 
BRANCH  31   3
ATOM      3  O   UNL     1       5.031  -1.512  24.268  0.00  0.00    -0.481 OA
ATOM     34  H   UNL     1       4.086  -1.285  24.398  0.00  0.00    +0.295 HD
ENDBRANCH  31   3
ENDBRANCH  30  31
ENDBRANCH  25  30
ENDBRANCH  24  25
ENDBRANCH  21  24
ENDBRANCH  15   5
ENDBRANCH   9  15
BRANCH  11  16
ATOM     16  C   UNL     1      -3.781  -1.470  24.657  0.00  0.00    +0.082 C 
BRANCH  16  20
ATOM      1 CL   UNL     1      -6.334   5.635  25.680  0.00  0.00    -0.083 Cl
ATOM      6  N   UNL     1      -4.912   0.614  25.451  0.00  0.00    -0.342 N 
ATOM      7  N   UNL     1      -3.596   0.842  23.676  0.00  0.00    -0.232 NA
ATOM     20  C   UNL     1      -4.073   0.000  24.564  0.00  0.00    +0.109 A 
ATOM     22  C   UNL     1      -4.980   1.942  25.113  0.00  0.00    +0.068 A 
ATOM     23  C   UNL     1      -4.150   2.059  24.002  0.00  0.00    +0.089 A 
ATOM     26  C   UNL     1      -5.675   3.017  25.667  0.00  0.00    +0.047 A 
ATOM     27  C   UNL     1      -3.992   3.315  23.393  0.00  0.00    +0.031 A 
ATOM     28  C   UNL     1      -5.506   4.261  25.050  0.00  0.00    +0.043 A 
ATOM     29  C   UNL     1      -4.680   4.410  23.933  0.00  0.00    +0.022 A 
ATOM     33  H   UNL     1      -5.396   0.172  26.221  0.00  0.00    +0.167 HD
ENDBRANCH  16  20
ENDBRANCH  11  16
TORSDOF 10
ENDMDL
MODEL 4
REMARK VINA RESULT:      -2.2      2.415      4.936
REMARK  Name = 75536177
REMARK  13 active torsions:
REMARK  status: ('A' for Active; 'I' for Inactive)
REMARK    1  A    between atoms: O_3  and  C_31
REMARK    2  A    between atoms: N_5  and  C_15
REMARK    3  A    between atoms: C_8  and  C_12
REMARK    4  A    between atoms: C_9  and  C_15
REMARK    5  A    between atoms: C_11  and  C_16
REMARK    6  A    between atoms: C_12  and  C_17
REMARK    7  A    between atoms: C_12  and  C_18
REMARK    8  A    between atoms: C_13  and  C_19
REMARK    9  A    between atoms: C_16  and  C_20
REMARK   10  A    between atoms: C_21  and  C_24
REMARK   11  A    between atoms: C_24  and  C_25
REMARK   12  A    between atoms: C_25  and  C_30
REMARK   13  A    between atoms: C_30  and  C_31
REMARK                            x       y       z     vdW  Elec       q    Type
REMARK                         _______ _______ _______ _____ _____    ______ ____
ROOT
ATOM      8  C   UNL     1      -1.746  -0.803  25.131  0.00  0.00    +0.000 C 
ATOM      9  C   UNL     1      -1.294  -2.150  24.513  0.00  0.00    +0.032 C 
ATOM     10  C   UNL     1      -3.093  -0.970  25.852  0.00  0.00    +0.012 C 
ATOM     11  C   UNL     1      -4.201  -1.469  24.905  0.00  0.00    +0.022 C 
ATOM     13  C   UNL     1      -3.737  -2.638  24.060  0.00  0.00    -0.073 C 
ATOM     14  C   UNL     1      -2.434  -2.934  23.908  0.00  0.00    -0.022 C 
ATOM     19  C   UNL     1      -4.807  -3.487  23.432  0.00  0.00    +0.039 C 
ENDROOT
BRANCH   8  12
ATOM     12  C   UNL     1      -0.703  -0.246  26.105  0.00  0.00    -0.013 C 
ATOM     17  C   UNL     1      -0.704   1.279  26.071  0.00  0.00    +0.007 C 
ATOM     18  C   UNL     1      -0.968  -0.756  27.518  0.00  0.00    +0.007 C 
ENDBRANCH   8  12
BRANCH   9  15
ATOM     15  C   UNL     1      -0.204  -1.935  23.455  0.00  0.00    +0.112 C 
BRANCH  15   5
ATOM      2  O   UNL     1       1.324  -0.373  21.594  0.00  0.00    -0.276 OA
ATOM      5  N   UNL     1       0.568  -0.770  23.753  0.00  0.00    -0.315 N 
ATOM     21  C   UNL     1       1.284  -0.068  22.783  0.00  0.00    +0.213 C 
ATOM     32  H   UNL     1       0.506  -0.368  24.684  0.00  0.00    +0.149 HD
BRANCH  21  24
ATOM     24  C   UNL     1       2.040   1.112  23.368  0.00  0.00    +0.096 C 
BRANCH  24  25
ATOM     25  C   UNL     1       3.407   1.345  22.726  0.00  0.00    +0.020 C 
BRANCH  25  30
ATOM     30  C   UNL     1       4.241   0.064  22.651  0.00  0.00    +0.121 C 
BRANCH  30  31
ATOM      4  O   UNL     1       5.616   0.704  24.554  0.00  0.00    -0.251 OA
ATOM     31  C   UNL     1       5.039  -0.163  23.914  0.00  0.00    +0.305 C 
BRANCH  31   3
ATOM      3  O   UNL     1       5.040  -1.474  24.271  0.00  0.00    -0.481 OA
ATOM     34  H   UNL     1       5.568  -1.632  25.082  0.00  0.00    +0.295 HD
ENDBRANCH  31   3
ENDBRANCH  30  31
ENDBRANCH  25  30
ENDBRANCH  24  25
ENDBRANCH  21  24
ENDBRANCH  15   5
ENDBRANCH   9  15
BRANCH  11  16
ATOM     16  C   UNL     1      -4.730  -0.331  24.024  0.00  0.00    +0.082 C 
BRANCH  16  20
ATOM      1 CL   UNL     1      -0.563   6.014  24.667  0.00  0.00    -0.083 Cl
ATOM      6  N   UNL     1      -3.061   1.515  23.776  0.00  0.00    -0.342 N 
ATOM      7  N   UNL     1      -4.561   1.775  25.395  0.00  0.00    -0.232 NA
ATOM     20  C   UNL     1      -4.143   0.991  24.426  0.00  0.00    +0.109 A 
ATOM     22  C   UNL     1      -2.761   2.717  24.364  0.00  0.00    +0.068 A 
ATOM     23  C   UNL     1      -3.710   2.856  25.372  0.00  0.00    +0.089 A 
ATOM     26  C   UNL     1      -1.770   3.665  24.108  0.00  0.00    +0.047 A 
ATOM     27  C   UNL     1      -3.686   4.003  26.183  0.00  0.00    +0.031 A 
ATOM     28  C   UNL     1      -1.759   4.800  24.925  0.00  0.00    +0.043 A 
ATOM     29  C   UNL     1      -2.699   4.969  25.945  0.00  0.00    +0.022 A 
ATOM     33  H   UNL     1      -2.569   1.094  22.999  0.00  0.00    +0.167 HD
ENDBRANCH  16  20
ENDBRANCH  11  16
TORSDOF 10
ENDMDL
MODEL 5
REMARK VINA RESULT:      -1.7      3.256      7.059
REMARK  Name = 75536177
REMARK  13 active torsions:
REMARK  status: ('A' for Active; 'I' for Inactive)
REMARK    1  A    between atoms: O_3  and  C_31
REMARK    2  A    between atoms: N_5  and  C_15
REMARK    3  A    between atoms: C_8  and  C_12
REMARK    4  A    between atoms: C_9  and  C_15
REMARK    5  A    between atoms: C_11  and  C_16
REMARK    6  A    between atoms: C_12  and  C_17
REMARK    7  A    between atoms: C_12  and  C_18
REMARK    8  A    between atoms: C_13  and  C_19
REMARK    9  A    between atoms: C_16  and  C_20
REMARK   10  A    between atoms: C_21  and  C_24
REMARK   11  A    between atoms: C_24  and  C_25
REMARK   12  A    between atoms: C_25  and  C_30
REMARK   13  A    between atoms: C_30  and  C_31
REMARK                            x       y       z     vdW  Elec       q    Type
REMARK                         _______ _______ _______ _____ _____    ______ ____
ROOT
ATOM      8  C   UNL     1      -3.337  -1.504  24.317  0.00  0.00    +0.000 C 
ATOM      9  C   UNL     1      -3.851  -0.429  25.307  0.00  0.00    +0.032 C 
ATOM     10  C   UNL     1      -1.926  -1.966  24.711  0.00  0.00    +0.012 C 
ATOM     11  C   UNL     1      -0.918  -0.801  24.732  0.00  0.00    +0.022 C 
ATOM     13  C   UNL     1      -1.465   0.404  25.468  0.00  0.00    -0.073 C 
ATOM     14  C   UNL     1      -2.777   0.547  25.728  0.00  0.00    -0.022 C 
ATOM     19  C   UNL     1      -0.464   1.422  25.941  0.00  0.00    +0.039 C 
ENDROOT
BRANCH   8  12
ATOM     12  C   UNL     1      -4.278  -2.712  24.251  0.00  0.00    -0.013 C 
ATOM     17  C   UNL     1      -4.756  -2.937  22.819  0.00  0.00    +0.007 C 
ATOM     18  C   UNL     1      -3.584  -3.957  24.792  0.00  0.00    +0.007 C 
ENDBRANCH   8  12
BRANCH   9  15
ATOM     15  C   UNL     1      -5.040   0.341  24.721  0.00  0.00    +0.112 C 
BRANCH  15   5
ATOM      2  O   UNL     1      -6.202   2.279  26.491  0.00  0.00    -0.276 OA
ATOM      5  N   UNL     1      -4.786   1.748  24.729  0.00  0.00    -0.315 N 
ATOM     21  C   UNL     1      -5.397   2.621  25.629  0.00  0.00    +0.213 C 
ATOM     32  H   UNL     1      -4.049   2.114  24.133  0.00  0.00    +0.149 HD
BRANCH  21  24
ATOM     24  C   UNL     1      -4.976   4.064  25.405  0.00  0.00    +0.096 C 
BRANCH  24  25
ATOM     25  C   UNL     1      -3.645   4.208  24.668  0.00  0.00    +0.020 C 
BRANCH  25  30
ATOM     30  C   UNL     1      -2.455   4.285  25.626  0.00  0.00    +0.121 C 
BRANCH  30  31
ATOM      4  O   UNL     1      -0.337   4.136  24.436  0.00  0.00    -0.251 OA
ATOM     31  C   UNL     1      -1.216   4.818  24.943  0.00  0.00    +0.305 C 
BRANCH  31   3
ATOM      3  O   UNL     1      -1.188   6.176  24.953  0.00  0.00    -0.481 OA
ATOM     34  H   UNL     1      -2.033   6.561  24.635  0.00  0.00    +0.295 HD
ENDBRANCH  31   3
ENDBRANCH  30  31
ENDBRANCH  25  30
ENDBRANCH  24  25
ENDBRANCH  21  24
ENDBRANCH  15   5
ENDBRANCH   9  15
BRANCH  11  16
ATOM     16  C   UNL     1      -0.478  -0.424  23.313  0.00  0.00    +0.082 C 
BRANCH  16  20
ATOM      1 CL   UNL     1       7.119  -0.859  23.695  0.00  0.00    -0.083 Cl
ATOM      6  N   UNL     1       1.902  -1.110  23.660  0.00  0.00    -0.342 N 
ATOM      7  N   UNL     1       1.592   0.919  22.811  0.00  0.00    -0.232 NA
ATOM     20  C   UNL     1       1.001  -0.170  23.246  0.00  0.00    +0.109 A 
ATOM     22  C   UNL     1       3.159  -0.593  23.479  0.00  0.00    +0.068 A 
ATOM     23  C   UNL     1       2.939   0.674  22.949  0.00  0.00    +0.089 A 
ATOM     26  C   UNL     1       4.431  -1.111  23.727  0.00  0.00    +0.047 A 
ATOM     27  C   UNL     1       4.041   1.489  22.640  0.00  0.00    +0.031 A 
ATOM     28  C   UNL     1       5.517  -0.286  23.415  0.00  0.00    +0.043 A 
ATOM     29  C   UNL     1       5.329   0.991  22.881  0.00  0.00    +0.022 A 
ATOM     33  H   UNL     1       1.683  -2.025  24.033  0.00  0.00    +0.167 HD
ENDBRANCH  16  20
ENDBRANCH  11  16
TORSDOF 10
ENDMDL
MODEL 6
REMARK VINA RESULT:      -1.3      2.886      6.374
REMARK  Name = 75536177
REMARK  13 active torsions:
REMARK  status: ('A' for Active; 'I' for Inactive)
REMARK    1  A    between atoms: O_3  and  C_31
REMARK    2  A    between atoms: N_5  and  C_15
REMARK    3  A    between atoms: C_8  and  C_12
REMARK    4  A    between atoms: C_9  and  C_15
REMARK    5  A    between atoms: C_11  and  C_16
REMARK    6  A    between atoms: C_12  and  C_17
REMARK    7  A    between atoms: C_12  and  C_18
REMARK    8  A    between atoms: C_13  and  C_19
REMARK    9  A    between atoms: C_16  and  C_20
REMARK   10  A    between atoms: C_21  and  C_24
REMARK   11  A    between atoms: C_24  and  C_25
REMARK   12  A    between atoms: C_25  and  C_30
REMARK   13  A    between atoms: C_30  and  C_31
REMARK                            x       y       z     vdW  Elec       q    Type
REMARK                         _______ _______ _______ _____ _____    ______ ____
ROOT
ATOM      8  C   UNL     1      -2.951   0.994  23.805  0.00  0.00    +0.000 C 
ATOM      9  C   UNL     1      -4.390   0.531  24.143  0.00  0.00    +0.032 C 
ATOM     10  C   UNL     1      -2.206  -0.099  23.023  0.00  0.00    +0.012 C 
ATOM     11  C   UNL     1      -2.120  -1.421  23.809  0.00  0.00    +0.022 C 
ATOM     13  C   UNL     1      -3.458  -1.808  24.406  0.00  0.00    -0.073 C 
ATOM     14  C   UNL     1      -4.464  -0.926  24.535  0.00  0.00    -0.022 C 
ATOM     19  C   UNL     1      -3.628  -3.247  24.810  0.00  0.00    +0.039 C 
ENDROOT
BRANCH   8  12
ATOM     12  C   UNL     1      -2.947   2.299  23.002  0.00  0.00    -0.013 C 
ATOM     17  C   UNL     1      -2.291   2.085  21.641  0.00  0.00    +0.007 C 
ATOM     18  C   UNL     1      -4.368   2.829  22.841  0.00  0.00    +0.007 C 
ENDBRANCH   8  12
BRANCH   9  15
ATOM     15  C   UNL     1      -5.000   1.391  25.256  0.00  0.00    +0.112 C 
BRANCH  15   5
ATOM      2  O   UNL     1      -5.583   4.154  25.771  0.00  0.00    -0.276 OA
ATOM      5  N   UNL     1      -4.075   2.391  25.690  0.00  0.00    -0.315 N 
ATOM     21  C   UNL     1      -4.445   3.716  25.917  0.00  0.00    +0.213 C 
ATOM     32  H   UNL     1      -3.136   2.105  25.952  0.00  0.00    +0.149 HD
BRANCH  21  24
ATOM     24  C   UNL     1      -3.268   4.576  26.343  0.00  0.00    +0.096 C 
BRANCH  24  25
ATOM     25  C   UNL     1      -2.461   5.137  25.173  0.00  0.00    +0.020 C 
BRANCH  25  30
ATOM     30  C   UNL     1      -0.959   4.893  25.332  0.00  0.00    +0.121 C 
BRANCH  30  31
ATOM      4  O   UNL     1      -0.900   2.631  26.230  0.00  0.00    -0.251 OA
ATOM     31  C   UNL     1      -0.626   3.418  25.335  0.00  0.00    +0.305 C 
BRANCH  31   3
ATOM      3  O   UNL     1       0.028   3.054  24.201  0.00  0.00    -0.481 OA
ATOM     34  H   UNL     1       0.799   2.480  24.392  0.00  0.00    +0.295 HD
ENDBRANCH  31   3
ENDBRANCH  30  31
ENDBRANCH  25  30
ENDBRANCH  24  25
ENDBRANCH  21  24
ENDBRANCH  15   5
ENDBRANCH   9  15
BRANCH  11  16
ATOM     16  C   UNL     1      -1.036  -1.352  24.891  0.00  0.00    +0.082 C 
BRANCH  16  20
ATOM      1 CL   UNL     1       6.232  -0.349  22.836  0.00  0.00    -0.083 Cl
ATOM      6  N   UNL     1       1.427  -1.542  24.503  0.00  0.00    -0.342 N 
ATOM      7  N   UNL     1       0.448   0.261  23.650  0.00  0.00    -0.232 NA
ATOM     20  C   UNL     1       0.264  -0.847  24.333  0.00  0.00    +0.109 A 
ATOM     22  C   UNL     1       2.430  -0.836  23.889  0.00  0.00    +0.068 A 
ATOM     23  C   UNL     1       1.794   0.285  23.365  0.00  0.00    +0.089 A 
ATOM     26  C   UNL     1       3.798  -1.075  23.751  0.00  0.00    +0.047 A 
ATOM     27  C   UNL     1       2.550   1.235  22.658  0.00  0.00    +0.031 A 
ATOM     28  C   UNL     1       4.536  -0.119  23.045  0.00  0.00    +0.043 A 
ATOM     29  C   UNL     1       3.926   1.016  22.507  0.00  0.00    +0.022 A 
ATOM     33  H   UNL     1       1.533  -2.420  24.993  0.00  0.00    +0.167 HD
ENDBRANCH  16  20
ENDBRANCH  11  16
TORSDOF 10
ENDMDL
MODEL 7
REMARK VINA RESULT:      -1.3      2.739      5.433
REMARK  Name = 75536177
REMARK  13 active torsions:
REMARK  status: ('A' for Active; 'I' for Inactive)
REMARK    1  A    between atoms: O_3  and  C_31
REMARK    2  A    between atoms: N_5  and  C_15
REMARK    3  A    between atoms: C_8  and  C_12
REMARK    4  A    between atoms: C_9  and  C_15
REMARK    5  A    between atoms: C_11  and  C_16
REMARK    6  A    between atoms: C_12  and  C_17
REMARK    7  A    between atoms: C_12  and  C_18
REMARK    8  A    between atoms: C_13  and  C_19
REMARK    9  A    between atoms: C_16  and  C_20
REMARK   10  A    between atoms: C_21  and  C_24
REMARK   11  A    between atoms: C_24  and  C_25
REMARK   12  A    between atoms: C_25  and  C_30
REMARK   13  A    between atoms: C_30  and  C_31
REMARK                            x       y       z     vdW  Elec       q    Type
REMARK                         _______ _______ _______ _____ _____    ______ ____
ROOT
ATOM      8  C   UNL     1      -4.103   3.077  25.274  0.00  0.00    +0.000 C 
ATOM      9  C   UNL     1      -3.792   3.655  23.871  0.00  0.00    +0.032 C 
ATOM     10  C   UNL     1      -3.460   3.945  26.367  0.00  0.00    +0.012 C 
ATOM     11  C   UNL     1      -1.931   4.041  26.208  0.00  0.00    +0.022 C 
ATOM     13  C   UNL     1      -1.531   4.346  24.778  0.00  0.00    -0.073 C 
ATOM     14  C   UNL     1      -2.380   4.180  23.749  0.00  0.00    -0.022 C 
ATOM     19  C   UNL     1      -0.146   4.891  24.563  0.00  0.00    +0.039 C 
ENDROOT
BRANCH   8  12
ATOM     12  C   UNL     1      -5.612   2.967  25.522  0.00  0.00    -0.013 C 
ATOM     17  C   UNL     1      -5.892   2.034  26.696  0.00  0.00    +0.007 C 
ATOM     18  C   UNL     1      -6.212   4.347  25.770  0.00  0.00    +0.007 C 
ENDBRANCH   8  12
BRANCH   9  15
ATOM     15  C   UNL     1      -4.046   2.614  22.775  0.00  0.00    +0.112 C 
BRANCH  15   5
ATOM      2  O   UNL     1      -5.288   0.322  23.977  0.00  0.00    -0.276 OA
ATOM      5  N   UNL     1      -3.413   1.373  23.098  0.00  0.00    -0.315 N 
ATOM     21  C   UNL     1      -4.096   0.307  23.684  0.00  0.00    +0.213 C 
ATOM     32  H   UNL     1      -2.459   1.217  22.788  0.00  0.00    +0.149 HD
BRANCH  21  24
ATOM     24  C   UNL     1      -3.186  -0.881  23.948  0.00  0.00    +0.096 C 
BRANCH  24  25
ATOM     25  C   UNL     1      -3.857  -2.006  24.736  0.00  0.00    +0.020 C 
BRANCH  25  30
ATOM     30  C   UNL     1      -2.908  -2.656  25.745  0.00  0.00    +0.121 C 
BRANCH  30  31
ATOM      4  O   UNL     1      -0.609  -2.466  24.970  0.00  0.00    -0.251 OA
ATOM     31  C   UNL     1      -1.520  -2.061  25.677  0.00  0.00    +0.305 C 
BRANCH  31   3
ATOM      3  O   UNL     1      -1.396  -0.995  26.510  0.00  0.00    -0.481 OA
ATOM     34  H   UNL     1      -0.735  -1.158  27.216  0.00  0.00    +0.295 HD
ENDBRANCH  31   3
ENDBRANCH  30  31
ENDBRANCH  25  30
ENDBRANCH  24  25
ENDBRANCH  21  24
ENDBRANCH  15   5
ENDBRANCH   9  15
BRANCH  11  16
ATOM     16  C   UNL     1      -1.241   2.768  26.710  0.00  0.00    +0.082 C 
BRANCH  16  20
ATOM      1 CL   UNL     1       3.886   0.161  21.714  0.00  0.00    -0.083 Cl
ATOM      6  N   UNL     1       0.811   2.275  25.369  0.00  0.00    -0.342 N 
ATOM      7  N   UNL     1      -1.032   1.196  24.753  0.00  0.00    -0.232 NA
ATOM     20  C   UNL     1      -0.519   2.061  25.600  0.00  0.00    +0.109 A 
ATOM     22  C   UNL     1       1.181   1.497  24.302  0.00  0.00    +0.068 A 
ATOM     23  C   UNL     1       0.014   0.834  23.936  0.00  0.00    +0.089 A 
ATOM     26  C   UNL     1       2.400   1.322  23.647  0.00  0.00    +0.047 A 
ATOM     27  C   UNL     1       0.045  -0.062  22.853  0.00  0.00    +0.031 A 
ATOM     28  C   UNL     1       2.414   0.427  22.571  0.00  0.00    +0.043 A 
ATOM     29  C   UNL     1       1.258  -0.253  22.179  0.00  0.00    +0.022 A 
ATOM     33  H   UNL     1       1.416   2.895  25.891  0.00  0.00    +0.167 HD
ENDBRANCH  16  20
ENDBRANCH  11  16
TORSDOF 10
ENDMDL
MODEL 8
REMARK VINA RESULT:      -1.3      2.966      6.472
REMARK  Name = 75536177
REMARK  13 active torsions:
REMARK  status: ('A' for Active; 'I' for Inactive)
REMARK    1  A    between atoms: O_3  and  C_31
REMARK    2  A    between atoms: N_5  and  C_15
REMARK    3  A    between atoms: C_8  and  C_12
REMARK    4  A    between atoms: C_9  and  C_15
REMARK    5  A    between atoms: C_11  and  C_16
REMARK    6  A    between atoms: C_12  and  C_17
REMARK    7  A    between atoms: C_12  and  C_18
REMARK    8  A    between atoms: C_13  and  C_19
REMARK    9  A    between atoms: C_16  and  C_20
REMARK   10  A    between atoms: C_21  and  C_24
REMARK   11  A    between atoms: C_24  and  C_25
REMARK   12  A    between atoms: C_25  and  C_30
REMARK   13  A    between atoms: C_30  and  C_31
REMARK                            x       y       z     vdW  Elec       q    Type
REMARK                         _______ _______ _______ _____ _____    ______ ____
ROOT
ATOM      8  C   UNL     1      -2.209   3.183  24.848  0.00  0.00    +0.000 C 
ATOM      9  C   UNL     1      -3.446   3.498  23.970  0.00  0.00    +0.032 C 
ATOM     10  C   UNL     1      -0.947   3.076  23.979  0.00  0.00    +0.012 C 
ATOM     11  C   UNL     1      -1.073   1.981  22.903  0.00  0.00    +0.022 C 
ATOM     13  C   UNL     1      -2.396   2.062  22.168  0.00  0.00    -0.073 C 
ATOM     14  C   UNL     1      -3.440   2.756  22.655  0.00  0.00    -0.022 C 
ATOM     19  C   UNL     1      -2.476   1.366  20.838  0.00  0.00    +0.039 C 
ENDROOT
BRANCH   8  12
ATOM     12  C   UNL     1      -2.000   4.241  25.937  0.00  0.00    -0.013 C 
ATOM     17  C   UNL     1      -1.698   5.598  25.309  0.00  0.00    +0.007 C 
ATOM     18  C   UNL     1      -3.224   4.323  26.842  0.00  0.00    +0.007 C 
ENDBRANCH   8  12
BRANCH   9  15
ATOM     15  C   UNL     1      -4.748   3.197  24.721  0.00  0.00    +0.112 C 
BRANCH  15   5
ATOM      2  O   UNL     1      -3.522   0.784  25.676  0.00  0.00    -0.276 OA
ATOM      5  N   UNL     1      -5.184   1.861  24.464  0.00  0.00    -0.315 N 
ATOM     21  C   UNL     1      -4.526   0.740  24.970  0.00  0.00    +0.213 C 
ATOM     32  H   UNL     1      -6.071   1.720  23.988  0.00  0.00    +0.149 HD
BRANCH  21  24
ATOM     24  C   UNL     1      -5.178  -0.559  24.525  0.00  0.00    +0.096 C 
BRANCH  24  25
ATOM     25  C   UNL     1      -4.238  -1.485  23.755  0.00  0.00    +0.020 C 
BRANCH  25  30
ATOM     30  C   UNL     1      -3.596  -2.543  24.656  0.00  0.00    +0.121 C 
BRANCH  30  31
ATOM      4  O   UNL     1      -1.324  -3.019  23.925  0.00  0.00    -0.251 OA
ATOM     31  C   UNL     1      -2.089  -2.428  24.674  0.00  0.00    +0.305 C 
BRANCH  31   3
ATOM      3  O   UNL     1      -1.668  -1.570  25.639  0.00  0.00    -0.481 OA
ATOM     34  H   UNL     1      -2.374  -0.944  25.905  0.00  0.00    +0.295 HD
ENDBRANCH  31   3
ENDBRANCH  30  31
ENDBRANCH  25  30
ENDBRANCH  24  25
ENDBRANCH  21  24
ENDBRANCH  15   5
ENDBRANCH   9  15
BRANCH  11  16
ATOM     16  C   UNL     1      -0.864   0.587  23.505  0.00  0.00    +0.082 C 
BRANCH  16  20
ATOM      1 CL   UNL     1       6.739   0.432  23.029  0.00  0.00    -0.083 Cl
ATOM      6  N   UNL     1       1.562   1.108  23.191  0.00  0.00    -0.342 N 
ATOM      7  N   UNL     1       1.090  -0.972  23.814  0.00  0.00    -0.232 NA
ATOM     20  C   UNL     1       0.589   0.206  23.515  0.00  0.00    +0.109 A 
ATOM     22  C   UNL     1       2.773   0.472  23.289  0.00  0.00    +0.068 A 
ATOM     23  C   UNL     1       2.451  -0.825  23.679  0.00  0.00    +0.089 A 
ATOM     26  C   UNL     1       4.081   0.907  23.077  0.00  0.00    +0.047 A 
ATOM     27  C   UNL     1       3.484  -1.758  23.873  0.00  0.00    +0.031 A 
ATOM     28  C   UNL     1       5.097  -0.035  23.274  0.00  0.00    +0.043 A 
ATOM     29  C   UNL     1       4.806  -1.344  23.665  0.00  0.00    +0.022 A 
ATOM     33  H   UNL     1       1.417   2.074  22.928  0.00  0.00    +0.167 HD
ENDBRANCH  16  20
ENDBRANCH  11  16
TORSDOF 10
ENDMDL
MODEL 9
REMARK VINA RESULT:      -0.3      1.585      2.359
REMARK  Name = 75536177
REMARK  13 active torsions:
REMARK  status: ('A' for Active; 'I' for Inactive)
REMARK    1  A    between atoms: O_3  and  C_31
REMARK    2  A    between atoms: N_5  and  C_15
REMARK    3  A    between atoms: C_8  and  C_12
REMARK    4  A    between atoms: C_9  and  C_15
REMARK    5  A    between atoms: C_11  and  C_16
REMARK    6  A    between atoms: C_12  and  C_17
REMARK    7  A    between atoms: C_12  and  C_18
REMARK    8  A    between atoms: C_13  and  C_19
REMARK    9  A    between atoms: C_16  and  C_20
REMARK   10  A    between atoms: C_21  and  C_24
REMARK   11  A    between atoms: C_24  and  C_25
REMARK   12  A    between atoms: C_25  and  C_30
REMARK   13  A    between atoms: C_30  and  C_31
REMARK                            x       y       z     vdW  Elec       q    Type
REMARK                         _______ _______ _______ _____ _____    ______ ____
ROOT
ATOM      8  C   UNL     1      -1.717   4.082  24.702  0.00  0.00    +0.000 C 
ATOM      9  C   UNL     1      -1.777   3.539  26.153  0.00  0.00    +0.032 C 
ATOM     10  C   UNL     1      -3.028   4.796  24.342  0.00  0.00    +0.012 C 
ATOM     11  C   UNL     1      -4.250   3.866  24.465  0.00  0.00    +0.022 C 
ATOM     13  C   UNL     1      -4.238   3.089  25.765  0.00  0.00    -0.073 C 
ATOM     14  C   UNL     1      -3.127   2.965  26.512  0.00  0.00    -0.022 C 
ATOM     19  C   UNL     1      -5.545   2.495  26.212  0.00  0.00    +0.039 C 
ENDROOT
BRANCH   8  12
ATOM     12  C   UNL     1      -0.535   5.036  24.501  0.00  0.00    -0.013 C 
ATOM     17  C   UNL     1       0.000   4.926  23.076  0.00  0.00    +0.007 C 
ATOM     18  C   UNL     1      -0.948   6.469  24.816  0.00  0.00    +0.007 C 
ENDBRANCH   8  12
BRANCH   9  15
ATOM     15  C   UNL     1      -0.692   2.484  26.394  0.00  0.00    +0.112 C 
BRANCH  15   5
ATOM      2  O   UNL     1       0.130   0.264  24.769  0.00  0.00    -0.276 OA
ATOM      5  N   UNL     1       0.281   2.508  25.347  0.00  0.00    -0.315 N 
ATOM     21  C   UNL     1       0.622   1.377  24.604  0.00  0.00    +0.213 C 
ATOM     32  H   UNL     1       0.660   3.404  25.055  0.00  0.00    +0.149 HD
BRANCH  21  24
ATOM     24  C   UNL     1       1.700   1.670  23.575  0.00  0.00    +0.096 C 
BRANCH  24  25
ATOM     25  C   UNL     1       2.247   0.420  22.886  0.00  0.00    +0.020 C 
BRANCH  25  30
ATOM     30  C   UNL     1       3.720   0.566  22.499  0.00  0.00    +0.121 C 
BRANCH  30  31
ATOM      4  O   UNL     1       5.527   0.653  24.127  0.00  0.00    -0.251 OA
ATOM     31  C   UNL     1       4.640   0.024  23.569  0.00  0.00    +0.305 C 
BRANCH  31   3
ATOM      3  O   UNL     1       4.361  -1.276  23.850  0.00  0.00    -0.481 OA
ATOM     34  H   UNL     1       3.654  -1.631  23.272  0.00  0.00    +0.295 HD
ENDBRANCH  31   3
ENDBRANCH  30  31
ENDBRANCH  25  30
ENDBRANCH  24  25
ENDBRANCH  21  24
ENDBRANCH  15   5
ENDBRANCH   9  15
BRANCH  11  16
ATOM     16  C   UNL     1      -4.349   2.921  23.262  0.00  0.00    +0.082 C 
BRANCH  16  20
ATOM      1 CL   UNL     1      -0.736  -3.567  24.963  0.00  0.00    -0.083 Cl
ATOM      6  N   UNL     1      -2.675   1.122  23.723  0.00  0.00    -0.342 N 
ATOM      7  N   UNL     1      -4.808   0.533  23.915  0.00  0.00    -0.232 NA
ATOM     20  C   UNL     1      -3.980   1.515  23.637  0.00  0.00    +0.109 A 
ATOM     22  C   UNL     1      -2.658  -0.202  24.081  0.00  0.00    +0.068 A 
ATOM     23  C   UNL     1      -4.002  -0.546  24.194  0.00  0.00    +0.089 A 
ATOM     26  C   UNL     1      -1.615  -1.099  24.309  0.00  0.00    +0.047 A 
ATOM     27  C   UNL     1      -4.345  -1.860  24.555  0.00  0.00    +0.031 A 
ATOM     28  C   UNL     1      -1.973  -2.403  24.667  0.00  0.00    +0.043 A 
ATOM     29  C   UNL     1      -3.313  -2.780  24.788  0.00  0.00    +0.022 A 
ATOM     33  H   UNL     1      -1.863   1.702  23.555  0.00  0.00    +0.167 HD
ENDBRANCH  16  20
ENDBRANCH  11  16
TORSDOF 10
ENDMDL
MODEL 10
REMARK VINA RESULT:       0.3      3.549      7.506
REMARK  Name = 75536177
REMARK  13 active torsions:
REMARK  status: ('A' for Active; 'I' for Inactive)
REMARK    1  A    between atoms: O_3  and  C_31
REMARK    2  A    between atoms: N_5  and  C_15
REMARK    3  A    between atoms: C_8  and  C_12
REMARK    4  A    between atoms: C_9  and  C_15
REMARK    5  A    between atoms: C_11  and  C_16
REMARK    6  A    between atoms: C_12  and  C_17
REMARK    7  A    between atoms: C_12  and  C_18
REMARK    8  A    between atoms: C_13  and  C_19
REMARK    9  A    between atoms: C_16  and  C_20
REMARK   10  A    between atoms: C_21  and  C_24
REMARK   11  A    between atoms: C_24  and  C_25
REMARK   12  A    between atoms: C_25  and  C_30
REMARK   13  A    between atoms: C_30  and  C_31
REMARK                            x       y       z     vdW  Elec       q    Type
REMARK                         _______ _______ _______ _____ _____    ______ ____
ROOT
ATOM      8  C   UNL     1      -2.592  -1.085  24.423  0.00  0.00    +0.000 C 
ATOM      9  C   UNL     1      -3.438   0.018  25.106  0.00  0.00    +0.032 C 
ATOM     10  C   UNL     1      -1.208  -1.185  25.083  0.00  0.00    +0.012 C 
ATOM     11  C   UNL     1      -0.430   0.142  25.008  0.00  0.00    +0.022 C 
ATOM     13  C   UNL     1      -1.290   1.323  25.413  0.00  0.00    -0.073 C 
ATOM     14  C   UNL     1      -2.631   1.244  25.464  0.00  0.00    -0.022 C 
ATOM     19  C   UNL     1      -0.569   2.583  25.804  0.00  0.00    +0.039 C 
ENDROOT
BRANCH   8  12
ATOM     12  C   UNL     1      -3.289  -2.449  24.473  0.00  0.00    -0.013 C 
ATOM     17  C   UNL     1      -4.473  -2.477  23.511  0.00  0.00    +0.007 C 
ATOM     18  C   UNL     1      -2.301  -3.564  24.148  0.00  0.00    +0.007 C 
ENDBRANCH   8  12
BRANCH   9  15
ATOM     15  C   UNL     1      -4.626   0.428  24.227  0.00  0.00    +0.112 C 
BRANCH  15   5
ATOM      2  O   UNL     1      -3.021   2.108  22.542  0.00  0.00    -0.276 OA
ATOM      5  N   UNL     1      -4.708   1.850  24.116  0.00  0.00    -0.315 N 
ATOM     21  C   UNL     1      -3.885   2.592  23.268  0.00  0.00    +0.213 C 
ATOM     32  H   UNL     1      -5.468   2.333  24.587  0.00  0.00    +0.149 HD
BRANCH  21  24
ATOM     24  C   UNL     1      -4.159   4.083  23.362  0.00  0.00    +0.096 C 
BRANCH  24  25
ATOM     25  C   UNL     1      -3.646   4.722  24.651  0.00  0.00    +0.020 C 
BRANCH  25  30
ATOM     30  C   UNL     1      -3.969   3.879  25.887  0.00  0.00    +0.121 C 
BRANCH  30  31
ATOM      4  O   UNL     1      -5.992   2.656  26.467  0.00  0.00    -0.251 OA
ATOM     31  C   UNL     1      -5.458   3.676  26.056  0.00  0.00    +0.305 C 
BRANCH  31   3
ATOM      3  O   UNL     1      -6.154   4.784  25.693  0.00  0.00    -0.481 OA
ATOM     34  H   UNL     1      -6.441   5.307  26.471  0.00  0.00    +0.295 HD
ENDBRANCH  31   3
ENDBRANCH  30  31
ENDBRANCH  25  30
ENDBRANCH  24  25
ENDBRANCH  21  24
ENDBRANCH  15   5
ENDBRANCH   9  15
BRANCH  11  16
ATOM     16  C   UNL     1       0.169   0.353  23.613  0.00  0.00    +0.082 C 
BRANCH  16  20
ATOM      1 CL   UNL     1       7.771   0.325  23.098  0.00  0.00    -0.083 Cl
ATOM      6  N   UNL     1       2.588   0.928  23.341  0.00  0.00    -0.342 N 
ATOM      7  N   UNL     1       2.141  -1.207  23.766  0.00  0.00    -0.232 NA
ATOM     20  C   UNL     1       1.626  -0.012  23.581  0.00  0.00    +0.109 A 
ATOM     22  C   UNL     1       3.806   0.298  23.374  0.00  0.00    +0.068 A 
ATOM     23  C   UNL     1       3.500  -1.033  23.640  0.00  0.00    +0.089 A 
ATOM     26  C   UNL     1       5.109   0.765  23.199  0.00  0.00    +0.047 A 
ATOM     27  C   UNL     1       4.543  -1.969  23.742  0.00  0.00    +0.031 A 
ATOM     28  C   UNL     1       6.135  -0.180  23.303  0.00  0.00    +0.043 A 
ATOM     29  C   UNL     1       5.860  -1.524  23.569  0.00  0.00    +0.022 A 
ATOM     33  H   UNL     1       2.433   1.913  23.171  0.00  0.00    +0.167 HD
ENDBRANCH  16  20
ENDBRANCH  11  16
TORSDOF 10
ENDMDL
