MODEL 1
REMARK VINA RESULT:      -2.4      0.000      0.000
REMARK  Name = 51137852
REMARK  3 active torsions:
REMARK  status: ('A' for Active; 'I' for Inactive)
REMARK    1  A    between atoms: C_8  and  C_12
REMARK    2  A    between atoms: C_13  and  C_14
REMARK    3  A    between atoms: C_15  and  C_18
REMARK                            x       y       z     vdW  Elec       q    Type
REMARK                         _______ _______ _______ _____ _____    ______ ____
ROOT
ATOM      2  O   UNL     1      16.555  -5.761  25.797  0.00  0.00    -0.270 OA
ATOM      3  N   UNL     1      16.972  -7.265  27.518  0.00  0.00    -0.297 N 
ATOM      8  C   UNL     1      16.856  -9.091  29.040  0.00  0.00    +0.095 C 
ATOM      9  C   UNL     1      17.184  -9.612  27.632  0.00  0.00    +0.033 C 
ATOM     10  C   UNL     1      17.219  -7.604  28.920  0.00  0.00    +0.121 C 
ATOM     11  C   UNL     1      16.786  -8.463  26.715  0.00  0.00    +0.109 C 
ATOM     13  C   UNL     1      16.836  -5.999  26.971  0.00  0.00    +0.248 C 
ENDROOT
BRANCH  13  14
ATOM      6  N   UNL     1      17.183  -3.987  30.120  0.00  0.00    -0.263 NA
ATOM     14  C   UNL     1      17.028  -4.848  27.866  0.00  0.00    +0.055 A 
ATOM     16  C   UNL     1      17.228  -3.569  27.357  0.00  0.00    +0.016 A 
ATOM     17  C   UNL     1      17.013  -5.002  29.243  0.00  0.00    +0.123 A 
ATOM     19  C   UNL     1      17.405  -2.499  28.228  0.00  0.00    +0.020 A 
ATOM     22  C   UNL     1      17.374  -2.759  29.588  0.00  0.00    +0.111 A 
ENDBRANCH  13  14
BRANCH   8  12
ATOM      1  O   UNL     1      14.766  -8.471  30.169  0.00  0.00    -0.420 OA
ATOM      4  N   UNL     1      14.705 -10.476  29.180  0.00  0.00    -0.112 NA
ATOM      5  N   UNL     1      13.475 -10.255  29.771  0.00  0.00    -0.107 NA
ATOM     12  C   UNL     1      15.425  -9.410  29.437  0.00  0.00    +0.222 A 
ATOM     15  C   UNL     1      13.556  -9.073  30.337  0.00  0.00    +0.248 A 
BRANCH  15  18
ATOM      7  N   UNL     1      10.693  -6.889  32.556  0.00  0.00    -0.263 NA
ATOM     18  C   UNL     1      12.586  -8.333  31.090  0.00  0.00    +0.041 A 
ATOM     20  C   UNL     1      12.777  -6.977  31.333  0.00  0.00    +0.033 A 
ATOM     21  C   UNL     1      11.449  -8.967  31.578  0.00  0.00    +0.033 A 
ATOM     23  C   UNL     1      11.811  -6.307  32.065  0.00  0.00    +0.111 A 
ATOM     24  C   UNL     1      10.541  -8.208  32.298  0.00  0.00    +0.111 A 
ENDBRANCH  15  18
ENDBRANCH   8  12
TORSDOF 3
ENDMDL
MODEL 2
REMARK VINA RESULT:      -2.0      3.200      4.017
REMARK  Name = 51137852
REMARK  3 active torsions:
REMARK  status: ('A' for Active; 'I' for Inactive)
REMARK    1  A    between atoms: C_8  and  C_12
REMARK    2  A    between atoms: C_13  and  C_14
REMARK    3  A    between atoms: C_15  and  C_18
REMARK                            x       y       z     vdW  Elec       q    Type
REMARK                         _______ _______ _______ _____ _____    ______ ____
ROOT
ATOM      2  O   UNL     1      15.810  -4.420  22.476  0.00  0.00    -0.270 OA
ATOM      3  N   UNL     1      16.814  -5.210  24.417  0.00  0.00    -0.297 N 
ATOM      8  C   UNL     1      17.310  -6.408  26.411  0.00  0.00    +0.095 C 
ATOM      9  C   UNL     1      17.405  -7.354  25.204  0.00  0.00    +0.033 C 
ATOM     10  C   UNL     1      17.405  -5.030  25.743  0.00  0.00    +0.121 C 
ATOM     11  C   UNL     1      16.646  -6.620  24.105  0.00  0.00    +0.109 C 
ATOM     13  C   UNL     1      16.369  -4.221  23.553  0.00  0.00    +0.248 C 
ENDROOT
BRANCH  13  14
ATOM      6  N   UNL     1      17.165  -0.558  23.357  0.00  0.00    -0.263 NA
ATOM     14  C   UNL     1      16.568  -2.822  23.962  0.00  0.00    +0.055 A 
ATOM     16  C   UNL     1      16.367  -2.424  25.279  0.00  0.00    +0.016 A 
ATOM     17  C   UNL     1      16.964  -1.858  23.047  0.00  0.00    +0.123 A 
ATOM     19  C   UNL     1      16.564  -1.094  25.636  0.00  0.00    +0.020 A 
ATOM     22  C   UNL     1      16.959  -0.208  24.646  0.00  0.00    +0.111 A 
ENDBRANCH  13  14
BRANCH   8  12
ATOM      1  O   UNL     1      15.978  -6.048  28.441  0.00  0.00    -0.420 OA
ATOM      4  N   UNL     1      15.032  -7.441  26.970  0.00  0.00    -0.112 NA
ATOM      5  N   UNL     1      14.184  -7.328  28.056  0.00  0.00    -0.107 NA
ATOM     12  C   UNL     1      16.065  -6.677  27.238  0.00  0.00    +0.222 A 
ATOM     15  C   UNL     1      14.776  -6.506  28.889  0.00  0.00    +0.248 A 
BRANCH  15  18
ATOM      7  N   UNL     1      13.550  -5.084  32.680  0.00  0.00    -0.263 NA
ATOM     18  C   UNL     1      14.361  -6.024  30.175  0.00  0.00    +0.041 A 
ATOM     20  C   UNL     1      15.109  -5.053  30.832  0.00  0.00    +0.033 A 
ATOM     21  C   UNL     1      13.209  -6.525  30.769  0.00  0.00    +0.033 A 
ATOM     23  C   UNL     1      14.665  -4.621  32.071  0.00  0.00    +0.111 A 
ATOM     24  C   UNL     1      12.848  -6.026  32.011  0.00  0.00    +0.111 A 
ENDBRANCH  15  18
ENDBRANCH   8  12
TORSDOF 3
ENDMDL
MODEL 3
REMARK VINA RESULT:      -1.2     16.780     18.634
REMARK  Name = 51137852
REMARK  3 active torsions:
REMARK  status: ('A' for Active; 'I' for Inactive)
REMARK    1  A    between atoms: C_8  and  C_12
REMARK    2  A    between atoms: C_13  and  C_14
REMARK    3  A    between atoms: C_15  and  C_18
REMARK                            x       y       z     vdW  Elec       q    Type
REMARK                         _______ _______ _______ _____ _____    ______ ____
ROOT
ATOM      2  O   UNL     1       1.758  -0.326  21.087  0.00  0.00    -0.270 OA
ATOM      3  N   UNL     1       0.817  -0.706  23.177  0.00  0.00    -0.297 N 
ATOM      8  C   UNL     1      -0.591  -0.664  25.095  0.00  0.00    +0.095 C 
ATOM      9  C   UNL     1      -1.337  -1.318  23.921  0.00  0.00    +0.033 C 
ATOM     10  C   UNL     1       0.871  -0.766  24.638  0.00  0.00    +0.121 C 
ATOM     11  C   UNL     1      -0.544  -0.882  22.696  0.00  0.00    +0.109 C 
ATOM     13  C   UNL     1       1.863  -0.439  22.307  0.00  0.00    +0.248 C 
ENDROOT
BRANCH  13  14
ATOM      6  N   UNL     1       5.078   1.193  23.349  0.00  0.00    -0.263 NA
ATOM     14  C   UNL     1       3.202  -0.261  22.889  0.00  0.00    +0.055 A 
ATOM     16  C   UNL     1       3.860  -1.317  23.510  0.00  0.00    +0.016 A 
ATOM     17  C   UNL     1       3.849   0.963  22.835  0.00  0.00    +0.123 A 
ATOM     19  C   UNL     1       5.127  -1.119  24.051  0.00  0.00    +0.020 A 
ATOM     22  C   UNL     1       5.687   0.143  23.945  0.00  0.00    +0.111 A 
ENDBRANCH  13  14
BRANCH   8  12
ATOM      1  O   UNL     1      -2.458   0.922  25.263  0.00  0.00    -0.420 OA
ATOM      4  N   UNL     1      -0.464   1.813  25.743  0.00  0.00    -0.112 NA
ATOM      5  N   UNL     1      -1.417   2.805  25.875  0.00  0.00    -0.107 NA
ATOM     12  C   UNL     1      -1.116   0.732  25.384  0.00  0.00    +0.222 A 
ATOM     15  C   UNL     1      -2.566   2.240  25.585  0.00  0.00    +0.248 A 
BRANCH  15  18
ATOM      7  N   UNL     1      -6.476   3.852  25.504  0.00  0.00    -0.263 NA
ATOM     18  C   UNL     1      -3.892   2.787  25.557  0.00  0.00    +0.041 A 
ATOM     20  C   UNL     1      -4.990   1.946  25.414  0.00  0.00    +0.033 A 
ATOM     21  C   UNL     1      -4.083   4.158  25.674  0.00  0.00    +0.033 A 
ATOM     23  C   UNL     1      -6.249   2.524  25.393  0.00  0.00    +0.111 A 
ATOM     24  C   UNL     1      -5.384   4.637  25.642  0.00  0.00    +0.111 A 
ENDBRANCH  15  18
ENDBRANCH   8  12
TORSDOF 3
ENDMDL
MODEL 4
REMARK VINA RESULT:      -0.4     16.102     18.346
REMARK  Name = 51137852
REMARK  3 active torsions:
REMARK  status: ('A' for Active; 'I' for Inactive)
REMARK    1  A    between atoms: C_8  and  C_12
REMARK    2  A    between atoms: C_13  and  C_14
REMARK    3  A    between atoms: C_15  and  C_18
REMARK                            x       y       z     vdW  Elec       q    Type
REMARK                         _______ _______ _______ _____ _____    ______ ____
ROOT
ATOM      2  O   UNL     1      -0.431   1.973  27.432  0.00  0.00    -0.270 OA
ATOM      3  N   UNL     1      -1.103   0.995  25.435  0.00  0.00    -0.297 N 
ATOM      8  C   UNL     1      -1.201  -0.296  23.439  0.00  0.00    +0.095 C 
ATOM      9  C   UNL     1      -1.237  -1.229  24.660  0.00  0.00    +0.033 C 
ATOM     10  C   UNL     1      -1.595   1.052  24.058  0.00  0.00    +0.121 C 
ATOM     11  C   UNL     1      -0.721  -0.360  25.799  0.00  0.00    +0.109 C 
ATOM     13  C   UNL     1      -0.918   2.057  26.306  0.00  0.00    +0.248 C 
ENDROOT
BRANCH  13  14
ATOM      6  N   UNL     1      -3.016   5.114  25.721  0.00  0.00    -0.263 NA
ATOM     14  C   UNL     1      -1.321   3.394  25.843  0.00  0.00    +0.055 A 
ATOM     16  C   UNL     1      -0.447   4.195  25.115  0.00  0.00    +0.016 A 
ATOM     17  C   UNL     1      -2.583   3.896  26.117  0.00  0.00    +0.123 A 
ATOM     19  C   UNL     1      -0.856   5.454  24.690  0.00  0.00    +0.020 A 
ATOM     22  C   UNL     1      -2.139   5.864  25.016  0.00  0.00    +0.111 A 
ENDBRANCH  13  14
BRANCH   8  12
ATOM      1  O   UNL     1       1.253  -0.277  23.512  0.00  0.00    -0.420 OA
ATOM      4  N   UNL     1       0.407  -0.464  21.450  0.00  0.00    -0.112 NA
ATOM      5  N   UNL     1       1.786  -0.466  21.348  0.00  0.00    -0.107 NA
ATOM     12  C   UNL     1       0.142  -0.352  22.730  0.00  0.00    +0.222 A 
ATOM     15  C   UNL     1       2.237  -0.355  22.575  0.00  0.00    +0.248 A 
BRANCH  15  18
ATOM      7  N   UNL     1       6.202  -0.205  24.041  0.00  0.00    -0.263 NA
ATOM     18  C   UNL     1       3.582  -0.304  23.072  0.00  0.00    +0.041 A 
ATOM     20  C   UNL     1       4.340   0.851  22.918  0.00  0.00    +0.033 A 
ATOM     21  C   UNL     1       4.132  -1.410  23.710  0.00  0.00    +0.033 A 
ATOM     23  C   UNL     1       5.633   0.849  23.415  0.00  0.00    +0.111 A 
ATOM     24  C   UNL     1       5.435  -1.311  24.173  0.00  0.00    +0.111 A 
ENDBRANCH  15  18
ENDBRANCH   8  12
TORSDOF 3
ENDMDL
MODEL 5
REMARK VINA RESULT:       0.4     17.572     19.805
REMARK  Name = 51137852
REMARK  3 active torsions:
REMARK  status: ('A' for Active; 'I' for Inactive)
REMARK    1  A    between atoms: C_8  and  C_12
REMARK    2  A    between atoms: C_13  and  C_14
REMARK    3  A    between atoms: C_15  and  C_18
REMARK                            x       y       z     vdW  Elec       q    Type
REMARK                         _______ _______ _______ _____ _____    ______ ____
ROOT
ATOM      2  O   UNL     1       1.072   2.352  26.210  0.00  0.00    -0.270 OA
ATOM      3  N   UNL     1      -0.628   2.903  24.725  0.00  0.00    -0.297 N 
ATOM      8  C   UNL     1      -2.746   3.261  23.703  0.00  0.00    +0.095 C 
ATOM      9  C   UNL     1      -2.563   4.246  24.868  0.00  0.00    +0.033 C 
ATOM     10  C   UNL     1      -1.302   2.821  23.428  0.00  0.00    +0.121 C 
ATOM     11  C   UNL     1      -1.435   3.633  25.689  0.00  0.00    +0.109 C 
ATOM     13  C   UNL     1       0.576   2.318  25.085  0.00  0.00    +0.248 C 
ENDROOT
BRANCH  13  14
ATOM      6  N   UNL     1       1.383  -0.231  22.451  0.00  0.00    -0.263 NA
ATOM     14  C   UNL     1       1.314   1.587  24.044  0.00  0.00    +0.055 A 
ATOM     16  C   UNL     1       2.593   1.979  23.661  0.00  0.00    +0.016 A 
ATOM     17  C   UNL     1       0.759   0.484  23.414  0.00  0.00    +0.123 A 
ATOM     19  C   UNL     1       3.267   1.267  22.674  0.00  0.00    +0.020 A 
ATOM     22  C   UNL     1       2.624   0.179  22.106  0.00  0.00    +0.111 A 
ENDBRANCH  13  14
BRANCH   8  12
ATOM      1  O   UNL     1      -3.267   0.886  24.043  0.00  0.00    -0.420 OA
ATOM      4  N   UNL     1      -5.010   2.252  24.358  0.00  0.00    -0.112 NA
ATOM      5  N   UNL     1      -5.437   0.956  24.580  0.00  0.00    -0.107 NA
ATOM     12  C   UNL     1      -3.738   2.163  24.048  0.00  0.00    +0.222 A 
ATOM     15  C   UNL     1      -4.388   0.193  24.384  0.00  0.00    +0.248 A 
BRANCH  15  18
ATOM      7  N   UNL     1      -3.957  -4.007  24.648  0.00  0.00    -0.263 NA
ATOM     18  C   UNL     1      -4.242  -1.231  24.473  0.00  0.00    +0.041 A 
ATOM     20  C   UNL     1      -4.822  -2.054  23.514  0.00  0.00    +0.033 A 
ATOM     21  C   UNL     1      -3.520  -1.794  25.519  0.00  0.00    +0.033 A 
ATOM     23  C   UNL     1      -4.652  -3.422  23.646  0.00  0.00    +0.111 A 
ATOM     24  C   UNL     1      -3.407  -3.175  25.561  0.00  0.00    +0.111 A 
ENDBRANCH  15  18
ENDBRANCH   8  12
TORSDOF 3
ENDMDL
