MODEL 1
REMARK VINA RESULT:      -4.6      0.000      0.000
REMARK  Name = 26744604
REMARK  7 active torsions:
REMARK  status: ('A' for Active; 'I' for Inactive)
REMARK    1  A    between atoms: O_3  and  C_10
REMARK    2  A    between atoms: N_5  and  C_12
REMARK    3  A    between atoms: C_8  and  C_13
REMARK    4  A    between atoms: C_12  and  C_14
REMARK    5  A    between atoms: C_12  and  C_15
REMARK    6  A    between atoms: C_16  and  C_17
REMARK    7  A    between atoms: C_17  and  C_18
REMARK                            x       y       z     vdW  Elec       q    Type
REMARK                         _______ _______ _______ _____ _____    ______ ____
ROOT
ATOM      4  O   UNL     1      -3.084 -10.440  13.162  0.00  0.00    -0.336 OA
ATOM      6  N   UNL     1      -5.181 -10.781  13.871  0.00  0.00    -0.194 NA
ATOM      7  N   UNL     1      -3.034 -10.389  14.560  0.00  0.00    -0.061 NA
ATOM     13  C   UNL     1      -4.383 -10.673  12.839  0.00  0.00    +0.245 A 
ATOM     16  C   UNL     1      -4.309 -10.600  14.905  0.00  0.00    +0.176 A 
ENDROOT
BRANCH  13   8
ATOM      5  N   UNL     1      -5.913 -10.073  10.890  0.00  0.00    -0.286 NA
ATOM      8  C   UNL     1      -4.706 -10.776  11.354  0.00  0.00    +0.149 C 
ATOM      9  C   UNL     1      -3.637 -10.189  10.421  0.00  0.00    +0.061 C 
ATOM     10  C   UNL     1      -4.139  -8.792  10.046  0.00  0.00    +0.130 C 
ATOM     11  C   UNL     1      -5.548  -8.685  10.619  0.00  0.00    +0.116 C 
BRANCH   5  12
ATOM     12  C   UNL     1      -7.105 -10.216  11.706  0.00  0.00    +0.051 C 
ATOM     14  C   UNL     1      -8.266 -10.731  10.861  0.00  0.00    +0.024 C 
ATOM     15  C   UNL     1      -7.445  -8.873  12.346  0.00  0.00    +0.024 C 
ENDBRANCH   5  12
BRANCH  10   3
ATOM      3  O   UNL     1      -4.160  -8.664   8.630  0.00  0.00    -0.390 OA
ATOM     24  H   UNL     1      -5.046  -8.347   8.380  0.00  0.00    +0.210 HD
ENDBRANCH  10   3
ENDBRANCH  13   8
BRANCH  16  17
ATOM     17  C   UNL     1      -4.739 -10.635  16.307  0.00  0.00    +0.116 C 
BRANCH  17  18
ATOM      1 CL   UNL     1      -5.809 -10.500  19.210  0.00  0.00    -0.083 Cl
ATOM      2  F   UNL     1     -10.314  -9.974  16.977  0.00  0.00    -0.205 F 
ATOM     18  C   UNL     1      -6.239 -10.457  16.520  0.00  0.00    -0.021 A 
ATOM     19  C   UNL     1      -6.795 -10.388  17.798  0.00  0.00    +0.047 A 
ATOM     20  C   UNL     1      -7.061 -10.363  15.397  0.00  0.00    +0.008 A 
ATOM     21  C   UNL     1      -8.171 -10.224  17.953  0.00  0.00    +0.058 A 
ATOM     22  C   UNL     1      -8.438 -10.201  15.551  0.00  0.00    +0.039 A 
ATOM     23  C   UNL     1      -8.992 -10.131  16.829  0.00  0.00    +0.125 A 
ENDBRANCH  17  18
ENDBRANCH  16  17
TORSDOF 5
ENDMDL
MODEL 2
REMARK VINA RESULT:      -3.9     25.179     26.727
REMARK  Name = 26744604
REMARK  7 active torsions:
REMARK  status: ('A' for Active; 'I' for Inactive)
REMARK    1  A    between atoms: O_3  and  C_10
REMARK    2  A    between atoms: N_5  and  C_12
REMARK    3  A    between atoms: C_8  and  C_13
REMARK    4  A    between atoms: C_12  and  C_14
REMARK    5  A    between atoms: C_12  and  C_15
REMARK    6  A    between atoms: C_16  and  C_17
REMARK    7  A    between atoms: C_17  and  C_18
REMARK                            x       y       z     vdW  Elec       q    Type
REMARK                         _______ _______ _______ _____ _____    ______ ____
ROOT
ATOM      4  O   UNL     1      13.556 -10.094  29.965  0.00  0.00    -0.336 OA
ATOM      6  N   UNL     1      15.407  -8.970  30.533  0.00  0.00    -0.194 NA
ATOM      7  N   UNL     1      14.463 -10.283  28.915  0.00  0.00    -0.061 NA
ATOM     13  C   UNL     1      14.190  -9.310  30.875  0.00  0.00    +0.245 A 
ATOM     16  C   UNL     1      15.530  -9.590  29.324  0.00  0.00    +0.176 A 
ENDROOT
BRANCH  13   8
ATOM      5  N   UNL     1      12.875  -7.585  32.214  0.00  0.00    -0.286 NA
ATOM      8  C   UNL     1      13.405  -8.955  32.131  0.00  0.00    +0.149 C 
ATOM      9  C   UNL     1      12.132  -9.786  32.349  0.00  0.00    +0.061 C 
ATOM     10  C   UNL     1      10.979  -8.915  31.841  0.00  0.00    +0.130 C 
ATOM     11  C   UNL     1      11.592  -7.556  31.518  0.00  0.00    +0.116 C 
BRANCH   5  12
ATOM     12  C   UNL     1      13.775  -6.514  31.828  0.00  0.00    +0.051 C 
ATOM     14  C   UNL     1      13.696  -5.369  32.834  0.00  0.00    +0.024 C 
ATOM     15  C   UNL     1      13.420  -6.035  30.424  0.00  0.00    +0.024 C 
ENDBRANCH   5  12
BRANCH  10   3
ATOM      3  O   UNL     1       9.997  -8.793  32.862  0.00  0.00    -0.390 OA
ATOM     24  H   UNL     1      10.419  -9.041  33.703  0.00  0.00    +0.210 HD
ENDBRANCH  10   3
ENDBRANCH  13   8
BRANCH  16  17
ATOM     17  C   UNL     1      16.756  -9.505  28.522  0.00  0.00    +0.116 C 
BRANCH  17  18
ATOM      1 CL   UNL     1      16.345 -10.167  25.524  0.00  0.00    -0.083 Cl
ATOM      2  F   UNL     1      16.877  -5.180  24.882  0.00  0.00    -0.205 F 
ATOM     18  C   UNL     1      16.783  -8.359  27.515  0.00  0.00    -0.021 A 
ATOM     19  C   UNL     1      16.606  -8.580  26.149  0.00  0.00    +0.047 A 
ATOM     20  C   UNL     1      16.993  -7.065  27.991  0.00  0.00    +0.008 A 
ATOM     21  C   UNL     1      16.637  -7.507  25.259  0.00  0.00    +0.058 A 
ATOM     22  C   UNL     1      17.025  -5.991  27.101  0.00  0.00    +0.039 A 
ATOM     23  C   UNL     1      16.847  -6.212  25.736  0.00  0.00    +0.125 A 
ENDBRANCH  17  18
ENDBRANCH  16  17
TORSDOF 5
ENDMDL
MODEL 3
REMARK VINA RESULT:      -3.8     24.834     26.383
REMARK  Name = 26744604
REMARK  7 active torsions:
REMARK  status: ('A' for Active; 'I' for Inactive)
REMARK    1  A    between atoms: O_3  and  C_10
REMARK    2  A    between atoms: N_5  and  C_12
REMARK    3  A    between atoms: C_8  and  C_13
REMARK    4  A    between atoms: C_12  and  C_14
REMARK    5  A    between atoms: C_12  and  C_15
REMARK    6  A    between atoms: C_16  and  C_17
REMARK    7  A    between atoms: C_17  and  C_18
REMARK                            x       y       z     vdW  Elec       q    Type
REMARK                         _______ _______ _______ _____ _____    ______ ____
ROOT
ATOM      4  O   UNL     1      12.836  -9.825  30.372  0.00  0.00    -0.336 OA
ATOM      6  N   UNL     1      14.561  -8.880  31.441  0.00  0.00    -0.194 NA
ATOM      7  N   UNL     1      13.931  -9.923  29.505  0.00  0.00    -0.061 NA
ATOM     13  C   UNL     1      13.292  -9.198  31.487  0.00  0.00    +0.245 A 
ATOM     16  C   UNL     1      14.911  -9.344  30.207  0.00  0.00    +0.176 A 
ENDROOT
BRANCH  13   8
ATOM      5  N   UNL     1      11.462  -7.748  32.510  0.00  0.00    -0.286 NA
ATOM      8  C   UNL     1      12.280  -8.968  32.601  0.00  0.00    +0.149 C 
ATOM      9  C   UNL     1      11.195 -10.050  32.717  0.00  0.00    +0.061 C 
ATOM     10  C   UNL     1       9.967  -9.482  32.000  0.00  0.00    +0.130 C 
ATOM     11  C   UNL     1      10.315  -8.038  31.655  0.00  0.00    +0.116 C 
BRANCH   5  12
ATOM     12  C   UNL     1      12.158  -6.523  32.162  0.00  0.00    +0.051 C 
ATOM     14  C   UNL     1      11.518  -5.332  32.870  0.00  0.00    +0.024 C 
ATOM     15  C   UNL     1      12.133  -6.339  30.648  0.00  0.00    +0.024 C 
ENDBRANCH   5  12
BRANCH  10   3
ATOM      3  O   UNL     1       8.847  -9.534  32.873  0.00  0.00    -0.390 OA
ATOM     24  H   UNL     1       8.175 -10.097  32.451  0.00  0.00    +0.210 HD
ENDBRANCH  10   3
ENDBRANCH  13   8
BRANCH  16  17
ATOM     17  C   UNL     1      16.274  -9.220  29.681  0.00  0.00    +0.116 C 
BRANCH  17  18
ATOM      1 CL   UNL     1      15.729  -6.182  29.419  0.00  0.00    -0.083 Cl
ATOM      2  F   UNL     1      16.663  -6.963  24.511  0.00  0.00    -0.205 F 
ATOM     18  C   UNL     1      16.371  -8.582  28.299  0.00  0.00    -0.021 A 
ATOM     19  C   UNL     1      16.139  -7.220  28.102  0.00  0.00    +0.047 A 
ATOM     20  C   UNL     1      16.701  -9.396  27.215  0.00  0.00    +0.008 A 
ATOM     21  C   UNL     1      16.238  -6.672  26.824  0.00  0.00    +0.058 A 
ATOM     22  C   UNL     1      16.799  -8.849  25.936  0.00  0.00    +0.039 A 
ATOM     23  C   UNL     1      16.568  -7.488  25.741  0.00  0.00    +0.125 A 
ENDBRANCH  17  18
ENDBRANCH  16  17
TORSDOF 5
ENDMDL
MODEL 4
REMARK VINA RESULT:      -3.7     15.025     16.799
REMARK  Name = 26744604
REMARK  7 active torsions:
REMARK  status: ('A' for Active; 'I' for Inactive)
REMARK    1  A    between atoms: O_3  and  C_10
REMARK    2  A    between atoms: N_5  and  C_12
REMARK    3  A    between atoms: C_8  and  C_13
REMARK    4  A    between atoms: C_12  and  C_14
REMARK    5  A    between atoms: C_12  and  C_15
REMARK    6  A    between atoms: C_16  and  C_17
REMARK    7  A    between atoms: C_17  and  C_18
REMARK                            x       y       z     vdW  Elec       q    Type
REMARK                         _______ _______ _______ _____ _____    ______ ____
ROOT
ATOM      4  O   UNL     1      -0.678   3.569  25.679  0.00  0.00    -0.336 OA
ATOM      6  N   UNL     1      -2.068   1.815  25.584  0.00  0.00    -0.194 NA
ATOM      7  N   UNL     1       0.080   2.452  26.050  0.00  0.00    -0.061 NA
ATOM     13  C   UNL     1      -1.930   3.107  25.423  0.00  0.00    +0.245 A 
ATOM     16  C   UNL     1      -0.808   1.456  25.969  0.00  0.00    +0.176 A 
ENDROOT
BRANCH  13   8
ATOM      5  N   UNL     1      -3.867   3.754  23.898  0.00  0.00    -0.286 NA
ATOM      8  C   UNL     1      -2.961   4.141  24.991  0.00  0.00    +0.149 C 
ATOM      9  C   UNL     1      -3.962   4.545  26.084  0.00  0.00    +0.061 C 
ATOM     10  C   UNL     1      -5.226   3.726  25.809  0.00  0.00    +0.130 C 
ATOM     11  C   UNL     1      -4.986   3.019  24.479  0.00  0.00    +0.116 C 
BRANCH   5  12
ATOM     12  C   UNL     1      -3.264   3.094  22.754  0.00  0.00    +0.051 C 
ATOM     14  C   UNL     1      -3.974   3.508  21.469  0.00  0.00    +0.024 C 
ATOM     15  C   UNL     1      -3.324   1.583  22.952  0.00  0.00    +0.024 C 
ENDBRANCH   5  12
BRANCH  10   3
ATOM      3  O   UNL     1      -6.343   4.602  25.718  0.00  0.00    -0.390 OA
ATOM     24  H   UNL     1      -6.089   5.442  26.139  0.00  0.00    +0.210 HD
ENDBRANCH  10   3
ENDBRANCH  13   8
BRANCH  16  17
ATOM     17  C   UNL     1      -0.450   0.067  26.274  0.00  0.00    +0.116 C 
BRANCH  17  18
ATOM      1 CL   UNL     1       0.303  -1.066  23.492  0.00  0.00    -0.083 Cl
ATOM      2  F   UNL     1      -3.904  -3.815  24.047  0.00  0.00    -0.205 F 
ATOM     18  C   UNL     1      -1.362  -0.982  25.647  0.00  0.00    -0.021 A 
ATOM     19  C   UNL     1      -1.089  -1.538  24.397  0.00  0.00    +0.047 A 
ATOM     20  C   UNL     1      -2.495  -1.383  26.356  0.00  0.00    +0.008 A 
ATOM     21  C   UNL     1      -1.947  -2.495  23.856  0.00  0.00    +0.058 A 
ATOM     22  C   UNL     1      -3.354  -2.340  25.815  0.00  0.00    +0.039 A 
ATOM     23  C   UNL     1      -3.079  -2.896  24.565  0.00  0.00    +0.125 A 
ENDBRANCH  17  18
ENDBRANCH  16  17
TORSDOF 5
ENDMDL
MODEL 5
REMARK VINA RESULT:      -3.7     15.839     17.572
REMARK  Name = 26744604
REMARK  7 active torsions:
REMARK  status: ('A' for Active; 'I' for Inactive)
REMARK    1  A    between atoms: O_3  and  C_10
REMARK    2  A    between atoms: N_5  and  C_12
REMARK    3  A    between atoms: C_8  and  C_13
REMARK    4  A    between atoms: C_12  and  C_14
REMARK    5  A    between atoms: C_12  and  C_15
REMARK    6  A    between atoms: C_16  and  C_17
REMARK    7  A    between atoms: C_17  and  C_18
REMARK                            x       y       z     vdW  Elec       q    Type
REMARK                         _______ _______ _______ _____ _____    ______ ____
ROOT
ATOM      4  O   UNL     1      -0.889  -0.847  24.907  0.00  0.00    -0.336 OA
ATOM      6  N   UNL     1      -0.315   0.921  23.657  0.00  0.00    -0.194 NA
ATOM      7  N   UNL     1       0.165  -1.274  24.090  0.00  0.00    -0.061 NA
ATOM     13  C   UNL     1      -1.109   0.455  24.588  0.00  0.00    +0.245 A 
ATOM     16  C   UNL     1       0.449  -0.176  23.383  0.00  0.00    +0.176 A 
ENDROOT
BRANCH  13   8
ATOM      5  N   UNL     1      -2.336   2.617  25.154  0.00  0.00    -0.286 NA
ATOM      8  C   UNL     1      -2.222   1.163  25.350  0.00  0.00    +0.149 C 
ATOM      9  C   UNL     1      -3.642   0.697  24.994  0.00  0.00    +0.061 C 
ATOM     10  C   UNL     1      -4.179   1.733  24.003  0.00  0.00    +0.130 C 
ATOM     11  C   UNL     1      -3.138   2.848  23.956  0.00  0.00    +0.116 C 
BRANCH   5  12
ATOM     12  C   UNL     1      -1.101   3.378  25.187  0.00  0.00    +0.051 C 
ATOM     14  C   UNL     1      -0.265   2.978  26.400  0.00  0.00    +0.024 C 
ATOM     15  C   UNL     1      -1.424   4.868  25.211  0.00  0.00    +0.024 C 
ENDBRANCH   5  12
BRANCH  10   3
ATOM      3  O   UNL     1      -5.426   2.230  24.471  0.00  0.00    -0.390 OA
ATOM     24  H   UNL     1      -5.741   2.884  23.823  0.00  0.00    +0.210 HD
ENDBRANCH  10   3
ENDBRANCH  13   8
BRANCH  16  17
ATOM     17  C   UNL     1       1.516  -0.154  22.376  0.00  0.00    +0.116 C 
BRANCH  17  18
ATOM      1 CL   UNL     1       3.281   2.391  22.427  0.00  0.00    -0.083 Cl
ATOM      2  F   UNL     1       6.735  -0.673  24.489  0.00  0.00    -0.205 F 
ATOM     18  C   UNL     1       2.929  -0.262  22.940  0.00  0.00    -0.021 A 
ATOM     19  C   UNL     1       3.783   0.841  22.996  0.00  0.00    +0.047 A 
ATOM     20  C   UNL     1       3.362  -1.503  23.408  0.00  0.00    +0.008 A 
ATOM     21  C   UNL     1       5.068   0.703  23.519  0.00  0.00    +0.058 A 
ATOM     22  C   UNL     1       4.648  -1.642  23.931  0.00  0.00    +0.039 A 
ATOM     23  C   UNL     1       5.500  -0.539  23.986  0.00  0.00    +0.125 A 
ENDBRANCH  17  18
ENDBRANCH  16  17
TORSDOF 5
ENDMDL
MODEL 6
REMARK VINA RESULT:      -3.6      1.951      2.431
REMARK  Name = 26744604
REMARK  7 active torsions:
REMARK  status: ('A' for Active; 'I' for Inactive)
REMARK    1  A    between atoms: O_3  and  C_10
REMARK    2  A    between atoms: N_5  and  C_12
REMARK    3  A    between atoms: C_8  and  C_13
REMARK    4  A    between atoms: C_12  and  C_14
REMARK    5  A    between atoms: C_12  and  C_15
REMARK    6  A    between atoms: C_16  and  C_17
REMARK    7  A    between atoms: C_17  and  C_18
REMARK                            x       y       z     vdW  Elec       q    Type
REMARK                         _______ _______ _______ _____ _____    ______ ____
ROOT
ATOM      4  O   UNL     1      -2.305 -10.445  14.418  0.00  0.00    -0.336 OA
ATOM      6  N   UNL     1      -4.438 -10.714  13.789  0.00  0.00    -0.194 NA
ATOM      7  N   UNL     1      -3.070 -10.363  15.589  0.00  0.00    -0.061 NA
ATOM     13  C   UNL     1      -3.187 -10.652  13.406  0.00  0.00    +0.245 A 
ATOM     16  C   UNL     1      -4.316 -10.531  15.135  0.00  0.00    +0.176 A 
ENDROOT
BRANCH  13   8
ATOM      5  N   UNL     1      -3.237  -9.987  10.945  0.00  0.00    -0.286 NA
ATOM      8  C   UNL     1      -2.599 -10.781  12.007  0.00  0.00    +0.149 C 
ATOM      9  C   UNL     1      -1.135 -10.332  11.882  0.00  0.00    +0.061 C 
ATOM     10  C   UNL     1      -1.187  -8.910  11.317  0.00  0.00    +0.130 C 
ATOM     11  C   UNL     1      -2.648  -8.651  10.967  0.00  0.00    +0.116 C 
BRANCH   5  12
ATOM     12  C   UNL     1      -4.688  -9.988  10.914  0.00  0.00    +0.051 C 
ATOM     14  C   UNL     1      -5.191 -10.754   9.694  0.00  0.00    +0.024 C 
ATOM     15  C   UNL     1      -5.195  -8.549  10.906  0.00  0.00    +0.024 C 
ENDBRANCH   5  12
BRANCH  10   3
ATOM      3  O   UNL     1      -0.371  -8.836  10.155  0.00  0.00    -0.390 OA
ATOM     24  H   UNL     1      -0.908  -8.437   9.448  0.00  0.00    +0.210 HD
ENDBRANCH  10   3
ENDBRANCH  13   8
BRANCH  16  17
ATOM     17  C   UNL     1      -5.477 -10.521  16.032  0.00  0.00    +0.116 C 
BRANCH  17  18
ATOM      1 CL   UNL     1      -7.829  -9.670  17.858  0.00  0.00    -0.083 Cl
ATOM      2  F   UNL     1     -10.283  -8.959  13.495  0.00  0.00    -0.205 F 
ATOM     18  C   UNL     1      -6.787 -10.095  15.377  0.00  0.00    -0.021 A 
ATOM     19  C   UNL     1      -7.890  -9.698  16.134  0.00  0.00    +0.047 A 
ATOM     20  C   UNL     1      -6.866 -10.107  13.984  0.00  0.00    +0.008 A 
ATOM     21  C   UNL     1      -9.071  -9.315  15.499  0.00  0.00    +0.058 A 
ATOM     22  C   UNL     1      -8.047  -9.724  13.348  0.00  0.00    +0.039 A 
ATOM     23  C   UNL     1      -9.149  -9.328  14.106  0.00  0.00    +0.125 A 
ENDBRANCH  17  18
ENDBRANCH  16  17
TORSDOF 5
ENDMDL
MODEL 7
REMARK VINA RESULT:      -3.3     22.997     25.353
REMARK  Name = 26744604
REMARK  7 active torsions:
REMARK  status: ('A' for Active; 'I' for Inactive)
REMARK    1  A    between atoms: O_3  and  C_10
REMARK    2  A    between atoms: N_5  and  C_12
REMARK    3  A    between atoms: C_8  and  C_13
REMARK    4  A    between atoms: C_12  and  C_14
REMARK    5  A    between atoms: C_12  and  C_15
REMARK    6  A    between atoms: C_16  and  C_17
REMARK    7  A    between atoms: C_17  and  C_18
REMARK                            x       y       z     vdW  Elec       q    Type
REMARK                         _______ _______ _______ _____ _____    ______ ____
ROOT
ATOM      4  O   UNL     1      13.912  -8.560  31.865  0.00  0.00    -0.336 OA
ATOM      6  N   UNL     1      12.379  -9.812  30.817  0.00  0.00    -0.194 NA
ATOM      7  N   UNL     1      12.967  -8.912  32.837  0.00  0.00    -0.061 NA
ATOM     13  C   UNL     1      13.491  -9.129  30.706  0.00  0.00    +0.245 A 
ATOM     16  C   UNL     1      12.096  -9.650  32.142  0.00  0.00    +0.176 A 
ENDROOT
BRANCH  13   8
ATOM      5  N   UNL     1      15.634  -8.190  29.695  0.00  0.00    -0.286 NA
ATOM      8  C   UNL     1      14.360  -8.894  29.478  0.00  0.00    +0.149 C 
ATOM      9  C   UNL     1      14.838 -10.173  28.774  0.00  0.00    +0.061 C 
ATOM     10  C   UNL     1      16.267 -10.409  29.272  0.00  0.00    +0.130 C 
ATOM     11  C   UNL     1      16.632  -9.178  30.096  0.00  0.00    +0.116 C 
BRANCH   5  12
ATOM     12  C   UNL     1      15.594  -7.019  30.551  0.00  0.00    +0.051 C 
ATOM     14  C   UNL     1      14.891  -5.867  29.839  0.00  0.00    +0.024 C 
ATOM     15  C   UNL     1      17.015  -6.632  30.948  0.00  0.00    +0.024 C 
ENDBRANCH   5  12
BRANCH  10   3
ATOM      3  O   UNL     1      17.137 -10.543  28.156  0.00  0.00    -0.390 OA
ATOM     24  H   UNL     1      16.626 -10.318  27.359  0.00  0.00    +0.210 HD
ENDBRANCH  10   3
ENDBRANCH  13   8
BRANCH  16  17
ATOM     17  C   UNL     1      10.912 -10.249  32.767  0.00  0.00    +0.116 C 
BRANCH  17  18
ATOM      1 CL   UNL     1      10.168  -7.244  32.873  0.00  0.00    -0.083 Cl
ATOM      2  F   UNL     1       5.953  -8.735  30.510  0.00  0.00    -0.205 F 
ATOM     18  C   UNL     1       9.580  -9.809  32.166  0.00  0.00    -0.021 A 
ATOM     19  C   UNL     1       9.177  -8.473  32.177  0.00  0.00    +0.047 A 
ATOM     20  C   UNL     1       8.758 -10.781  31.596  0.00  0.00    +0.008 A 
ATOM     21  C   UNL     1       7.952  -8.110  31.618  0.00  0.00    +0.058 A 
ATOM     22  C   UNL     1       7.532 -10.418  31.037  0.00  0.00    +0.039 A 
ATOM     23  C   UNL     1       7.130  -9.083  31.048  0.00  0.00    +0.125 A 
ENDBRANCH  17  18
ENDBRANCH  16  17
TORSDOF 5
ENDMDL
MODEL 8
REMARK VINA RESULT:      -3.2     14.797     16.816
REMARK  Name = 26744604
REMARK  7 active torsions:
REMARK  status: ('A' for Active; 'I' for Inactive)
REMARK    1  A    between atoms: O_3  and  C_10
REMARK    2  A    between atoms: N_5  and  C_12
REMARK    3  A    between atoms: C_8  and  C_13
REMARK    4  A    between atoms: C_12  and  C_14
REMARK    5  A    between atoms: C_12  and  C_15
REMARK    6  A    between atoms: C_16  and  C_17
REMARK    7  A    between atoms: C_17  and  C_18
REMARK                            x       y       z     vdW  Elec       q    Type
REMARK                         _______ _______ _______ _____ _____    ______ ____
ROOT
ATOM      4  O   UNL     1      -0.468   1.131  24.997  0.00  0.00    -0.336 OA
ATOM      6  N   UNL     1      -0.314  -0.601  23.586  0.00  0.00    -0.194 NA
ATOM      7  N   UNL     1       0.679   1.359  24.226  0.00  0.00    -0.061 NA
ATOM     13  C   UNL     1      -0.992  -0.042  24.557  0.00  0.00    +0.245 A 
ATOM     16  C   UNL     1       0.702   0.295  23.417  0.00  0.00    +0.176 A 
ENDROOT
BRANCH  13   8
ATOM      5  N   UNL     1      -3.520   0.129  24.832  0.00  0.00    -0.286 NA
ATOM      8  C   UNL     1      -2.264  -0.519  25.244  0.00  0.00    +0.149 C 
ATOM      9  C   UNL     1      -2.601  -2.000  25.017  0.00  0.00    +0.061 C 
ATOM     10  C   UNL     1      -3.648  -2.019  23.900  0.00  0.00    +0.130 C 
ATOM     11  C   UNL     1      -4.014  -0.561  23.644  0.00  0.00    +0.116 C 
BRANCH   5  12
ATOM     12  C   UNL     1      -3.495   1.574  24.702  0.00  0.00    +0.051 C 
ATOM     14  C   UNL     1      -4.798   2.175  25.219  0.00  0.00    +0.024 C 
ATOM     15  C   UNL     1      -3.260   1.947  23.241  0.00  0.00    +0.024 C 
ENDBRANCH   5  12
BRANCH  10   3
ATOM      3  O   UNL     1      -4.785  -2.754  24.335  0.00  0.00    -0.390 OA
ATOM     24  H   UNL     1      -5.575  -2.282  24.019  0.00  0.00    +0.210 HD
ENDBRANCH  10   3
ENDBRANCH  13   8
BRANCH  16  17
ATOM     17  C   UNL     1       1.752   0.106  22.411  0.00  0.00    +0.116 C 
BRANCH  17  18
ATOM      1 CL   UNL     1       3.793   2.436  22.351  0.00  0.00    -0.083 Cl
ATOM      2  F   UNL     1       6.889  -0.903  24.549  0.00  0.00    -0.205 F 
ATOM     18  C   UNL     1       3.147  -0.135  22.980  0.00  0.00    -0.021 A 
ATOM     19  C   UNL     1       4.119   0.866  22.988  0.00  0.00    +0.047 A 
ATOM     20  C   UNL     1       3.440  -1.395  23.503  0.00  0.00    +0.008 A 
ATOM     21  C   UNL     1       5.383   0.607  23.517  0.00  0.00    +0.058 A 
ATOM     22  C   UNL     1       4.704  -1.654  24.032  0.00  0.00    +0.039 A 
ATOM     23  C   UNL     1       5.675  -0.653  24.039  0.00  0.00    +0.125 A 
ENDBRANCH  17  18
ENDBRANCH  16  17
TORSDOF 5
ENDMDL
MODEL 9
REMARK VINA RESULT:      -2.9     25.428     27.119
REMARK  Name = 26744604
REMARK  7 active torsions:
REMARK  status: ('A' for Active; 'I' for Inactive)
REMARK    1  A    between atoms: O_3  and  C_10
REMARK    2  A    between atoms: N_5  and  C_12
REMARK    3  A    between atoms: C_8  and  C_13
REMARK    4  A    between atoms: C_12  and  C_14
REMARK    5  A    between atoms: C_12  and  C_15
REMARK    6  A    between atoms: C_16  and  C_17
REMARK    7  A    between atoms: C_17  and  C_18
REMARK                            x       y       z     vdW  Elec       q    Type
REMARK                         _______ _______ _______ _____ _____    ______ ____
ROOT
ATOM      4  O   UNL     1      14.009  -7.146  29.619  0.00  0.00    -0.336 OA
ATOM      6  N   UNL     1      16.050  -7.322  30.524  0.00  0.00    -0.194 NA
ATOM      7  N   UNL     1      14.904  -6.660  28.657  0.00  0.00    -0.061 NA
ATOM     13  C   UNL     1      14.765  -7.513  30.686  0.00  0.00    +0.245 A 
ATOM     16  C   UNL     1      16.087  -6.798  29.264  0.00  0.00    +0.176 A 
ENDROOT
BRANCH  13   8
ATOM      5  N   UNL     1      13.111  -7.169  32.594  0.00  0.00    -0.286 NA
ATOM      8  C   UNL     1      14.018  -8.084  31.884  0.00  0.00    +0.149 C 
ATOM      9  C   UNL     1      13.075  -9.251  31.556  0.00  0.00    +0.061 C 
ATOM     10  C   UNL     1      11.676  -8.636  31.458  0.00  0.00    +0.130 C 
ATOM     11  C   UNL     1      11.824  -7.185  31.903  0.00  0.00    +0.116 C 
BRANCH   5  12
ATOM     12  C   UNL     1      13.612  -5.835  32.866  0.00  0.00    +0.051 C 
ATOM     14  C   UNL     1      13.084  -4.849  31.828  0.00  0.00    +0.024 C 
ATOM     15  C   UNL     1      15.137  -5.858  32.873  0.00  0.00    +0.024 C 
ENDBRANCH   5  12
BRANCH  10   3
ATOM      3  O   UNL     1      10.791  -9.339  32.320  0.00  0.00    -0.390 OA
ATOM     24  H   UNL     1      10.924 -10.290  32.161  0.00  0.00    +0.210 HD
ENDBRANCH  10   3
ENDBRANCH  13   8
BRANCH  16  17
ATOM     17  C   UNL     1      17.344  -6.410  28.615  0.00  0.00    +0.116 C 
BRANCH  17  18
ATOM      1 CL   UNL     1      17.282  -9.040  26.981  0.00  0.00    -0.083 Cl
ATOM      2  F   UNL     1      17.092  -5.948  22.985  0.00  0.00    -0.205 F 
ATOM     18  C   UNL     1      17.276  -6.318  27.094  0.00  0.00    -0.021 A 
ATOM     19  C   UNL     1      17.245  -7.459  26.291  0.00  0.00    +0.047 A 
ATOM     20  C   UNL     1      17.245  -5.053  26.508  0.00  0.00    +0.008 A 
ATOM     21  C   UNL     1      17.183  -7.335  24.904  0.00  0.00    +0.058 A 
ATOM     22  C   UNL     1      17.183  -4.928  25.120  0.00  0.00    +0.039 A 
ATOM     23  C   UNL     1      17.152  -6.069  24.318  0.00  0.00    +0.125 A 
ENDBRANCH  17  18
ENDBRANCH  16  17
TORSDOF 5
ENDMDL
MODEL 10
REMARK VINA RESULT:      -2.9     14.856     16.559
REMARK  Name = 26744604
REMARK  7 active torsions:
REMARK  status: ('A' for Active; 'I' for Inactive)
REMARK    1  A    between atoms: O_3  and  C_10
REMARK    2  A    between atoms: N_5  and  C_12
REMARK    3  A    between atoms: C_8  and  C_13
REMARK    4  A    between atoms: C_12  and  C_14
REMARK    5  A    between atoms: C_12  and  C_15
REMARK    6  A    between atoms: C_16  and  C_17
REMARK    7  A    between atoms: C_17  and  C_18
REMARK                            x       y       z     vdW  Elec       q    Type
REMARK                         _______ _______ _______ _____ _____    ______ ____
ROOT
ATOM      4  O   UNL     1      -0.027   3.303  24.468  0.00  0.00    -0.336 OA
ATOM      6  N   UNL     1      -1.615   1.809  23.956  0.00  0.00    -0.194 NA
ATOM      7  N   UNL     1      -1.195   4.040  24.237  0.00  0.00    -0.061 NA
ATOM     13  C   UNL     1      -0.361   2.000  24.281  0.00  0.00    +0.245 A 
ATOM     16  C   UNL     1      -2.087   3.089  23.941  0.00  0.00    +0.176 A 
ENDROOT
BRANCH  13   8
ATOM      5  N   UNL     1       0.426  -0.422  24.164  0.00  0.00    -0.286 NA
ATOM      8  C   UNL     1       0.752   0.978  24.477  0.00  0.00    +0.149 C 
ATOM      9  C   UNL     1       1.993   1.204  23.602  0.00  0.00    +0.061 C 
ATOM     10  C   UNL     1       1.841   0.246  22.416  0.00  0.00    +0.130 C 
ATOM     11  C   UNL     1       0.626  -0.620  22.731  0.00  0.00    +0.116 C 
BRANCH   5  12
ATOM     12  C   UNL     1      -0.846  -0.920  24.651  0.00  0.00    +0.051 C 
ATOM     14  C   UNL     1      -0.918  -0.792  26.170  0.00  0.00    +0.024 C 
ATOM     15  C   UNL     1      -1.023  -2.371  24.215  0.00  0.00    +0.024 C 
ENDBRANCH   5  12
BRANCH  10   3
ATOM      3  O   UNL     1       3.012  -0.552  22.304  0.00  0.00    -0.390 OA
ATOM     24  H   UNL     1       3.507  -0.462  23.137  0.00  0.00    +0.210 HD
ENDBRANCH  10   3
ENDBRANCH  13   8
BRANCH  16  17
ATOM     17  C   UNL     1      -3.483   3.404  23.623  0.00  0.00    +0.116 C 
BRANCH  17  18
ATOM      1 CL   UNL     1      -3.988   0.348  23.583  0.00  0.00    -0.083 Cl
ATOM      2  F   UNL     1      -7.298   1.369  27.267  0.00  0.00    -0.205 F 
ATOM     18  C   UNL     1      -4.507   2.825  24.594  0.00  0.00    -0.021 A 
ATOM     19  C   UNL     1      -4.788   1.458  24.635  0.00  0.00    +0.047 A 
ATOM     20  C   UNL     1      -5.169   3.698  25.457  0.00  0.00    +0.008 A 
ATOM     21  C   UNL     1      -5.730   0.966  25.537  0.00  0.00    +0.058 A 
ATOM     22  C   UNL     1      -6.113   3.206  26.360  0.00  0.00    +0.039 A 
ATOM     23  C   UNL     1      -6.392   1.841  26.399  0.00  0.00    +0.125 A 
ENDBRANCH  17  18
ENDBRANCH  16  17
TORSDOF 5
ENDMDL
