MODEL 1
REMARK VINA RESULT:      -6.7      0.000      0.000
REMARK  Name = 75536497
REMARK  6 active torsions:
REMARK  status: ('A' for Active; 'I' for Inactive)
REMARK    1  A    between atoms: O_2  and  C_8
REMARK    2  A    between atoms: N_5  and  C_7
REMARK    3  A    between atoms: N_5  and  C_10
REMARK    4  A    between atoms: N_6  and  C_14
REMARK    5  A    between atoms: C_9  and  C_14
REMARK    6  A    between atoms: C_17  and  C_18
REMARK                            x       y       z     vdW  Elec       q    Type
REMARK                         _______ _______ _______ _____ _____    ______ ____
ROOT
ATOM      1  O   UNL     1      -1.081   3.481  25.882  0.00  0.00    -0.371 OA
ATOM      7  C   UNL     1      -0.381   1.476  24.818  0.00  0.00    +0.111 C 
ATOM      8  C   UNL     1      -1.710   1.910  24.230  0.00  0.00    +0.164 C 
ATOM      9  C   UNL     1      -1.728   3.386  24.602  0.00  0.00    +0.165 C 
ATOM     11  C   UNL     1      -0.357   2.260  26.120  0.00  0.00    +0.181 C 
ENDROOT
BRANCH   8   2
ATOM      2  O   UNL     1      -1.776   1.719  22.830  0.00  0.00    -0.388 OA
ATOM     20  H   UNL     1      -1.433   0.833  22.626  0.00  0.00    +0.210 HD
ENDBRANCH   8   2
BRANCH   7   5
ATOM      5  N   UNL     1      -0.273   0.040  25.020  0.00  0.00    -0.306 NA
ATOM     19  H   UNL     1       0.017  -0.157  25.978  0.00  0.00    +0.123 HD
BRANCH   5  10
ATOM      3  O   UNL     1      -3.432  -2.699  25.387  0.00  0.00    -0.380 OA
ATOM     10  C   UNL     1      -1.541  -0.627  24.739  0.00  0.00    +0.058 C 
ATOM     12  C   UNL     1      -1.301  -2.098  24.385  0.00  0.00    +0.047 C 
ATOM     13  C   UNL     1      -2.494  -0.526  25.934  0.00  0.00    +0.047 C 
ATOM     15  C   UNL     1      -2.630  -2.825  24.213  0.00  0.00    +0.161 C 
ATOM     16  C   UNL     1      -3.757  -1.340  25.676  0.00  0.00    +0.161 C 
ENDBRANCH   5  10
ENDBRANCH   7   5
BRANCH   9  14
ATOM     14  C   UNL     1      -3.128   3.967  24.691  0.00  0.00    +0.138 C 
BRANCH  14   6
ATOM      4  O   UNL     1      -5.364   3.303  26.421  0.00  0.00    -0.276 OA
ATOM      6  N   UNL     1      -4.126   2.958  24.478  0.00  0.00    -0.313 N 
ATOM     17  C   UNL     1      -5.167   2.708  25.365  0.00  0.00    +0.210 C 
ATOM     18  C   UNL     1      -6.085   1.615  24.887  0.00  0.00    +0.109 C 
ATOM     21  H   UNL     1      -4.058   2.400  23.631  0.00  0.00    +0.149 HD
ENDBRANCH  14   6
ENDBRANCH   9  14
TORSDOF 5
ENDMDL
MODEL 2
REMARK VINA RESULT:      -6.2      1.747      4.720
REMARK  Name = 75536497
REMARK  6 active torsions:
REMARK  status: ('A' for Active; 'I' for Inactive)
REMARK    1  A    between atoms: O_2  and  C_8
REMARK    2  A    between atoms: N_5  and  C_7
REMARK    3  A    between atoms: N_5  and  C_10
REMARK    4  A    between atoms: N_6  and  C_14
REMARK    5  A    between atoms: C_9  and  C_14
REMARK    6  A    between atoms: C_17  and  C_18
REMARK                            x       y       z     vdW  Elec       q    Type
REMARK                         _______ _______ _______ _____ _____    ______ ____
ROOT
ATOM      1  O   UNL     1      -0.290  -0.489  23.380  0.00  0.00    -0.371 OA
ATOM      7  C   UNL     1      -0.428   1.776  24.087  0.00  0.00    +0.111 C 
ATOM      8  C   UNL     1      -0.774   0.871  25.254  0.00  0.00    +0.164 C 
ATOM      9  C   UNL     1      -0.140  -0.440  24.809  0.00  0.00    +0.165 C 
ATOM     11  C   UNL     1      -0.615   0.832  22.909  0.00  0.00    +0.181 C 
ENDROOT
BRANCH   8   2
ATOM      2  O   UNL     1      -0.234   1.329  26.479  0.00  0.00    -0.388 OA
ATOM     20  H   UNL     1      -0.631   0.814  27.200  0.00  0.00    +0.210 HD
ENDBRANCH   8   2
BRANCH   7   5
ATOM      5  N   UNL     1      -1.263   2.962  23.999  0.00  0.00    -0.306 NA
ATOM     19  H   UNL     1      -1.470   3.173  23.023  0.00  0.00    +0.123 HD
BRANCH   5  10
ATOM      3  O   UNL     1      -5.182   3.681  25.320  0.00  0.00    -0.380 OA
ATOM     10  C   UNL     1      -2.508   2.784  24.741  0.00  0.00    +0.058 C 
ATOM     12  C   UNL     1      -2.792   4.015  25.607  0.00  0.00    +0.047 C 
ATOM     13  C   UNL     1      -3.684   2.529  23.793  0.00  0.00    +0.047 C 
ATOM     15  C   UNL     1      -4.151   3.884  26.286  0.00  0.00    +0.161 C 
ATOM     16  C   UNL     1      -4.994   2.480  24.572  0.00  0.00    +0.161 C 
ENDBRANCH   5  10
ENDBRANCH   7   5
BRANCH   9  14
ATOM     14  C   UNL     1      -0.786  -1.663  25.435  0.00  0.00    +0.138 C 
BRANCH  14   6
ATOM      4  O   UNL     1      -3.607  -1.115  25.850  0.00  0.00    -0.276 OA
ATOM      6  N   UNL     1      -1.889  -2.131  24.648  0.00  0.00    -0.313 N 
ATOM     17  C   UNL     1      -3.216  -1.817  24.922  0.00  0.00    +0.210 C 
ATOM     18  C   UNL     1      -4.171  -2.417  23.924  0.00  0.00    +0.109 C 
ATOM     21  H   UNL     1      -1.681  -2.725  23.850  0.00  0.00    +0.149 HD
ENDBRANCH  14   6
ENDBRANCH   9  14
TORSDOF 5
ENDMDL
MODEL 3
REMARK VINA RESULT:      -5.9      1.780      3.630
REMARK  Name = 75536497
REMARK  6 active torsions:
REMARK  status: ('A' for Active; 'I' for Inactive)
REMARK    1  A    between atoms: O_2  and  C_8
REMARK    2  A    between atoms: N_5  and  C_7
REMARK    3  A    between atoms: N_5  and  C_10
REMARK    4  A    between atoms: N_6  and  C_14
REMARK    5  A    between atoms: C_9  and  C_14
REMARK    6  A    between atoms: C_17  and  C_18
REMARK                            x       y       z     vdW  Elec       q    Type
REMARK                         _______ _______ _______ _____ _____    ______ ____
ROOT
ATOM      1  O   UNL     1      -3.201   2.957  23.178  0.00  0.00    -0.371 OA
ATOM      7  C   UNL     1      -4.546   1.415  24.386  0.00  0.00    +0.111 C 
ATOM      8  C   UNL     1      -4.039   2.482  25.338  0.00  0.00    +0.164 C 
ATOM      9  C   UNL     1      -3.689   3.601  24.367  0.00  0.00    +0.165 C 
ATOM     11  C   UNL     1      -3.582   1.569  23.220  0.00  0.00    +0.181 C 
ENDROOT
BRANCH   8   2
ATOM      2  O   UNL     1      -5.017   2.885  26.276  0.00  0.00    -0.388 OA
ATOM     20  H   UNL     1      -4.708   2.641  27.165  0.00  0.00    +0.210 HD
ENDBRANCH   8   2
BRANCH   7   5
ATOM      5  N   UNL     1      -4.540   0.076  24.951  0.00  0.00    -0.306 NA
ATOM     19  H   UNL     1      -5.366  -0.438  24.645  0.00  0.00    +0.123 HD
BRANCH   5  10
ATOM      3  O   UNL     1      -1.341  -2.631  25.201  0.00  0.00    -0.380 OA
ATOM     10  C   UNL     1      -3.333  -0.651  24.567  0.00  0.00    +0.058 C 
ATOM     12  C   UNL     1      -2.211  -0.393  25.576  0.00  0.00    +0.047 C 
ATOM     13  C   UNL     1      -3.607  -2.156  24.462  0.00  0.00    +0.047 C 
ATOM     15  C   UNL     1      -0.993  -1.248  25.245  0.00  0.00    +0.161 C 
ATOM     16  C   UNL     1      -2.311  -2.913  24.192  0.00  0.00    +0.161 C 
ENDBRANCH   5  10
ENDBRANCH   7   5
BRANCH   9  14
ATOM     14  C   UNL     1      -2.635   4.554  24.902  0.00  0.00    +0.138 C 
BRANCH  14   6
ATOM      4  O   UNL     1      -0.261   3.029  24.220  0.00  0.00    -0.276 OA
ATOM      6  N   UNL     1      -1.739   3.888  25.802  0.00  0.00    -0.313 N 
ATOM     17  C   UNL     1      -0.619   3.177  25.384  0.00  0.00    +0.210 C 
ATOM     18  C   UNL     1       0.162   2.600  26.535  0.00  0.00    +0.109 C 
ATOM     21  H   UNL     1      -1.942   3.944  26.796  0.00  0.00    +0.149 HD
ENDBRANCH  14   6
ENDBRANCH   9  14
TORSDOF 5
ENDMDL
MODEL 4
REMARK VINA RESULT:      -4.6     14.249     16.217
REMARK  Name = 75536497
REMARK  6 active torsions:
REMARK  status: ('A' for Active; 'I' for Inactive)
REMARK    1  A    between atoms: O_2  and  C_8
REMARK    2  A    between atoms: N_5  and  C_7
REMARK    3  A    between atoms: N_5  and  C_10
REMARK    4  A    between atoms: N_6  and  C_14
REMARK    5  A    between atoms: C_9  and  C_14
REMARK    6  A    between atoms: C_17  and  C_18
REMARK                            x       y       z     vdW  Elec       q    Type
REMARK                         _______ _______ _______ _____ _____    ______ ____
ROOT
ATOM      1  O   UNL     1      -4.978 -10.219  16.712  0.00  0.00    -0.371 OA
ATOM      7  C   UNL     1      -5.091 -10.027  14.347  0.00  0.00    +0.111 C 
ATOM      8  C   UNL     1      -6.499 -10.114  14.905  0.00  0.00    +0.164 C 
ATOM      9  C   UNL     1      -6.269  -9.700  16.352  0.00  0.00    +0.165 C 
ATOM     11  C   UNL     1      -4.274 -10.572  15.508  0.00  0.00    +0.181 C 
ENDROOT
BRANCH   8   2
ATOM      2  O   UNL     1      -7.401  -9.246  14.246  0.00  0.00    -0.388 OA
ATOM     20  H   UNL     1      -7.151  -8.330  14.454  0.00  0.00    +0.210 HD
ENDBRANCH   8   2
BRANCH   7   5
ATOM      5  N   UNL     1      -4.901 -10.781  13.119  0.00  0.00    -0.306 NA
ATOM     19  H   UNL     1      -5.703 -11.390  12.954  0.00  0.00    +0.123 HD
BRANCH   5  10
ATOM      3  O   UNL     1      -4.433  -9.553   9.132  0.00  0.00    -0.380 OA
ATOM     10  C   UNL     1      -4.715  -9.889  11.978  0.00  0.00    +0.058 C 
ATOM     12  C   UNL     1      -3.423 -10.239  11.233  0.00  0.00    +0.047 C 
ATOM     13  C   UNL     1      -5.908  -9.964  11.019  0.00  0.00    +0.047 C 
ATOM     15  C   UNL     1      -3.291  -9.391   9.973  0.00  0.00    +0.161 C 
ATOM     16  C   UNL     1      -5.638  -9.131   9.770  0.00  0.00    +0.161 C 
ENDBRANCH   5  10
ENDBRANCH   7   5
BRANCH   9  14
ATOM     14  C   UNL     1      -7.322 -10.236  17.305  0.00  0.00    +0.138 C 
BRANCH  14   6
ATOM      4  O   UNL     1      -9.843  -9.633  15.998  0.00  0.00    -0.276 OA
ATOM      6  N   UNL     1      -8.267  -9.219  17.663  0.00  0.00    -0.313 N 
ATOM     17  C   UNL     1      -9.457  -9.000  16.977  0.00  0.00    +0.210 C 
ATOM     18  C   UNL     1     -10.275  -7.888  17.577  0.00  0.00    +0.109 C 
ATOM     21  H   UNL     1      -8.046  -8.630  18.461  0.00  0.00    +0.149 HD
ENDBRANCH  14   6
ENDBRANCH   9  14
TORSDOF 5
ENDMDL
MODEL 5
REMARK VINA RESULT:      -4.6      2.965      5.968
REMARK  Name = 75536497
REMARK  6 active torsions:
REMARK  status: ('A' for Active; 'I' for Inactive)
REMARK    1  A    between atoms: O_2  and  C_8
REMARK    2  A    between atoms: N_5  and  C_7
REMARK    3  A    between atoms: N_5  and  C_10
REMARK    4  A    between atoms: N_6  and  C_14
REMARK    5  A    between atoms: C_9  and  C_14
REMARK    6  A    between atoms: C_17  and  C_18
REMARK                            x       y       z     vdW  Elec       q    Type
REMARK                         _______ _______ _______ _____ _____    ______ ____
ROOT
ATOM      1  O   UNL     1       0.326  -0.906  24.219  0.00  0.00    -0.371 OA
ATOM      7  C   UNL     1      -1.460   0.624  24.551  0.00  0.00    +0.111 C 
ATOM      8  C   UNL     1      -0.573   1.134  23.430  0.00  0.00    +0.164 C 
ATOM      9  C   UNL     1       0.139  -0.145  23.014  0.00  0.00    +0.165 C 
ATOM     11  C   UNL     1      -0.537  -0.369  25.238  0.00  0.00    +0.181 C 
ENDROOT
BRANCH   8   2
ATOM      2  O   UNL     1      -1.311   1.698  22.363  0.00  0.00    -0.388 OA
ATOM     20  H   UNL     1      -0.858   1.481  21.531  0.00  0.00    +0.210 HD
ENDBRANCH   8   2
BRANCH   7   5
ATOM      5  N   UNL     1      -1.932   1.670  25.444  0.00  0.00    -0.306 NA
ATOM     19  H   UNL     1      -1.248   2.424  25.491  0.00  0.00    +0.123 HD
BRANCH   5  10
ATOM      3  O   UNL     1      -5.946   2.885  25.626  0.00  0.00    -0.380 OA
ATOM     10  C   UNL     1      -3.221   2.196  25.002  0.00  0.00    +0.058 C 
ATOM     12  C   UNL     1      -4.316   1.140  25.177  0.00  0.00    +0.047 C 
ATOM     13  C   UNL     1      -3.591   3.466  25.775  0.00  0.00    +0.047 C 
ATOM     15  C   UNL     1      -5.680   1.728  24.834  0.00  0.00    +0.161 C 
ATOM     16  C   UNL     1      -4.996   3.926  25.399  0.00  0.00    +0.161 C 
ENDBRANCH   5  10
ENDBRANCH   7   5
BRANCH   9  14
ATOM     14  C   UNL     1       1.482   0.103  22.351  0.00  0.00    +0.138 C 
BRANCH  14   6
ATOM      4  O   UNL     1       4.276   0.891  22.387  0.00  0.00    -0.276 OA
ATOM      6  N   UNL     1       2.550  -0.506  23.090  0.00  0.00    -0.313 N 
ATOM     17  C   UNL     1       3.866  -0.059  23.047  0.00  0.00    +0.210 C 
ATOM     18  C   UNL     1       4.778  -0.860  23.937  0.00  0.00    +0.109 C 
ATOM     21  H   UNL     1       2.323  -1.307  23.672  0.00  0.00    +0.149 HD
ENDBRANCH  14   6
ENDBRANCH   9  14
TORSDOF 5
ENDMDL
MODEL 6
REMARK VINA RESULT:      -4.4      2.032      4.699
REMARK  Name = 75536497
REMARK  6 active torsions:
REMARK  status: ('A' for Active; 'I' for Inactive)
REMARK    1  A    between atoms: O_2  and  C_8
REMARK    2  A    between atoms: N_5  and  C_7
REMARK    3  A    between atoms: N_5  and  C_10
REMARK    4  A    between atoms: N_6  and  C_14
REMARK    5  A    between atoms: C_9  and  C_14
REMARK    6  A    between atoms: C_17  and  C_18
REMARK                            x       y       z     vdW  Elec       q    Type
REMARK                         _______ _______ _______ _____ _____    ______ ____
ROOT
ATOM      1  O   UNL     1      -0.875  -0.509  23.293  0.00  0.00    -0.371 OA
ATOM      7  C   UNL     1       0.105   0.633  25.132  0.00  0.00    +0.111 C 
ATOM      8  C   UNL     1      -1.143  -0.088  25.605  0.00  0.00    +0.164 C 
ATOM      9  C   UNL     1      -1.311  -1.134  24.512  0.00  0.00    +0.165 C 
ATOM     11  C   UNL     1      -0.121   0.670  23.629  0.00  0.00    +0.181 C 
ENDROOT
BRANCH   8   2
ATOM      2  O   UNL     1      -0.982  -0.679  26.880  0.00  0.00    -0.388 OA
ATOM     20  H   UNL     1      -0.135  -1.155  26.891  0.00  0.00    +0.210 HD
ENDBRANCH   8   2
BRANCH   7   5
ATOM      5  N   UNL     1       0.272   1.956  25.711  0.00  0.00    -0.306 NA
ATOM     19  H   UNL     1       1.194   2.324  25.483  0.00  0.00    +0.123 HD
BRANCH   5  10
ATOM      3  O   UNL     1      -2.228   5.325  25.579  0.00  0.00    -0.380 OA
ATOM     10  C   UNL     1      -0.760   2.872  25.235  0.00  0.00    +0.058 C 
ATOM     12  C   UNL     1      -1.861   3.030  26.288  0.00  0.00    +0.047 C 
ATOM     13  C   UNL     1      -0.165   4.242  24.891  0.00  0.00    +0.047 C 
ATOM     15  C   UNL     1      -2.873   4.080  25.844  0.00  0.00    +0.161 C 
ATOM     16  C   UNL     1      -1.271   5.225  24.524  0.00  0.00    +0.161 C 
ENDBRANCH   5  10
ENDBRANCH   7   5
BRANCH   9  14
ATOM     14  C   UNL     1      -2.742  -1.617  24.357  0.00  0.00    +0.138 C 
BRANCH  14   6
ATOM      4  O   UNL     1      -3.675   0.952  23.376  0.00  0.00    -0.276 OA
ATOM      6  N   UNL     1      -3.666  -0.724  24.994  0.00  0.00    -0.313 N 
ATOM     17  C   UNL     1      -4.059   0.493  24.448  0.00  0.00    +0.210 C 
ATOM     18  C   UNL     1      -5.055   1.220  25.311  0.00  0.00    +0.109 C 
ATOM     21  H   UNL     1      -4.047  -1.003  25.894  0.00  0.00    +0.149 HD
ENDBRANCH  14   6
ENDBRANCH   9  14
TORSDOF 5
ENDMDL
MODEL 7
REMARK VINA RESULT:      -4.2      3.655      5.122
REMARK  Name = 75536497
REMARK  6 active torsions:
REMARK  status: ('A' for Active; 'I' for Inactive)
REMARK    1  A    between atoms: O_2  and  C_8
REMARK    2  A    between atoms: N_5  and  C_7
REMARK    3  A    between atoms: N_5  and  C_10
REMARK    4  A    between atoms: N_6  and  C_14
REMARK    5  A    between atoms: C_9  and  C_14
REMARK    6  A    between atoms: C_17  and  C_18
REMARK                            x       y       z     vdW  Elec       q    Type
REMARK                         _______ _______ _______ _____ _____    ______ ____
ROOT
ATOM      1  O   UNL     1      -1.313  -0.583  24.601  0.00  0.00    -0.371 OA
ATOM      7  C   UNL     1       0.812  -0.153  23.629  0.00  0.00    +0.111 C 
ATOM      8  C   UNL     1       0.174   1.165  24.029  0.00  0.00    +0.164 C 
ATOM      9  C   UNL     1      -0.846   0.697  25.058  0.00  0.00    +0.165 C 
ATOM     11  C   UNL     1      -0.395  -1.077  23.609  0.00  0.00    +0.181 C 
ENDROOT
BRANCH   8   2
ATOM      2  O   UNL     1       1.104   2.075  24.585  0.00  0.00    -0.388 OA
ATOM     20  H   UNL     1       1.227   1.851  25.523  0.00  0.00    +0.210 HD
ENDBRANCH   8   2
BRANCH   7   5
ATOM      5  N   UNL     1       1.507  -0.102  22.354  0.00  0.00    -0.306 NA
ATOM     19  H   UNL     1       1.346   0.799  21.903  0.00  0.00    +0.123 HD
BRANCH   5  10
ATOM      3  O   UNL     1       5.265  -0.193  24.222  0.00  0.00    -0.380 OA
ATOM     10  C   UNL     1       2.941  -0.319  22.527  0.00  0.00    +0.058 C 
ATOM     12  C   UNL     1       3.643   1.000  22.861  0.00  0.00    +0.047 C 
ATOM     13  C   UNL     1       3.212  -1.349  23.629  0.00  0.00    +0.047 C 
ATOM     15  C   UNL     1       5.117   0.754  23.165  0.00  0.00    +0.161 C 
ATOM     16  C   UNL     1       4.710  -1.465  23.890  0.00  0.00    +0.161 C 
ENDBRANCH   5  10
ENDBRANCH   7   5
BRANCH   9  14
ATOM     14  C   UNL     1      -2.022   1.646  25.213  0.00  0.00    +0.138 C 
BRANCH  14   6
ATOM      4  O   UNL     1      -3.025   4.067  26.462  0.00  0.00    -0.276 OA
ATOM      6  N   UNL     1      -1.643   2.998  24.922  0.00  0.00    -0.313 N 
ATOM     17  C   UNL     1      -2.179   4.103  25.574  0.00  0.00    +0.210 C 
ATOM     18  C   UNL     1      -1.588   5.402  25.092  0.00  0.00    +0.109 C 
ATOM     21  H   UNL     1      -0.946   3.146  24.197  0.00  0.00    +0.149 HD
ENDBRANCH  14   6
ENDBRANCH   9  14
TORSDOF 5
ENDMDL
MODEL 8
REMARK VINA RESULT:      -4.1     16.808     18.203
REMARK  Name = 75536497
REMARK  6 active torsions:
REMARK  status: ('A' for Active; 'I' for Inactive)
REMARK    1  A    between atoms: O_2  and  C_8
REMARK    2  A    between atoms: N_5  and  C_7
REMARK    3  A    between atoms: N_5  and  C_10
REMARK    4  A    between atoms: N_6  and  C_14
REMARK    5  A    between atoms: C_9  and  C_14
REMARK    6  A    between atoms: C_17  and  C_18
REMARK                            x       y       z     vdW  Elec       q    Type
REMARK                         _______ _______ _______ _____ _____    ______ ____
ROOT
ATOM      1  O   UNL     1      -7.224  -8.423  10.505  0.00  0.00    -0.371 OA
ATOM      7  C   UNL     1      -5.096  -9.477  10.438  0.00  0.00    +0.111 C 
ATOM      8  C   UNL     1      -5.477  -9.040   9.036  0.00  0.00    +0.164 C 
ATOM      9  C   UNL     1      -6.523  -7.974   9.333  0.00  0.00    +0.165 C 
ATOM     11  C   UNL     1      -6.447  -9.457  11.136  0.00  0.00    +0.181 C 
ENDROOT
BRANCH   8   2
ATOM      2  O   UNL     1      -4.381  -8.514   8.312  0.00  0.00    -0.388 OA
ATOM     20  H   UNL     1      -4.690  -8.267   7.424  0.00  0.00    +0.210 HD
ENDBRANCH   8   2
BRANCH   7   5
ATOM      5  N   UNL     1      -4.453 -10.780  10.489  0.00  0.00    -0.306 NA
ATOM     19  H   UNL     1      -4.347 -11.155   9.547  0.00  0.00    +0.123 HD
BRANCH   5  10
ATOM      3  O   UNL     1      -1.334  -9.257  12.850  0.00  0.00    -0.380 OA
ATOM     10  C   UNL     1      -3.147 -10.696  11.137  0.00  0.00    +0.058 C 
ATOM     12  C   UNL     1      -2.403  -9.439  10.675  0.00  0.00    +0.047 C 
ATOM     13  C   UNL     1      -3.289 -10.688  12.663  0.00  0.00    +0.047 C 
ATOM     15  C   UNL     1      -1.095  -9.285  11.443  0.00  0.00    +0.161 C 
ATOM     16  C   UNL     1      -1.931 -10.465  13.321  0.00  0.00    +0.161 C 
ENDBRANCH   5  10
ENDBRANCH   7   5
BRANCH   9  14
ATOM     14  C   UNL     1      -7.506  -7.763   8.196  0.00  0.00    +0.138 C 
BRANCH  14   6
ATOM      4  O   UNL     1     -10.182  -7.097   9.105  0.00  0.00    -0.276 OA
ATOM      6  N   UNL     1      -8.106  -6.462   8.260  0.00  0.00    -0.313 N 
ATOM     17  C   UNL     1      -9.401  -6.235   8.712  0.00  0.00    +0.210 C 
ATOM     18  C   UNL     1      -9.771  -4.776   8.700  0.00  0.00    +0.109 C 
ATOM     21  H   UNL     1      -7.547  -5.669   7.955  0.00  0.00    +0.149 HD
ENDBRANCH  14   6
ENDBRANCH   9  14
TORSDOF 5
ENDMDL
MODEL 9
REMARK VINA RESULT:      -3.7     15.693     18.056
REMARK  Name = 75536497
REMARK  6 active torsions:
REMARK  status: ('A' for Active; 'I' for Inactive)
REMARK    1  A    between atoms: O_2  and  C_8
REMARK    2  A    between atoms: N_5  and  C_7
REMARK    3  A    between atoms: N_5  and  C_10
REMARK    4  A    between atoms: N_6  and  C_14
REMARK    5  A    between atoms: C_9  and  C_14
REMARK    6  A    between atoms: C_17  and  C_18
REMARK                            x       y       z     vdW  Elec       q    Type
REMARK                         _______ _______ _______ _____ _____    ______ ____
ROOT
ATOM      1  O   UNL     1      -4.666  -9.526  11.840  0.00  0.00    -0.371 OA
ATOM      7  C   UNL     1      -6.584  -9.303  10.455  0.00  0.00    +0.111 C 
ATOM      8  C   UNL     1      -6.994  -9.935  11.772  0.00  0.00    +0.164 C 
ATOM      9  C   UNL     1      -5.838  -9.519  12.671  0.00  0.00    +0.165 C 
ATOM     11  C   UNL     1      -5.082  -9.542  10.462  0.00  0.00    +0.181 C 
ENDROOT
BRANCH   8   2
ATOM      2  O   UNL     1      -8.234  -9.448  12.248  0.00  0.00    -0.388 OA
ATOM     20  H   UNL     1      -8.058  -8.743  12.893  0.00  0.00    +0.210 HD
ENDBRANCH   8   2
BRANCH   7   5
ATOM      5  N   UNL     1      -7.244  -9.883   9.297  0.00  0.00    -0.306 NA
ATOM     19  H   UNL     1      -7.855 -10.646   9.588  0.00  0.00    +0.123 HD
BRANCH   5  10
ATOM      3  O   UNL     1      -9.648  -6.505   8.640  0.00  0.00    -0.380 OA
ATOM     10  C   UNL     1      -8.017  -8.877   8.574  0.00  0.00    +0.058 C 
ATOM     12  C   UNL     1      -9.478  -8.898   9.033  0.00  0.00    +0.047 C 
ATOM     13  C   UNL     1      -7.425  -7.478   8.774  0.00  0.00    +0.047 C 
ATOM     15  C   UNL     1     -10.258  -7.767   8.370  0.00  0.00    +0.161 C 
ATOM     16  C   UNL     1      -8.319  -6.426   8.125  0.00  0.00    +0.161 C 
ENDBRANCH   5  10
ENDBRANCH   7   5
BRANCH   9  14
ATOM     14  C   UNL     1      -5.633 -10.448  13.854  0.00  0.00    +0.138 C 
BRANCH  14   6
ATOM      4  O   UNL     1      -4.998  -9.597  16.557  0.00  0.00    -0.276 OA
ATOM      6  N   UNL     1      -6.553 -10.154  14.914  0.00  0.00    -0.313 N 
ATOM     17  C   UNL     1      -6.157  -9.750  16.185  0.00  0.00    +0.210 C 
ATOM     18  C   UNL     1      -7.325  -9.483  17.097  0.00  0.00    +0.109 C 
ATOM     21  H   UNL     1      -7.545 -10.251  14.717  0.00  0.00    +0.149 HD
ENDBRANCH  14   6
ENDBRANCH   9  14
TORSDOF 5
ENDMDL
MODEL 10
REMARK VINA RESULT:      -3.7      1.801      2.261
REMARK  Name = 75536497
REMARK  6 active torsions:
REMARK  status: ('A' for Active; 'I' for Inactive)
REMARK    1  A    between atoms: O_2  and  C_8
REMARK    2  A    between atoms: N_5  and  C_7
REMARK    3  A    between atoms: N_5  and  C_10
REMARK    4  A    between atoms: N_6  and  C_14
REMARK    5  A    between atoms: C_9  and  C_14
REMARK    6  A    between atoms: C_17  and  C_18
REMARK                            x       y       z     vdW  Elec       q    Type
REMARK                         _______ _______ _______ _____ _____    ______ ____
ROOT
ATOM      1  O   UNL     1      -0.399   1.766  26.057  0.00  0.00    -0.371 OA
ATOM      7  C   UNL     1      -0.222  -0.452  25.222  0.00  0.00    +0.111 C 
ATOM      8  C   UNL     1      -0.331   0.511  24.054  0.00  0.00    +0.164 C 
ATOM      9  C   UNL     1       0.095   1.818  24.708  0.00  0.00    +0.165 C 
ATOM     11  C   UNL     1      -0.746   0.403  26.365  0.00  0.00    +0.181 C 
ENDROOT
BRANCH   8   2
ATOM      2  O   UNL     1       0.517   0.160  22.977  0.00  0.00    -0.388 OA
ATOM     20  H   UNL     1       0.442  -0.798  22.829  0.00  0.00    +0.210 HD
ENDBRANCH   8   2
BRANCH   7   5
ATOM      5  N   UNL     1      -0.979  -1.679  25.041  0.00  0.00    -0.306 NA
ATOM     19  H   UNL     1      -1.190  -2.097  25.946  0.00  0.00    +0.123 HD
BRANCH   5  10
ATOM      3  O   UNL     1      -5.096  -1.358  24.289  0.00  0.00    -0.380 OA
ATOM     10  C   UNL     1      -2.218  -1.429  24.309  0.00  0.00    +0.058 C 
ATOM     12  C   UNL     1      -3.070  -2.700  24.256  0.00  0.00    +0.047 C 
ATOM     13  C   UNL     1      -3.016  -0.290  24.952  0.00  0.00    +0.047 C 
ATOM     15  C   UNL     1      -4.417  -2.409  23.602  0.00  0.00    +0.161 C 
ATOM     16  C   UNL     1      -4.366  -0.132  24.259  0.00  0.00    +0.161 C 
ENDBRANCH   5  10
ENDBRANCH   7   5
BRANCH   9  14
ATOM     14  C   UNL     1      -0.455   3.048  24.008  0.00  0.00    +0.138 C 
BRANCH  14   6
ATOM      4  O   UNL     1      -2.254   4.518  25.749  0.00  0.00    -0.276 OA
ATOM      6  N   UNL     1      -1.889   3.039  23.987  0.00  0.00    -0.313 N 
ATOM     17  C   UNL     1      -2.674   3.779  24.864  0.00  0.00    +0.210 C 
ATOM     18  C   UNL     1      -4.148   3.606  24.606  0.00  0.00    +0.109 C 
ATOM     21  H   UNL     1      -2.346   2.455  23.291  0.00  0.00    +0.149 HD
ENDBRANCH  14   6
ENDBRANCH   9  14
TORSDOF 5
ENDMDL
