MODEL 1
REMARK VINA RESULT:      -6.6      0.000      0.000
REMARK  Name = 56774124
REMARK  8 active torsions:
REMARK  status: ('A' for Active; 'I' for Inactive)
REMARK    1  A    between atoms: O_2  and  C_21
REMARK    2  A    between atoms: N_3  and  C_6
REMARK    3  A    between atoms: N_3  and  C_12
REMARK    4  A    between atoms: C_5  and  C_10
REMARK    5  A    between atoms: C_5  and  C_11
REMARK    6  A    between atoms: C_7  and  C_9
REMARK    7  A    between atoms: C_9  and  C_15
REMARK    8  A    between atoms: C_20  and  C_21
REMARK                            x       y       z     vdW  Elec       q    Type
REMARK                         _______ _______ _______ _____ _____    ______ ____
ROOT
ATOM      5  C   UNL     1      -4.449   3.283  24.906  0.00  0.00    -0.016 C 
ATOM      6  C   UNL     1      -4.586   1.872  25.516  0.00  0.00    +0.060 C 
ATOM      7  C   UNL     1      -3.309   3.527  25.915  0.00  0.00    +0.004 C 
ATOM      8  C   UNL     1      -3.108   1.997  25.940  0.00  0.00    +0.023 C 
ATOM     10  C   UNL     1      -4.033   3.235  23.445  0.00  0.00    +0.013 C 
ATOM     11  C   UNL     1      -5.618   4.232  25.066  0.00  0.00    +0.013 C 
ENDROOT
BRANCH   6   3
ATOM      3  N   UNL     1      -4.697   0.851  24.471  0.00  0.00    -0.310 NA
ATOM     22  H   UNL     1      -5.656   0.603  24.229  0.00  0.00    +0.122 HD
BRANCH   3  12
ATOM     12  C   UNL     1      -3.966  -0.345  24.887  0.00  0.00    +0.054 C 
ATOM     13  C   UNL     1      -2.459  -0.111  24.734  0.00  0.00    +0.019 C 
ATOM     14  C   UNL     1      -4.425  -1.550  24.060  0.00  0.00    +0.019 C 
ATOM     16  C   UNL     1      -1.664  -1.368  25.088  0.00  0.00    +0.002 C 
ATOM     17  C   UNL     1      -3.628  -2.804  24.413  0.00  0.00    +0.002 C 
ATOM     18  C   UNL     1      -2.126  -2.574  24.274  0.00  0.00    +0.000 C 
ENDBRANCH   3  12
ENDBRANCH   6   3
BRANCH   7   9
ATOM      9  C   UNL     1      -2.112   4.310  25.427  0.00  0.00    +0.063 C 
BRANCH   9  15
ATOM      1  O   UNL     1       0.768   2.146  25.633  0.00  0.00    -0.357 OA
ATOM      4  N   UNL     1      -0.197   2.967  26.203  0.00  0.00    -0.083 NA
ATOM     15  C   UNL     1      -0.945   3.385  25.178  0.00  0.00    +0.084 A 
ATOM     19  C   UNL     1      -0.503   2.865  23.949  0.00  0.00    +0.073 A 
ATOM     20  C   UNL     1       0.574   2.093  24.290  0.00  0.00    +0.163 A 
BRANCH  20  21
ATOM     21  C   UNL     1       1.513   1.263  23.525  0.00  0.00    +0.232 C 
BRANCH  21   2
ATOM      2  O   UNL     1       0.994  -0.062  23.375  0.00  0.00    -0.387 OA
ATOM     23  H   UNL     1       1.725  -0.616  23.052  0.00  0.00    +0.210 HD
ENDBRANCH  21   2
ENDBRANCH  20  21
ENDBRANCH   9  15
ENDBRANCH   7   9
TORSDOF 6
ENDMDL
MODEL 2
REMARK VINA RESULT:      -6.3      2.490      4.838
REMARK  Name = 56774124
REMARK  8 active torsions:
REMARK  status: ('A' for Active; 'I' for Inactive)
REMARK    1  A    between atoms: O_2  and  C_21
REMARK    2  A    between atoms: N_3  and  C_6
REMARK    3  A    between atoms: N_3  and  C_12
REMARK    4  A    between atoms: C_5  and  C_10
REMARK    5  A    between atoms: C_5  and  C_11
REMARK    6  A    between atoms: C_7  and  C_9
REMARK    7  A    between atoms: C_9  and  C_15
REMARK    8  A    between atoms: C_20  and  C_21
REMARK                            x       y       z     vdW  Elec       q    Type
REMARK                         _______ _______ _______ _____ _____    ______ ____
ROOT
ATOM      5  C   UNL     1      -0.786   1.144  24.116  0.00  0.00    -0.016 C 
ATOM      6  C   UNL     1      -1.847   0.243  24.783  0.00  0.00    +0.060 C 
ATOM      7  C   UNL     1       0.080  -0.123  23.958  0.00  0.00    +0.004 C 
ATOM      8  C   UNL     1      -1.233  -0.931  23.993  0.00  0.00    +0.023 C 
ATOM     10  C   UNL     1      -1.292   1.759  22.821  0.00  0.00    +0.013 C 
ATOM     11  C   UNL     1      -0.143   2.218  24.968  0.00  0.00    +0.013 C 
ENDROOT
BRANCH   6   3
ATOM      3  N   UNL     1      -3.186   0.523  24.257  0.00  0.00    -0.310 NA
ATOM     22  H   UNL     1      -3.192   0.907  23.313  0.00  0.00    +0.122 HD
BRANCH   3  12
ATOM     12  C   UNL     1      -3.880   1.433  25.167  0.00  0.00    +0.054 C 
ATOM     13  C   UNL     1      -5.387   1.159  25.127  0.00  0.00    +0.019 C 
ATOM     14  C   UNL     1      -3.571   2.885  24.786  0.00  0.00    +0.019 C 
ATOM     16  C   UNL     1      -6.154   2.143  26.009  0.00  0.00    +0.002 C 
ATOM     17  C   UNL     1      -4.340   3.867  25.668  0.00  0.00    +0.002 C 
ATOM     18  C   UNL     1      -5.841   3.592  25.641  0.00  0.00    +0.000 C 
ENDBRANCH   3  12
ENDBRANCH   6   3
BRANCH   7   9
ATOM      9  C   UNL     1       0.871  -0.262  22.676  0.00  0.00    +0.063 C 
BRANCH   9  15
ATOM      1  O   UNL     1       4.074   1.324  23.168  0.00  0.00    -0.357 OA
ATOM      4  N   UNL     1       2.707   1.363  22.926  0.00  0.00    -0.083 NA
ATOM     15  C   UNL     1       2.321   0.083  22.915  0.00  0.00    +0.084 A 
ATOM     19  C   UNL     1       3.392  -0.798  23.141  0.00  0.00    +0.073 A 
ATOM     20  C   UNL     1       4.470   0.031  23.295  0.00  0.00    +0.163 A 
BRANCH  20  21
ATOM     21  C   UNL     1       5.897  -0.194  23.556  0.00  0.00    +0.232 C 
BRANCH  21   2
ATOM      2  O   UNL     1       6.065  -1.041  24.696  0.00  0.00    -0.387 OA
ATOM     23  H   UNL     1       5.560  -1.853  24.520  0.00  0.00    +0.210 HD
ENDBRANCH  21   2
ENDBRANCH  20  21
ENDBRANCH   9  15
ENDBRANCH   7   9
TORSDOF 6
ENDMDL
MODEL 3
REMARK VINA RESULT:      -6.2      1.542      4.483
REMARK  Name = 56774124
REMARK  8 active torsions:
REMARK  status: ('A' for Active; 'I' for Inactive)
REMARK    1  A    between atoms: O_2  and  C_21
REMARK    2  A    between atoms: N_3  and  C_6
REMARK    3  A    between atoms: N_3  and  C_12
REMARK    4  A    between atoms: C_5  and  C_10
REMARK    5  A    between atoms: C_5  and  C_11
REMARK    6  A    between atoms: C_7  and  C_9
REMARK    7  A    between atoms: C_9  and  C_15
REMARK    8  A    between atoms: C_20  and  C_21
REMARK                            x       y       z     vdW  Elec       q    Type
REMARK                         _______ _______ _______ _____ _____    ______ ____
ROOT
ATOM      5  C   UNL     1      -3.172  -1.632  24.924  0.00  0.00    -0.016 C 
ATOM      6  C   UNL     1      -3.977  -0.912  23.822  0.00  0.00    +0.060 C 
ATOM      7  C   UNL     1      -1.899  -1.079  24.251  0.00  0.00    +0.004 C 
ATOM      8  C   UNL     1      -2.782   0.055  23.690  0.00  0.00    +0.023 C 
ATOM     10  C   UNL     1      -3.477  -1.078  26.307  0.00  0.00    +0.013 C 
ATOM     11  C   UNL     1      -3.235  -3.144  24.962  0.00  0.00    +0.013 C 
ENDROOT
BRANCH   6   3
ATOM      3  N   UNL     1      -5.117  -0.185  24.387  0.00  0.00    -0.310 NA
ATOM     22  H   UNL     1      -5.910  -0.094  23.753  0.00  0.00    +0.122 HD
BRANCH   3  12
ATOM     12  C   UNL     1      -4.676   1.139  24.822  0.00  0.00    +0.054 C 
ATOM     13  C   UNL     1      -5.714   1.746  25.772  0.00  0.00    +0.019 C 
ATOM     14  C   UNL     1      -4.448   2.039  23.604  0.00  0.00    +0.019 C 
ATOM     16  C   UNL     1      -5.323   3.163  26.190  0.00  0.00    +0.002 C 
ATOM     17  C   UNL     1      -4.060   3.456  24.023  0.00  0.00    +0.002 C 
ATOM     18  C   UNL     1      -5.084   4.061  24.978  0.00  0.00    +0.000 C 
ENDBRANCH   3  12
ENDBRANCH   6   3
BRANCH   7   9
ATOM      9  C   UNL     1      -0.783  -0.617  25.160  0.00  0.00    +0.063 C 
BRANCH   9  15
ATOM      1  O   UNL     1       0.543   2.555  24.066  0.00  0.00    -0.357 OA
ATOM      4  N   UNL     1       0.525   1.166  24.072  0.00  0.00    -0.083 NA
ATOM     15  C   UNL     1      -0.467   0.837  24.905  0.00  0.00    +0.084 A 
ATOM     19  C   UNL     1      -1.104   1.966  25.448  0.00  0.00    +0.073 A 
ATOM     20  C   UNL     1      -0.433   3.020  24.889  0.00  0.00    +0.163 A 
BRANCH  20  21
ATOM     21  C   UNL     1      -0.555   4.479  25.000  0.00  0.00    +0.232 C 
BRANCH  21   2
ATOM      2  O   UNL     1      -1.772   4.824  25.668  0.00  0.00    -0.387 OA
ATOM     23  H   UNL     1      -1.664   4.571  26.601  0.00  0.00    +0.210 HD
ENDBRANCH  21   2
ENDBRANCH  20  21
ENDBRANCH   9  15
ENDBRANCH   7   9
TORSDOF 6
ENDMDL
MODEL 4
REMARK VINA RESULT:      -6.1      2.370      4.411
REMARK  Name = 56774124
REMARK  8 active torsions:
REMARK  status: ('A' for Active; 'I' for Inactive)
REMARK    1  A    between atoms: O_2  and  C_21
REMARK    2  A    between atoms: N_3  and  C_6
REMARK    3  A    between atoms: N_3  and  C_12
REMARK    4  A    between atoms: C_5  and  C_10
REMARK    5  A    between atoms: C_5  and  C_11
REMARK    6  A    between atoms: C_7  and  C_9
REMARK    7  A    between atoms: C_9  and  C_15
REMARK    8  A    between atoms: C_20  and  C_21
REMARK                            x       y       z     vdW  Elec       q    Type
REMARK                         _______ _______ _______ _____ _____    ______ ____
ROOT
ATOM      5  C   UNL     1       0.226   1.677  24.452  0.00  0.00    -0.016 C 
ATOM      6  C   UNL     1      -0.638   0.416  24.245  0.00  0.00    +0.060 C 
ATOM      7  C   UNL     1      -0.808   2.435  23.595  0.00  0.00    +0.004 C 
ATOM      8  C   UNL     1      -1.834   1.366  24.026  0.00  0.00    +0.023 C 
ATOM     10  C   UNL     1       0.294   2.088  25.914  0.00  0.00    +0.013 C 
ATOM     11  C   UNL     1       1.621   1.675  23.863  0.00  0.00    +0.013 C 
ENDROOT
BRANCH   6   3
ATOM      3  N   UNL     1      -0.829  -0.309  25.504  0.00  0.00    -0.310 NA
ATOM     22  H   UNL     1      -0.062  -0.935  25.747  0.00  0.00    +0.122 HD
BRANCH   3  12
ATOM     12  C   UNL     1      -2.082  -1.060  25.442  0.00  0.00    +0.054 C 
ATOM     13  C   UNL     1      -1.909  -2.285  24.539  0.00  0.00    +0.019 C 
ATOM     14  C   UNL     1      -3.208  -0.152  24.934  0.00  0.00    +0.019 C 
ATOM     16  C   UNL     1      -3.221  -3.054  24.389  0.00  0.00    +0.002 C 
ATOM     17  C   UNL     1      -4.518  -0.923  24.783  0.00  0.00    +0.002 C 
ATOM     18  C   UNL     1      -4.349  -2.151  23.893  0.00  0.00    +0.000 C 
ENDBRANCH   3  12
ENDBRANCH   6   3
BRANCH   7   9
ATOM      9  C   UNL     1      -1.154   3.845  24.017  0.00  0.00    +0.063 C 
BRANCH   9  15
ATOM      1  O   UNL     1      -3.800   4.114  26.456  0.00  0.00    -0.357 OA
ATOM      4  N   UNL     1      -2.469   4.205  26.070  0.00  0.00    -0.083 NA
ATOM     15  C   UNL     1      -2.457   3.859  24.780  0.00  0.00    +0.084 A 
ATOM     19  C   UNL     1      -3.740   3.541  24.302  0.00  0.00    +0.073 A 
ATOM     20  C   UNL     1      -4.548   3.718  25.393  0.00  0.00    +0.163 A 
BRANCH  20  21
ATOM     21  C   UNL     1      -5.990   3.569  25.626  0.00  0.00    +0.232 C 
BRANCH  21   2
ATOM      2  O   UNL     1      -6.246   2.415  26.430  0.00  0.00    -0.387 OA
ATOM     23  H   UNL     1      -7.161   2.140  26.247  0.00  0.00    +0.210 HD
ENDBRANCH  21   2
ENDBRANCH  20  21
ENDBRANCH   9  15
ENDBRANCH   7   9
TORSDOF 6
ENDMDL
MODEL 5
REMARK VINA RESULT:      -6.0      1.544      4.458
REMARK  Name = 56774124
REMARK  8 active torsions:
REMARK  status: ('A' for Active; 'I' for Inactive)
REMARK    1  A    between atoms: O_2  and  C_21
REMARK    2  A    between atoms: N_3  and  C_6
REMARK    3  A    between atoms: N_3  and  C_12
REMARK    4  A    between atoms: C_5  and  C_10
REMARK    5  A    between atoms: C_5  and  C_11
REMARK    6  A    between atoms: C_7  and  C_9
REMARK    7  A    between atoms: C_9  and  C_15
REMARK    8  A    between atoms: C_20  and  C_21
REMARK                            x       y       z     vdW  Elec       q    Type
REMARK                         _______ _______ _______ _____ _____    ______ ____
ROOT
ATOM      5  C   UNL     1      -3.367  -1.490  24.609  0.00  0.00    -0.016 C 
ATOM      6  C   UNL     1      -4.019  -0.272  23.922  0.00  0.00    +0.060 C 
ATOM      7  C   UNL     1      -2.048  -1.075  23.924  0.00  0.00    +0.004 C 
ATOM      8  C   UNL     1      -2.612   0.361  23.882  0.00  0.00    +0.023 C 
ATOM     10  C   UNL     1      -3.385  -1.368  26.124  0.00  0.00    +0.013 C 
ATOM     11  C   UNL     1      -3.856  -2.865  24.208  0.00  0.00    +0.013 C 
ENDROOT
BRANCH   6   3
ATOM      3  N   UNL     1      -4.853   0.483  24.862  0.00  0.00    -0.310 NA
ATOM     22  H   UNL     1      -5.855   0.359  24.723  0.00  0.00    +0.122 HD
BRANCH   3  12
ATOM     12  C   UNL     1      -4.512   1.902  24.776  0.00  0.00    +0.054 C 
ATOM     13  C   UNL     1      -3.139   2.146  25.411  0.00  0.00    +0.019 C 
ATOM     14  C   UNL     1      -5.596   2.741  25.461  0.00  0.00    +0.019 C 
ATOM     16  C   UNL     1      -2.781   3.632  25.408  0.00  0.00    +0.002 C 
ATOM     17  C   UNL     1      -5.236   4.225  25.459  0.00  0.00    +0.002 C 
ATOM     18  C   UNL     1      -3.864   4.472  26.081  0.00  0.00    +0.000 C 
ENDBRANCH   3  12
ENDBRANCH   6   3
BRANCH   7   9
ATOM      9  C   UNL     1      -0.776  -1.228  24.727  0.00  0.00    +0.063 C 
BRANCH   9  15
ATOM      1  O   UNL     1       1.362   1.518  23.777  0.00  0.00    -0.357 OA
ATOM      4  N   UNL     1       0.240   0.994  24.405  0.00  0.00    -0.083 NA
ATOM     15  C   UNL     1       0.300  -0.322  24.180  0.00  0.00    +0.084 A 
ATOM     19  C   UNL     1       1.428  -0.682  23.422  0.00  0.00    +0.073 A 
ATOM     20  C   UNL     1       2.062   0.510  23.195  0.00  0.00    +0.163 A 
BRANCH  20  21
ATOM     21  C   UNL     1       3.288   0.891  22.482  0.00  0.00    +0.232 C 
BRANCH  21   2
ATOM      2  O   UNL     1       4.412   0.837  23.365  0.00  0.00    -0.387 OA
ATOM     23  H   UNL     1       4.075   0.561  24.235  0.00  0.00    +0.210 HD
ENDBRANCH  21   2
ENDBRANCH  20  21
ENDBRANCH   9  15
ENDBRANCH   7   9
TORSDOF 6
ENDMDL
MODEL 6
REMARK VINA RESULT:      -6.0      1.750      4.211
REMARK  Name = 56774124
REMARK  8 active torsions:
REMARK  status: ('A' for Active; 'I' for Inactive)
REMARK    1  A    between atoms: O_2  and  C_21
REMARK    2  A    between atoms: N_3  and  C_6
REMARK    3  A    between atoms: N_3  and  C_12
REMARK    4  A    between atoms: C_5  and  C_10
REMARK    5  A    between atoms: C_5  and  C_11
REMARK    6  A    between atoms: C_7  and  C_9
REMARK    7  A    between atoms: C_9  and  C_15
REMARK    8  A    between atoms: C_20  and  C_21
REMARK                            x       y       z     vdW  Elec       q    Type
REMARK                         _______ _______ _______ _____ _____    ______ ____
ROOT
ATOM      5  C   UNL     1      -4.875   3.408  25.249  0.00  0.00    -0.016 C 
ATOM      6  C   UNL     1      -4.071   3.696  23.963  0.00  0.00    +0.060 C 
ATOM      7  C   UNL     1      -5.289   2.071  24.601  0.00  0.00    +0.004 C 
ATOM      8  C   UNL     1      -3.999   2.168  23.760  0.00  0.00    +0.023 C 
ATOM     10  C   UNL     1      -3.976   3.295  26.470  0.00  0.00    +0.013 C 
ATOM     11  C   UNL     1      -6.041   4.320  25.565  0.00  0.00    +0.013 C 
ENDROOT
BRANCH   6   3
ATOM      3  N   UNL     1      -2.731   4.198  24.276  0.00  0.00    -0.310 NA
ATOM     22  H   UNL     1      -2.312   4.761  23.537  0.00  0.00    +0.122 HD
BRANCH   3  12
ATOM     12  C   UNL     1      -1.857   3.070  24.597  0.00  0.00    +0.054 C 
ATOM     13  C   UNL     1      -0.700   3.544  25.483  0.00  0.00    +0.019 C 
ATOM     14  C   UNL     1      -1.338   2.431  23.304  0.00  0.00    +0.019 C 
ATOM     16  C   UNL     1       0.277   2.407  25.776  0.00  0.00    +0.002 C 
ATOM     17  C   UNL     1      -0.359   1.296  23.599  0.00  0.00    +0.002 C 
ATOM     18  C   UNL     1       0.789   1.760  24.491  0.00  0.00    +0.000 C 
ENDBRANCH   3  12
ENDBRANCH   6   3
BRANCH   7   9
ATOM      9  C   UNL     1      -5.363   0.861  25.503  0.00  0.00    +0.063 C 
BRANCH   9  15
ATOM      1  O   UNL     1      -3.489  -1.826  23.990  0.00  0.00    -0.357 OA
ATOM      4  N   UNL     1      -4.629  -1.044  24.122  0.00  0.00    -0.083 NA
ATOM     15  C   UNL     1      -4.338  -0.167  25.087  0.00  0.00    +0.084 A 
ATOM     19  C   UNL     1      -3.040  -0.347  25.597  0.00  0.00    +0.073 A 
ATOM     20  C   UNL     1      -2.550  -1.401  24.874  0.00  0.00    +0.163 A 
BRANCH  20  21
ATOM     21  C   UNL     1      -1.272  -2.124  24.869  0.00  0.00    +0.232 C 
BRANCH  21   2
ATOM      2  O   UNL     1      -0.306  -1.428  25.662  0.00  0.00    -0.387 OA
ATOM     23  H   UNL     1       0.561  -1.576  25.245  0.00  0.00    +0.210 HD
ENDBRANCH  21   2
ENDBRANCH  20  21
ENDBRANCH   9  15
ENDBRANCH   7   9
TORSDOF 6
ENDMDL
MODEL 7
REMARK VINA RESULT:      -5.6      2.115      4.189
REMARK  Name = 56774124
REMARK  8 active torsions:
REMARK  status: ('A' for Active; 'I' for Inactive)
REMARK    1  A    between atoms: O_2  and  C_21
REMARK    2  A    between atoms: N_3  and  C_6
REMARK    3  A    between atoms: N_3  and  C_12
REMARK    4  A    between atoms: C_5  and  C_10
REMARK    5  A    between atoms: C_5  and  C_11
REMARK    6  A    between atoms: C_7  and  C_9
REMARK    7  A    between atoms: C_9  and  C_15
REMARK    8  A    between atoms: C_20  and  C_21
REMARK                            x       y       z     vdW  Elec       q    Type
REMARK                         _______ _______ _______ _____ _____    ______ ____
ROOT
ATOM      5  C   UNL     1      -2.085   4.235  25.107  0.00  0.00    -0.016 C 
ATOM      6  C   UNL     1      -0.836   3.474  24.615  0.00  0.00    +0.060 C 
ATOM      7  C   UNL     1      -2.844   3.606  23.921  0.00  0.00    +0.004 C 
ATOM      8  C   UNL     1      -1.804   2.466  23.962  0.00  0.00    +0.023 C 
ATOM     10  C   UNL     1      -2.526   3.775  26.487  0.00  0.00    +0.013 C 
ATOM     11  C   UNL     1      -2.043   5.748  25.070  0.00  0.00    +0.013 C 
ENDROOT
BRANCH   6   3
ATOM      3  N   UNL     1      -0.143   2.817  25.727  0.00  0.00    -0.310 NA
ATOM     22  H   UNL     1       0.694   3.304  26.044  0.00  0.00    +0.122 HD
BRANCH   3  12
ATOM     12  C   UNL     1       0.196   1.448  25.341  0.00  0.00    +0.054 C 
ATOM     13  C   UNL     1       0.460   1.384  23.832  0.00  0.00    +0.019 C 
ATOM     14  C   UNL     1      -0.937   0.498  25.745  0.00  0.00    +0.019 C 
ATOM     16  C   UNL     1       0.743  -0.048  23.379  0.00  0.00    +0.002 C 
ATOM     17  C   UNL     1      -0.653  -0.932  25.289  0.00  0.00    +0.002 C 
ATOM     18  C   UNL     1      -0.378  -1.000  23.789  0.00  0.00    +0.000 C 
ENDBRANCH   3  12
ENDBRANCH   6   3
BRANCH   7   9
ATOM      9  C   UNL     1      -4.269   3.166  24.169  0.00  0.00    +0.063 C 
BRANCH   9  15
ATOM      1  O   UNL     1      -4.721  -0.169  25.469  0.00  0.00    -0.357 OA
ATOM      4  N   UNL     1      -4.816   1.213  25.569  0.00  0.00    -0.083 NA
ATOM     15  C   UNL     1      -4.323   1.678  24.417  0.00  0.00    +0.084 A 
ATOM     19  C   UNL     1      -3.904   0.645  23.561  0.00  0.00    +0.073 A 
ATOM     20  C   UNL     1      -4.176  -0.495  24.268  0.00  0.00    +0.163 A 
BRANCH  20  21
ATOM     21  C   UNL     1      -4.003  -1.928  23.995  0.00  0.00    +0.232 C 
BRANCH  21   2
ATOM      2  O   UNL     1      -3.609  -2.615  25.186  0.00  0.00    -0.387 OA
ATOM     23  H   UNL     1      -3.383  -1.934  25.843  0.00  0.00    +0.210 HD
ENDBRANCH  21   2
ENDBRANCH  20  21
ENDBRANCH   9  15
ENDBRANCH   7   9
TORSDOF 6
ENDMDL
MODEL 8
REMARK VINA RESULT:      -5.6      2.356      3.625
REMARK  Name = 56774124
REMARK  8 active torsions:
REMARK  status: ('A' for Active; 'I' for Inactive)
REMARK    1  A    between atoms: O_2  and  C_21
REMARK    2  A    between atoms: N_3  and  C_6
REMARK    3  A    between atoms: N_3  and  C_12
REMARK    4  A    between atoms: C_5  and  C_10
REMARK    5  A    between atoms: C_5  and  C_11
REMARK    6  A    between atoms: C_7  and  C_9
REMARK    7  A    between atoms: C_9  and  C_15
REMARK    8  A    between atoms: C_20  and  C_21
REMARK                            x       y       z     vdW  Elec       q    Type
REMARK                         _______ _______ _______ _____ _____    ______ ____
ROOT
ATOM      5  C   UNL     1      -1.079   1.965  24.137  0.00  0.00    -0.016 C 
ATOM      6  C   UNL     1      -1.913   1.237  25.212  0.00  0.00    +0.060 C 
ATOM      7  C   UNL     1      -0.063   0.810  24.251  0.00  0.00    +0.004 C 
ATOM      8  C   UNL     1      -1.232  -0.067  24.745  0.00  0.00    +0.023 C 
ATOM     10  C   UNL     1      -1.817   2.063  22.811  0.00  0.00    +0.013 C 
ATOM     11  C   UNL     1      -0.504   3.320  24.495  0.00  0.00    +0.013 C 
ENDROOT
BRANCH   6   3
ATOM      3  N   UNL     1      -3.330   1.192  24.843  0.00  0.00    -0.310 NA
ATOM     22  H   UNL     1      -3.921   1.827  25.378  0.00  0.00    +0.122 HD
BRANCH   3  12
ATOM     12  C   UNL     1      -3.821  -0.178  24.982  0.00  0.00    +0.054 C 
ATOM     13  C   UNL     1      -2.890  -0.972  25.905  0.00  0.00    +0.019 C 
ATOM     14  C   UNL     1      -3.924  -0.836  23.602  0.00  0.00    +0.019 C 
ATOM     16  C   UNL     1      -3.329  -2.432  26.013  0.00  0.00    +0.002 C 
ATOM     17  C   UNL     1      -4.361  -2.295  23.712  0.00  0.00    +0.002 C 
ATOM     18  C   UNL     1      -3.444  -3.088  24.640  0.00  0.00    +0.000 C 
ENDBRANCH   3  12
ENDBRANCH   6   3
BRANCH   7   9
ATOM      9  C   UNL     1       0.584   0.332  22.970  0.00  0.00    +0.063 C 
BRANCH   9  15
ATOM      1  O   UNL     1       4.016   1.439  23.110  0.00  0.00    -0.357 OA
ATOM      4  N   UNL     1       2.651   1.674  22.997  0.00  0.00    -0.083 NA
ATOM     15  C   UNL     1       2.085   0.465  23.060  0.00  0.00    +0.084 A 
ATOM     19  C   UNL     1       3.035  -0.561  23.211  0.00  0.00    +0.073 A 
ATOM     20  C   UNL     1       4.231   0.103  23.237  0.00  0.00    +0.163 A 
BRANCH  20  21
ATOM     21  C   UNL     1       5.630  -0.325  23.368  0.00  0.00    +0.232 C 
BRANCH  21   2
ATOM      2  O   UNL     1       5.803  -1.090  24.564  0.00  0.00    -0.387 OA
ATOM     23  H   UNL     1       4.925  -1.424  24.815  0.00  0.00    +0.210 HD
ENDBRANCH  21   2
ENDBRANCH  20  21
ENDBRANCH   9  15
ENDBRANCH   7   9
TORSDOF 6
ENDMDL
MODEL 9
REMARK VINA RESULT:      -5.3      2.603      5.764
REMARK  Name = 56774124
REMARK  8 active torsions:
REMARK  status: ('A' for Active; 'I' for Inactive)
REMARK    1  A    between atoms: O_2  and  C_21
REMARK    2  A    between atoms: N_3  and  C_6
REMARK    3  A    between atoms: N_3  and  C_12
REMARK    4  A    between atoms: C_5  and  C_10
REMARK    5  A    between atoms: C_5  and  C_11
REMARK    6  A    between atoms: C_7  and  C_9
REMARK    7  A    between atoms: C_9  and  C_15
REMARK    8  A    between atoms: C_20  and  C_21
REMARK                            x       y       z     vdW  Elec       q    Type
REMARK                         _______ _______ _______ _____ _____    ______ ____
ROOT
ATOM      5  C   UNL     1      -1.775  -1.315  24.534  0.00  0.00    -0.016 C 
ATOM      6  C   UNL     1      -1.116  -0.714  25.793  0.00  0.00    +0.060 C 
ATOM      7  C   UNL     1      -3.131  -1.118  25.242  0.00  0.00    +0.004 C 
ATOM      8  C   UNL     1      -2.456   0.005  26.056  0.00  0.00    +0.023 C 
ATOM     10  C   UNL     1      -1.546  -0.452  23.303  0.00  0.00    +0.013 C 
ATOM     11  C   UNL     1      -1.464  -2.759  24.202  0.00  0.00    +0.013 C 
ENDROOT
BRANCH   6   3
ATOM      3  N   UNL     1      -0.103   0.283  25.437  0.00  0.00    -0.310 NA
ATOM     22  H   UNL     1       0.611   0.426  26.150  0.00  0.00    +0.122 HD
BRANCH   3  12
ATOM     12  C   UNL     1      -0.762   1.552  25.134  0.00  0.00    +0.054 C 
ATOM     13  C   UNL     1       0.034   2.309  24.065  0.00  0.00    +0.019 C 
ATOM     14  C   UNL     1      -0.901   2.385  26.413  0.00  0.00    +0.019 C 
ATOM     16  C   UNL     1      -0.585   3.676  23.776  0.00  0.00    +0.002 C 
ATOM     17  C   UNL     1      -1.517   3.752  26.122  0.00  0.00    +0.002 C 
ATOM     18  C   UNL     1      -0.735   4.505  25.050  0.00  0.00    +0.000 C 
ENDBRANCH   3  12
ENDBRANCH   6   3
BRANCH   7   9
ATOM      9  C   UNL     1      -4.295  -0.665  24.389  0.00  0.00    +0.063 C 
BRANCH   9  15
ATOM      1  O   UNL     1      -5.957   2.133  25.947  0.00  0.00    -0.357 OA
ATOM      4  N   UNL     1      -5.756   0.772  25.758  0.00  0.00    -0.083 NA
ATOM     15  C   UNL     1      -4.783   0.688  24.846  0.00  0.00    +0.084 A 
ATOM     19  C   UNL     1      -4.336   1.954  24.427  0.00  0.00    +0.073 A 
ATOM     20  C   UNL     1      -5.104   2.827  25.149  0.00  0.00    +0.163 A 
BRANCH  20  21
ATOM     21  C   UNL     1      -5.183   4.291  25.223  0.00  0.00    +0.232 C 
BRANCH  21   2
ATOM      2  O   UNL     1      -6.414   4.691  25.831  0.00  0.00    -0.387 OA
ATOM     23  H   UNL     1      -7.013   3.926  25.784  0.00  0.00    +0.210 HD
ENDBRANCH  21   2
ENDBRANCH  20  21
ENDBRANCH   9  15
ENDBRANCH   7   9
TORSDOF 6
ENDMDL
MODEL 10
REMARK VINA RESULT:      -5.2      3.149      6.245
REMARK  Name = 56774124
REMARK  8 active torsions:
REMARK  status: ('A' for Active; 'I' for Inactive)
REMARK    1  A    between atoms: O_2  and  C_21
REMARK    2  A    between atoms: N_3  and  C_6
REMARK    3  A    between atoms: N_3  and  C_12
REMARK    4  A    between atoms: C_5  and  C_10
REMARK    5  A    between atoms: C_5  and  C_11
REMARK    6  A    between atoms: C_7  and  C_9
REMARK    7  A    between atoms: C_9  and  C_15
REMARK    8  A    between atoms: C_20  and  C_21
REMARK                            x       y       z     vdW  Elec       q    Type
REMARK                         _______ _______ _______ _____ _____    ______ ____
ROOT
ATOM      5  C   UNL     1      -0.585   0.565  24.688  0.00  0.00    -0.016 C 
ATOM      6  C   UNL     1       0.406   0.469  23.508  0.00  0.00    +0.060 C 
ATOM      7  C   UNL     1      -1.649   1.000  23.659  0.00  0.00    +0.004 C 
ATOM      8  C   UNL     1      -0.820   0.247  22.598  0.00  0.00    +0.023 C 
ATOM     10  C   UNL     1      -0.821  -0.785  25.346  0.00  0.00    +0.013 C 
ATOM     11  C   UNL     1      -0.306   1.604  25.753  0.00  0.00    +0.013 C 
ENDROOT
BRANCH   6   3
ATOM      3  N   UNL     1       1.184  -0.772  23.569  0.00  0.00    -0.310 NA
ATOM     22  H   UNL     1       1.230  -1.191  24.497  0.00  0.00    +0.122 HD
BRANCH   3  12
ATOM     12  C   UNL     1       2.535  -0.517  23.072  0.00  0.00    +0.054 C 
ATOM     13  C   UNL     1       3.555  -1.280  23.924  0.00  0.00    +0.019 C 
ATOM     14  C   UNL     1       2.819   0.989  23.086  0.00  0.00    +0.019 C 
ATOM     16  C   UNL     1       4.986  -0.977  23.481  0.00  0.00    +0.002 C 
ATOM     17  C   UNL     1       4.251   1.290  22.645  0.00  0.00    +0.002 C 
ATOM     18  C   UNL     1       5.270   0.523  23.483  0.00  0.00    +0.000 C 
ENDBRANCH   3  12
ENDBRANCH   6   3
BRANCH   7   9
ATOM      9  C   UNL     1      -3.052   0.470  23.854  0.00  0.00    +0.063 C 
BRANCH   9  15
ATOM      1  O   UNL     1      -5.605   2.349  25.579  0.00  0.00    -0.357 OA
ATOM      4  N   UNL     1      -5.061   1.162  25.103  0.00  0.00    -0.083 NA
ATOM     15  C   UNL     1      -3.924   1.521  24.498  0.00  0.00    +0.084 A 
ATOM     19  C   UNL     1      -3.702   2.907  24.560  0.00  0.00    +0.073 A 
ATOM     20  C   UNL     1      -4.786   3.381  25.249  0.00  0.00    +0.163 A 
BRANCH  20  21
ATOM     21  C   UNL     1      -5.213   4.719  25.679  0.00  0.00    +0.232 C 
BRANCH  21   2
ATOM      2  O   UNL     1      -6.635   4.760  25.830  0.00  0.00    -0.387 OA
ATOM     23  H   UNL     1      -6.986   3.953  25.416  0.00  0.00    +0.210 HD
ENDBRANCH  21   2
ENDBRANCH  20  21
ENDBRANCH   9  15
ENDBRANCH   7   9
TORSDOF 6
ENDMDL
