MODEL 1
REMARK VINA RESULT:       7.3      0.000      0.000
REMARK  Name = 7674768
REMARK  5 active torsions:
REMARK  status: ('A' for Active; 'I' for Inactive)
REMARK    1  A    between atoms: O_5  and  C_31
REMARK    2  A    between atoms: O_5  and  C_32
REMARK    3  A    between atoms: N_6  and  C_14
REMARK    4  A    between atoms: N_8  and  C_25
REMARK    5  A    between atoms: C_23  and  C_26
REMARK                            x       y       z     vdW  Elec       q    Type
REMARK                         _______ _______ _______ _____ _____    ______ ____
ROOT
ATOM      4  O   UNL     1       0.540   2.346  25.528  0.00  0.00    -0.267 OA
ATOM      6  N   UNL     1      -4.414   1.607  25.296  0.00  0.00    -0.298 NA
ATOM      7  N   UNL     1      -1.539   2.781  24.566  0.00  0.00    -0.311 N 
ATOM      9  C   UNL     1      -3.468   3.857  25.867  0.00  0.00    +0.024 C 
ATOM     10  C   UNL     1      -3.780   3.244  23.518  0.00  0.00    +0.050 C 
ATOM     11  C   UNL     1      -3.886   4.401  24.507  0.00  0.00    +0.017 C 
ATOM     12  C   UNL     1      -4.396   2.696  26.280  0.00  0.00    +0.090 C 
ATOM     13  C   UNL     1      -4.733   2.106  23.950  0.00  0.00    +0.094 C 
ATOM     15  C   UNL     1      -1.993   3.439  25.801  0.00  0.00    +0.130 C 
ATOM     16  C   UNL     1      -2.352   2.736  23.432  0.00  0.00    +0.026 A 
ATOM     21  C   UNL     1      -1.878   2.230  22.283  0.00  0.00    +0.022 A 
ATOM     22  C   UNL     1      -0.218   2.294  24.558  0.00  0.00    +0.259 A 
ATOM     23  C   UNL     1       0.275   1.702  23.265  0.00  0.00    +0.047 A 
ATOM     24  C   UNL     1      -0.546   1.701  22.204  0.00  0.00    +0.015 A 
ENDROOT
BRANCH   6  14
ATOM      8  N   UNL     1      -4.093  -2.023  24.993  0.00  0.00    -0.305 NA
ATOM     14  C   UNL     1      -5.346   0.551  25.698  0.00  0.00    +0.059 C 
ATOM     17  C   UNL     1      -4.691  -0.368  26.734  0.00  0.00    +0.034 C 
ATOM     18  C   UNL     1      -5.770  -0.276  24.480  0.00  0.00    +0.034 C 
ATOM     19  C   UNL     1      -3.586  -1.240  26.130  0.00  0.00    +0.085 C 
ATOM     20  C   UNL     1      -4.634  -1.151  23.941  0.00  0.00    +0.085 C 
ATOM     25  C   UNL     1      -3.041  -2.885  24.455  0.00  0.00    +0.104 C 
ENDBRANCH   6  14
BRANCH  23  26
ATOM     26  C   UNL     1       1.627   1.124  23.155  0.00  0.00    -0.012 A 
ATOM     27  C   UNL     1       2.722   1.950  22.908  0.00  0.00    +0.012 A 
ATOM     28  C   UNL     1       1.810  -0.252  23.298  0.00  0.00    +0.012 A 
ATOM     29  C   UNL     1       4.001   1.402  22.804  0.00  0.00    +0.046 A 
ATOM     30  C   UNL     1       3.088  -0.801  23.194  0.00  0.00    +0.046 A 
ATOM     31  C   UNL     1       4.184   0.027  22.947  0.00  0.00    +0.130 A 
BRANCH  31   5
ATOM      5  O   UNL     1       5.432  -0.508  22.845  0.00  0.00    -0.406 OA
BRANCH   5  32
ATOM      1  F   UNL     1       6.114   0.949  24.428  0.00  0.00    -0.133 F 
ATOM      2  F   UNL     1       6.206  -1.186  24.888  0.00  0.00    -0.133 F 
ATOM      3  F   UNL     1       7.627  -0.290  23.451  0.00  0.00    -0.133 F 
ATOM     32  C   UNL     1       6.354  -0.274  23.903  0.00  0.00    +0.575 C 
ENDBRANCH   5  32
ENDBRANCH  31   5
ENDBRANCH  23  26
TORSDOF 4
ENDMDL
MODEL 2
REMARK VINA RESULT:       7.9      1.607      3.895
REMARK  Name = 7674768
REMARK  5 active torsions:
REMARK  status: ('A' for Active; 'I' for Inactive)
REMARK    1  A    between atoms: O_5  and  C_31
REMARK    2  A    between atoms: O_5  and  C_32
REMARK    3  A    between atoms: N_6  and  C_14
REMARK    4  A    between atoms: N_8  and  C_25
REMARK    5  A    between atoms: C_23  and  C_26
REMARK                            x       y       z     vdW  Elec       q    Type
REMARK                         _______ _______ _______ _____ _____    ______ ____
ROOT
ATOM      4  O   UNL     1      -0.653   0.288  22.093  0.00  0.00    -0.267 OA
ATOM      6  N   UNL     1      -4.245   1.811  25.242  0.00  0.00    -0.298 NA
ATOM      7  N   UNL     1      -2.220  -0.158  23.760  0.00  0.00    -0.311 N 
ATOM      9  C   UNL     1      -4.739   0.167  23.415  0.00  0.00    +0.024 C 
ATOM     10  C   UNL     1      -3.903  -0.642  25.569  0.00  0.00    +0.050 C 
ATOM     11  C   UNL     1      -4.874  -0.956  24.435  0.00  0.00    +0.017 C 
ATOM     12  C   UNL     1      -5.082   1.521  24.071  0.00  0.00    +0.090 C 
ATOM     13  C   UNL     1      -4.284   0.710  26.216  0.00  0.00    +0.094 C 
ATOM     15  C   UNL     1      -3.321   0.137  22.830  0.00  0.00    +0.130 C 
ATOM     16  C   UNL     1      -2.474  -0.602  25.060  0.00  0.00    +0.026 A 
ATOM     21  C   UNL     1      -1.457  -0.973  25.855  0.00  0.00    +0.022 A 
ATOM     22  C   UNL     1      -0.914  -0.067  23.243  0.00  0.00    +0.259 A 
ATOM     23  C   UNL     1       0.207  -0.457  24.169  0.00  0.00    +0.047 A 
ATOM     24  C   UNL     1      -0.098  -0.892  25.400  0.00  0.00    +0.015 A 
ENDROOT
BRANCH   6  14
ATOM      8  N   UNL     1      -2.462   5.002  25.363  0.00  0.00    -0.305 NA
ATOM     14  C   UNL     1      -4.637   3.077  25.867  0.00  0.00    +0.059 C 
ATOM     17  C   UNL     1      -4.732   4.183  24.811  0.00  0.00    +0.034 C 
ATOM     18  C   UNL     1      -3.617   3.480  26.937  0.00  0.00    +0.034 C 
ATOM     19  C   UNL     1      -3.359   4.597  24.271  0.00  0.00    +0.085 C 
ATOM     20  C   UNL     1      -2.277   3.914  26.335  0.00  0.00    +0.085 C 
ATOM     25  C   UNL     1      -1.171   5.438  24.830  0.00  0.00    +0.104 C 
ENDBRANCH   6  14
BRANCH  23  26
ATOM     26  C   UNL     1       1.616  -0.359  23.747  0.00  0.00    -0.012 A 
ATOM     27  C   UNL     1       2.470  -1.450  23.905  0.00  0.00    +0.012 A 
ATOM     28  C   UNL     1       2.096   0.827  23.190  0.00  0.00    +0.012 A 
ATOM     29  C   UNL     1       3.804  -1.356  23.506  0.00  0.00    +0.046 A 
ATOM     30  C   UNL     1       3.429   0.920  22.790  0.00  0.00    +0.046 A 
ATOM     31  C   UNL     1       4.283  -0.172  22.948  0.00  0.00    +0.130 A 
BRANCH  31   5
ATOM      5  O   UNL     1       5.584  -0.080  22.559  0.00  0.00    -0.406 OA
BRANCH   5  32
ATOM      1  F   UNL     1       6.476   1.245  24.154  0.00  0.00    -0.133 F 
ATOM      2  F   UNL     1       6.417  -0.909  24.522  0.00  0.00    -0.133 F 
ATOM      3  F   UNL     1       7.821  -0.067  23.037  0.00  0.00    -0.133 F 
ATOM     32  C   UNL     1       6.583   0.031  23.567  0.00  0.00    +0.575 C 
ENDBRANCH   5  32
ENDBRANCH  31   5
ENDBRANCH  23  26
TORSDOF 4
ENDMDL
