MODEL 1
REMARK VINA RESULT:       8.2      0.000      0.000
REMARK  Name = 7164901
REMARK  12 active torsions:
REMARK  status: ('A' for Active; 'I' for Inactive)
REMARK    1  A    between atoms: S_1  and  N_10
REMARK    2  A    between atoms: S_1  and  C_25
REMARK    3  A    between atoms: O_6  and  C_30
REMARK    4  A    between atoms: O_6  and  C_40
REMARK    5  A    between atoms: O_8  and  C_39
REMARK    6  A    between atoms: O_8  and  C_41
REMARK    7  A    between atoms: N_11  and  C_13
REMARK    8  A    between atoms: N_12  and  C_26
REMARK    9  A    between atoms: C_16  and  C_24
REMARK   10  A    between atoms: C_26  and  C_27
REMARK   11  A    between atoms: C_26  and  C_30
REMARK   12  A    between atoms: C_27  and  C_31
REMARK                            x       y       z     vdW  Elec       q    Type
REMARK                         _______ _______ _______ _____ _____    ______ ____
ROOT
ATOM      2  O   UNL     1       1.379  -0.369  21.253  0.00  0.00    -0.253 OA
ATOM      9  N   UNL     1       0.323  -0.397  23.325  0.00  0.00    -0.272 N 
ATOM     10  N   UNL     1      -2.080  -0.797  24.831  0.00  0.00    -0.173 NA
ATOM     11  N   UNL     1       2.681  -0.542  23.133  0.00  0.00    -0.296 N 
ATOM     16  C   UNL     1       0.360  -0.308  24.796  0.00  0.00    +0.179 C 
ATOM     20  C   UNL     1      -0.769  -1.079  25.483  0.00  0.00    +0.141 C 
ATOM     21  C   UNL     1      -1.000  -0.276  22.700  0.00  0.00    +0.127 C 
ATOM     22  C   UNL     1      -2.044  -1.143  23.385  0.00  0.00    +0.128 C 
ATOM     23  C   UNL     1       1.456  -0.434  22.485  0.00  0.00    +0.303 C 
ATOM     42  H   UNL     1       2.744  -0.428  24.135  0.00  0.00    +0.151 HD
ENDROOT
BRANCH  11  13
ATOM     13  C   UNL     1       3.934  -0.586  22.411  0.00  0.00    +0.074 C 
ATOM     14  C   UNL     1       4.939  -1.509  23.108  0.00  0.00    +0.022 C 
ATOM     15  C   UNL     1       4.510   0.822  22.224  0.00  0.00    +0.022 C 
ATOM     17  C   UNL     1       5.476  -0.915  24.409  0.00  0.00    +0.002 C 
ATOM     18  C   UNL     1       5.047   1.413  23.527  0.00  0.00    +0.002 C 
ATOM     19  C   UNL     1       6.055   0.481  24.194  0.00  0.00    +0.000 C 
ENDBRANCH  11  13
BRANCH  16  24
ATOM      5  O   UNL     1       0.522   2.022  24.294  0.00  0.00    -0.274 OA
ATOM     12  N   UNL     1       0.066   1.370  26.482  0.00  0.00    -0.301 N 
ATOM     24  C   UNL     1       0.322   1.153  25.138  0.00  0.00    +0.236 C 
ATOM     43  H   UNL     1      -0.104   0.574  27.090  0.00  0.00    +0.150 HD
BRANCH  12  26
ATOM     26  C   UNL     1       0.000   2.688  27.072  0.00  0.00    +0.186 C 
BRANCH  26  30
ATOM      7  O   UNL     1       0.320   2.662  29.467  0.00  0.00    -0.249 OA
ATOM     30  C   UNL     1       0.817   2.790  28.352  0.00  0.00    +0.328 C 
BRANCH  30   6
ATOM      6  O   UNL     1       2.130   3.056  28.105  0.00  0.00    -0.467 OA
ATOM     40  C   UNL     1       3.044   2.697  29.146  0.00  0.00    +0.280 C 
ENDBRANCH  30   6
ENDBRANCH  26  30
BRANCH  26  27
ATOM     27  C   UNL     1      -1.454   3.135  27.278  0.00  0.00    +0.069 C 
BRANCH  27  31
ATOM     31  C   UNL     1      -2.222   3.395  26.002  0.00  0.00    -0.045 A 
ATOM     35  C   UNL     1      -2.068   2.543  24.909  0.00  0.00    +0.007 A 
ATOM     36  C   UNL     1      -3.085   4.488  25.919  0.00  0.00    +0.007 A 
ATOM     37  C   UNL     1      -2.777   2.784  23.731  0.00  0.00    +0.046 A 
ATOM     38  C   UNL     1      -3.794   4.729  24.741  0.00  0.00    +0.046 A 
ATOM     39  C   UNL     1      -3.640   3.876  23.648  0.00  0.00    +0.120 A 
BRANCH  39   8
ATOM      8  O   UNL     1      -4.331   4.111  22.499  0.00  0.00    -0.495 OA
ATOM     41  C   UNL     1      -3.939   3.373  21.343  0.00  0.00    +0.277 C 
ENDBRANCH  39   8
ENDBRANCH  27  31
ENDBRANCH  26  27
ENDBRANCH  12  26
ENDBRANCH  16  24
BRANCH  10   1
ATOM      1  S   UNL     1      -3.459  -1.346  25.686  0.00  0.00    +0.061 S 
ATOM      3  O   UNL     1      -3.153  -1.386  27.100  0.00  0.00    -0.153 OA
ATOM      4  O   UNL     1      -4.000  -2.504  25.007  0.00  0.00    -0.153 OA
BRANCH   1  25
ATOM     25  C   UNL     1      -4.555   0.010  25.409  0.00  0.00    +0.105 A 
ATOM     28  C   UNL     1      -5.085   0.228  24.138  0.00  0.00    +0.028 A 
ATOM     29  C   UNL     1      -4.891   0.860  26.462  0.00  0.00    +0.028 A 
ATOM     32  C   UNL     1      -5.952   1.300  23.919  0.00  0.00    +0.002 A 
ATOM     33  C   UNL     1      -5.758   1.930  26.243  0.00  0.00    +0.002 A 
ATOM     34  C   UNL     1      -6.289   2.150  24.972  0.00  0.00    +0.000 A 
ENDBRANCH   1  25
ENDBRANCH  10   1
TORSDOF 10
ENDMDL
MODEL 2
REMARK VINA RESULT:       8.8      1.382      4.171
REMARK  Name = 7164901
REMARK  12 active torsions:
REMARK  status: ('A' for Active; 'I' for Inactive)
REMARK    1  A    between atoms: S_1  and  N_10
REMARK    2  A    between atoms: S_1  and  C_25
REMARK    3  A    between atoms: O_6  and  C_30
REMARK    4  A    between atoms: O_6  and  C_40
REMARK    5  A    between atoms: O_8  and  C_39
REMARK    6  A    between atoms: O_8  and  C_41
REMARK    7  A    between atoms: N_11  and  C_13
REMARK    8  A    between atoms: N_12  and  C_26
REMARK    9  A    between atoms: C_16  and  C_24
REMARK   10  A    between atoms: C_26  and  C_27
REMARK   11  A    between atoms: C_26  and  C_30
REMARK   12  A    between atoms: C_27  and  C_31
REMARK                            x       y       z     vdW  Elec       q    Type
REMARK                         _______ _______ _______ _____ _____    ______ ____
ROOT
ATOM      2  O   UNL     1       1.461  -0.453  21.139  0.00  0.00    -0.253 OA
ATOM      9  N   UNL     1       0.218  -0.333  23.101  0.00  0.00    -0.272 N 
ATOM     10  N   UNL     1      -2.345  -0.462  24.376  0.00  0.00    -0.173 NA
ATOM     11  N   UNL     1       2.557  -0.714  23.137  0.00  0.00    -0.296 N 
ATOM     16  C   UNL     1       0.125  -0.217  24.568  0.00  0.00    +0.179 C 
ATOM     20  C   UNL     1      -1.135  -0.858  25.152  0.00  0.00    +0.141 C 
ATOM     21  C   UNL     1      -1.022  -0.096  22.351  0.00  0.00    +0.127 C 
ATOM     22  C   UNL     1      -2.208  -0.841  22.943  0.00  0.00    +0.128 C 
ATOM     23  C   UNL     1       1.415  -0.499  22.373  0.00  0.00    +0.303 C 
ATOM     42  H   UNL     1       2.537  -0.585  24.138  0.00  0.00    +0.151 HD
ENDROOT
BRANCH  11  13
ATOM     13  C   UNL     1       3.861  -0.895  22.538  0.00  0.00    +0.074 C 
ATOM     14  C   UNL     1       4.823  -1.585  23.512  0.00  0.00    +0.022 C 
ATOM     15  C   UNL     1       4.431   0.439  22.045  0.00  0.00    +0.022 C 
ATOM     17  C   UNL     1       5.251  -0.669  24.657  0.00  0.00    +0.002 C 
ATOM     18  C   UNL     1       4.860   1.352  23.194  0.00  0.00    +0.002 C 
ATOM     19  C   UNL     1       5.826   0.647  24.142  0.00  0.00    +0.000 C 
ENDBRANCH  11  13
BRANCH  16  24
ATOM      5  O   UNL     1       1.129   1.949  24.495  0.00  0.00    -0.274 OA
ATOM     12  N   UNL     1      -0.860   1.668  25.672  0.00  0.00    -0.301 N 
ATOM     24  C   UNL     1       0.201   1.248  24.888  0.00  0.00    +0.236 C 
ATOM     43  H   UNL     1      -1.586   1.003  25.924  0.00  0.00    +0.150 HD
BRANCH  12  26
ATOM     26  C   UNL     1      -1.009   3.029  26.137  0.00  0.00    +0.186 C 
BRANCH  26  30
ATOM      7  O   UNL     1      -1.505   3.822  23.909  0.00  0.00    -0.249 OA
ATOM     30  C   UNL     1      -1.705   3.917  25.116  0.00  0.00    +0.328 C 
BRANCH  30   6
ATOM      6  O   UNL     1      -2.540   4.819  25.704  0.00  0.00    -0.467 OA
ATOM     40  C   UNL     1      -3.218   4.365  26.880  0.00  0.00    +0.280 C 
ENDBRANCH  30   6
ENDBRANCH  26  30
BRANCH  26  27
ATOM     27  C   UNL     1       0.337   3.614  26.588  0.00  0.00    +0.069 C 
BRANCH  27  31
ATOM     31  C   UNL     1       0.840   3.092  27.914  0.00  0.00    -0.045 A 
ATOM     35  C   UNL     1       2.201   2.843  28.095  0.00  0.00    +0.007 A 
ATOM     36  C   UNL     1      -0.056   2.860  28.958  0.00  0.00    +0.007 A 
ATOM     37  C   UNL     1       2.665   2.361  29.320  0.00  0.00    +0.046 A 
ATOM     38  C   UNL     1       0.408   2.379  30.182  0.00  0.00    +0.046 A 
ATOM     39  C   UNL     1       1.769   2.131  30.363  0.00  0.00    +0.120 A 
BRANCH  39   8
ATOM      8  O   UNL     1       2.222   1.661  31.558  0.00  0.00    -0.495 OA
ATOM     41  C   UNL     1       1.344   1.777  32.676  0.00  0.00    +0.277 C 
ENDBRANCH  39   8
ENDBRANCH  27  31
ENDBRANCH  26  27
ENDBRANCH  12  26
ENDBRANCH  16  24
BRANCH  10   1
ATOM      1  S   UNL     1      -3.845  -0.856  25.101  0.00  0.00    +0.061 S 
ATOM      3  O   UNL     1      -3.617  -1.247  26.475  0.00  0.00    -0.153 OA
ATOM      4  O   UNL     1      -4.594  -1.704  24.199  0.00  0.00    -0.153 OA
BRANCH   1  25
ATOM     25  C   UNL     1      -4.609   0.736  25.112  0.00  0.00    +0.105 A 
ATOM     28  C   UNL     1      -5.588   1.033  26.060  0.00  0.00    +0.028 A 
ATOM     29  C   UNL     1      -4.231   1.697  24.174  0.00  0.00    +0.028 A 
ATOM     32  C   UNL     1      -6.191   2.291  26.069  0.00  0.00    +0.002 A 
ATOM     33  C   UNL     1      -4.833   2.955  24.184  0.00  0.00    +0.002 A 
ATOM     34  C   UNL     1      -5.813   3.252  25.132  0.00  0.00    +0.000 A 
ENDBRANCH   1  25
ENDBRANCH  10   1
TORSDOF 10
ENDMDL
MODEL 3
REMARK VINA RESULT:      10.4      1.571      2.198
REMARK  Name = 7164901
REMARK  12 active torsions:
REMARK  status: ('A' for Active; 'I' for Inactive)
REMARK    1  A    between atoms: S_1  and  N_10
REMARK    2  A    between atoms: S_1  and  C_25
REMARK    3  A    between atoms: O_6  and  C_30
REMARK    4  A    between atoms: O_6  and  C_40
REMARK    5  A    between atoms: O_8  and  C_39
REMARK    6  A    between atoms: O_8  and  C_41
REMARK    7  A    between atoms: N_11  and  C_13
REMARK    8  A    between atoms: N_12  and  C_26
REMARK    9  A    between atoms: C_16  and  C_24
REMARK   10  A    between atoms: C_26  and  C_27
REMARK   11  A    between atoms: C_26  and  C_30
REMARK   12  A    between atoms: C_27  and  C_31
REMARK                            x       y       z     vdW  Elec       q    Type
REMARK                         _______ _______ _______ _____ _____    ______ ____
ROOT
ATOM      2  O   UNL     1       1.891   0.042  21.268  0.00  0.00    -0.253 OA
ATOM      9  N   UNL     1       0.522   0.191  23.142  0.00  0.00    -0.272 N 
ATOM     10  N   UNL     1      -2.125   0.415  24.217  0.00  0.00    -0.173 NA
ATOM     11  N   UNL     1       2.742  -0.624  23.291  0.00  0.00    -0.296 N 
ATOM     16  C   UNL     1       0.322   0.171  24.603  0.00  0.00    +0.179 C 
ATOM     20  C   UNL     1      -1.079  -0.278  25.022  0.00  0.00    +0.141 C 
ATOM     21  C   UNL     1      -0.585   0.733  22.344  0.00  0.00    +0.127 C 
ATOM     22  C   UNL     1      -1.932   0.167  22.763  0.00  0.00    +0.128 C 
ATOM     23  C   UNL     1       1.729  -0.121  22.482  0.00  0.00    +0.303 C 
ATOM     42  H   UNL     1       2.657  -0.597  24.297  0.00  0.00    +0.151 HD
ENDROOT
BRANCH  11  13
ATOM     13  C   UNL     1       4.040  -0.985  22.764  0.00  0.00    +0.074 C 
ATOM     14  C   UNL     1       4.913  -1.629  23.846  0.00  0.00    +0.022 C 
ATOM     15  C   UNL     1       4.736   0.228  22.138  0.00  0.00    +0.022 C 
ATOM     17  C   UNL     1       5.391  -0.621  24.890  0.00  0.00    +0.002 C 
ATOM     18  C   UNL     1       5.215   1.234  23.185  0.00  0.00    +0.002 C 
ATOM     19  C   UNL     1       6.092   0.570  24.244  0.00  0.00    +0.000 C 
ENDBRANCH  11  13
BRANCH  16  24
ATOM      5  O   UNL     1       1.142   2.403  24.370  0.00  0.00    -0.274 OA
ATOM     12  N   UNL     1       0.296   1.722  26.430  0.00  0.00    -0.301 N 
ATOM     24  C   UNL     1       0.631   1.555  25.096  0.00  0.00    +0.236 C 
ATOM     43  H   UNL     1      -0.141   0.954  26.932  0.00  0.00    +0.150 HD
BRANCH  12  26
ATOM     26  C   UNL     1       0.515   2.955  27.151  0.00  0.00    +0.186 C 
BRANCH  26  30
ATOM      7  O   UNL     1       2.656   2.826  28.265  0.00  0.00    -0.249 OA
ATOM     30  C   UNL     1       1.433   2.769  28.351  0.00  0.00    +0.328 C 
BRANCH  30   6
ATOM      6  O   UNL     1       0.738   2.519  29.496  0.00  0.00    -0.467 OA
ATOM     40  C   UNL     1       1.505   2.004  30.589  0.00  0.00    +0.280 C 
ENDBRANCH  30   6
ENDBRANCH  26  30
BRANCH  26  27
ATOM     27  C   UNL     1      -0.815   3.617  27.540  0.00  0.00    +0.069 C 
BRANCH  27  31
ATOM     31  C   UNL     1      -1.807   3.753  26.407  0.00  0.00    -0.045 A 
ATOM     35  C   UNL     1      -1.354   3.900  25.096  0.00  0.00    +0.007 A 
ATOM     36  C   UNL     1      -3.176   3.734  26.674  0.00  0.00    +0.007 A 
ATOM     37  C   UNL     1      -2.270   4.026  24.052  0.00  0.00    +0.046 A 
ATOM     38  C   UNL     1      -4.092   3.860  25.629  0.00  0.00    +0.046 A 
ATOM     39  C   UNL     1      -3.639   4.005  24.318  0.00  0.00    +0.120 A 
BRANCH  39   8
ATOM      8  O   UNL     1      -4.532   4.128  23.298  0.00  0.00    -0.495 OA
ATOM     41  C   UNL     1      -4.148   3.598  22.031  0.00  0.00    +0.277 C 
ENDBRANCH  39   8
ENDBRANCH  27  31
ENDBRANCH  26  27
ENDBRANCH  12  26
ENDBRANCH  16  24
BRANCH  10   1
ATOM      1  S   UNL     1      -3.729   0.239  24.788  0.00  0.00    +0.061 S 
ATOM      3  O   UNL     1      -4.627   0.949  23.903  0.00  0.00    -0.153 OA
ATOM      4  O   UNL     1      -3.747   0.476  26.216  0.00  0.00    -0.153 OA
BRANCH   1  25
ATOM     25  C   UNL     1      -3.964  -1.491  24.520  0.00  0.00    +0.105 A 
ATOM     28  C   UNL     1      -4.755  -1.930  23.460  0.00  0.00    +0.028 A 
ATOM     29  C   UNL     1      -3.355  -2.416  25.368  0.00  0.00    +0.028 A 
ATOM     32  C   UNL     1      -4.940  -3.297  23.248  0.00  0.00    +0.002 A 
ATOM     33  C   UNL     1      -3.539  -3.782  25.155  0.00  0.00    +0.002 A 
ATOM     34  C   UNL     1      -4.331  -4.223  24.095  0.00  0.00    +0.000 A 
ENDBRANCH   1  25
ENDBRANCH  10   1
TORSDOF 10
ENDMDL
MODEL 4
REMARK VINA RESULT:      10.5      1.974      3.380
REMARK  Name = 7164901
REMARK  12 active torsions:
REMARK  status: ('A' for Active; 'I' for Inactive)
REMARK    1  A    between atoms: S_1  and  N_10
REMARK    2  A    between atoms: S_1  and  C_25
REMARK    3  A    between atoms: O_6  and  C_30
REMARK    4  A    between atoms: O_6  and  C_40
REMARK    5  A    between atoms: O_8  and  C_39
REMARK    6  A    between atoms: O_8  and  C_41
REMARK    7  A    between atoms: N_11  and  C_13
REMARK    8  A    between atoms: N_12  and  C_26
REMARK    9  A    between atoms: C_16  and  C_24
REMARK   10  A    between atoms: C_26  and  C_27
REMARK   11  A    between atoms: C_26  and  C_30
REMARK   12  A    between atoms: C_27  and  C_31
REMARK                            x       y       z     vdW  Elec       q    Type
REMARK                         _______ _______ _______ _____ _____    ______ ____
ROOT
ATOM      2  O   UNL     1       1.861   0.013  21.569  0.00  0.00    -0.253 OA
ATOM      9  N   UNL     1       0.656   0.332  23.532  0.00  0.00    -0.272 N 
ATOM     10  N   UNL     1      -1.734  -0.160  25.034  0.00  0.00    -0.173 NA
ATOM     11  N   UNL     1       2.999   0.677  23.447  0.00  0.00    -0.296 N 
ATOM     16  C   UNL     1       0.543   0.839  24.913  0.00  0.00    +0.179 C 
ATOM     20  C   UNL     1      -0.456   0.057  25.769  0.00  0.00    +0.141 C 
ATOM     21  C   UNL     1      -0.603  -0.031  22.869  0.00  0.00    +0.127 C 
ATOM     22  C   UNL     1      -1.499  -0.883  23.755  0.00  0.00    +0.128 C 
ATOM     23  C   UNL     1       1.841   0.318  22.767  0.00  0.00    +0.303 C 
ATOM     42  H   UNL     1       2.948   1.080  24.371  0.00  0.00    +0.151 HD
ENDROOT
BRANCH  11  13
ATOM     13  C   UNL     1       4.291   0.717  22.799  0.00  0.00    +0.074 C 
ATOM     14  C   UNL     1       4.703  -0.675  22.306  0.00  0.00    +0.022 C 
ATOM     15  C   UNL     1       5.354   1.314  23.726  0.00  0.00    +0.022 C 
ATOM     17  C   UNL     1       5.080  -1.613  23.451  0.00  0.00    +0.002 C 
ATOM     18  C   UNL     1       5.730   0.372  24.870  0.00  0.00    +0.002 C 
ATOM     19  C   UNL     1       6.148  -1.001  24.353  0.00  0.00    +0.000 C 
ENDBRANCH  11  13
BRANCH  16  24
ATOM      5  O   UNL     1       0.846   3.171  25.328  0.00  0.00    -0.274 OA
ATOM     12  N   UNL     1      -1.005   2.476  24.098  0.00  0.00    -0.301 N 
ATOM     24  C   UNL     1       0.168   2.288  24.808  0.00  0.00    +0.236 C 
ATOM     43  H   UNL     1      -1.476   1.671  23.694  0.00  0.00    +0.150 HD
BRANCH  12  26
ATOM     26  C   UNL     1      -1.595   3.777  23.875  0.00  0.00    +0.186 C 
BRANCH  26  30
ATOM      7  O   UNL     1      -1.631   5.803  25.191  0.00  0.00    -0.249 OA
ATOM     30  C   UNL     1      -1.730   4.580  25.161  0.00  0.00    +0.328 C 
BRANCH  30   6
ATOM      6  O   UNL     1      -1.948   3.783  26.244  0.00  0.00    -0.467 OA
ATOM     40  C   UNL     1      -2.837   4.310  27.235  0.00  0.00    +0.280 C 
ENDBRANCH  30   6
ENDBRANCH  26  30
BRANCH  26  27
ATOM     27  C   UNL     1      -2.929   3.663  23.123  0.00  0.00    +0.069 C 
BRANCH  27  31
ATOM     31  C   UNL     1      -4.089   3.183  23.965  0.00  0.00    -0.045 A 
ATOM     35  C   UNL     1      -4.560   1.878  23.824  0.00  0.00    +0.007 A 
ATOM     36  C   UNL     1      -4.689   4.046  24.882  0.00  0.00    +0.007 A 
ATOM     37  C   UNL     1      -5.631   1.435  24.601  0.00  0.00    +0.046 A 
ATOM     38  C   UNL     1      -5.760   3.604  25.659  0.00  0.00    +0.046 A 
ATOM     39  C   UNL     1      -6.230   2.298  25.519  0.00  0.00    +0.120 A 
BRANCH  39   8
ATOM      8  O   UNL     1      -7.275   1.866  26.277  0.00  0.00    -0.495 OA
ATOM     41  C   UNL     1      -6.965   1.303  27.551  0.00  0.00    +0.277 C 
ENDBRANCH  39   8
ENDBRANCH  27  31
ENDBRANCH  26  27
ENDBRANCH  12  26
ENDBRANCH  16  24
BRANCH  10   1
ATOM      1  S   UNL     1      -3.036  -0.744  25.980  0.00  0.00    +0.061 S 
ATOM      3  O   UNL     1      -4.042   0.291  26.090  0.00  0.00    -0.153 OA
ATOM      4  O   UNL     1      -2.505  -1.394  27.159  0.00  0.00    -0.153 OA
BRANCH   1  25
ATOM     25  C   UNL     1      -3.664  -1.995  24.904  0.00  0.00    +0.105 A 
ATOM     28  C   UNL     1      -3.235  -3.314  25.045  0.00  0.00    +0.028 A 
ATOM     29  C   UNL     1      -4.589  -1.663  23.914  0.00  0.00    +0.028 A 
ATOM     32  C   UNL     1      -3.732  -4.303  24.195  0.00  0.00    +0.002 A 
ATOM     33  C   UNL     1      -5.086  -2.651  23.066  0.00  0.00    +0.002 A 
ATOM     34  C   UNL     1      -4.657  -3.972  23.206  0.00  0.00    +0.000 A 
ENDBRANCH   1  25
ENDBRANCH  10   1
TORSDOF 10
ENDMDL
