MODEL 1
REMARK VINA RESULT:      -6.0      0.000      0.000
REMARK  Name = 75366994
REMARK  8 active torsions:
REMARK  status: ('A' for Active; 'I' for Inactive)
REMARK    1  A    between atoms: O_2  and  C_8
REMARK    2  A    between atoms: O_4  and  C_17
REMARK    3  A    between atoms: O_4  and  C_18
REMARK    4  A    between atoms: N_5  and  C_13
REMARK    5  A    between atoms: C_7  and  C_12
REMARK    6  A    between atoms: C_9  and  C_13
REMARK    7  A    between atoms: C_12  and  C_14
REMARK    8  A    between atoms: C_16  and  C_17
REMARK                            x       y       z     vdW  Elec       q    Type
REMARK                         _______ _______ _______ _____ _____    ______ ____
ROOT
ATOM     12  C   UNL     1      -4.449  -0.647  23.851  0.00  0.00    +0.090 C 
ENDROOT
BRANCH  12   7
ATOM      1  O   UNL     1      -2.258   0.108  24.400  0.00  0.00    -0.369 OA
ATOM      7  C   UNL     1      -2.975  -1.030  23.916  0.00  0.00    +0.125 C 
ATOM      8  C   UNL     1      -0.506  -1.283  25.405  0.00  0.00    +0.145 C 
ATOM      9  C   UNL     1      -0.841  -0.073  24.523  0.00  0.00    +0.160 C 
ATOM     10  C   UNL     1      -2.764  -2.232  24.835  0.00  0.00    +0.034 C 
ATOM     11  C   UNL     1      -1.276  -2.534  24.992  0.00  0.00    +0.036 C 
BRANCH   8   2
ATOM      2  O   UNL     1      -0.860  -0.979  26.757  0.00  0.00    -0.389 OA
ATOM     24  H   UNL     1      -1.581  -1.579  27.014  0.00  0.00    +0.210 HD
ENDBRANCH   8   2
BRANCH   9  13
ATOM     13  C   UNL     1      -0.171  -0.132  23.152  0.00  0.00    +0.112 C 
BRANCH  13   5
ATOM      5  N   UNL     1       1.269   0.045  23.271  0.00  0.00    -0.328 NA
ATOM     25  H   UNL     1       1.479   0.608  24.093  0.00  0.00    +0.118 HD
ATOM     26  H   UNL     1       1.614   0.568  22.467  0.00  0.00    +0.118 HD
ENDBRANCH  13   5
ENDBRANCH   9  13
ENDBRANCH  12   7
BRANCH  12  14
ATOM      3  O   UNL     1      -5.499   1.990  26.072  0.00  0.00    -0.356 OA
ATOM      6  N   UNL     1      -5.445   0.656  25.685  0.00  0.00    -0.083 NA
ATOM     14  C   UNL     1      -4.720   0.650  24.563  0.00  0.00    +0.086 A 
ATOM     15  C   UNL     1      -4.292   1.938  24.197  0.00  0.00    +0.074 A 
ATOM     16  C   UNL     1      -4.808   2.743  25.179  0.00  0.00    +0.175 A 
BRANCH  16  17
ATOM     17  C   UNL     1      -4.762   4.188  25.437  0.00  0.00    +0.306 C 
BRANCH  17   4
ATOM      4  O   UNL     1      -3.697   4.497  26.341  0.00  0.00    -0.484 OA
BRANCH   4  18
ATOM     18  C   UNL     1      -2.431   4.223  25.907  0.00  0.00    +0.121 A 
ATOM     19  C   UNL     1      -1.777   3.072  26.346  0.00  0.00    +0.045 A 
ATOM     20  C   UNL     1      -1.793   5.094  25.024  0.00  0.00    +0.045 A 
ATOM     21  C   UNL     1      -0.484   2.793  25.903  0.00  0.00    +0.004 A 
ATOM     22  C   UNL     1      -0.500   4.815  24.581  0.00  0.00    +0.004 A 
ATOM     23  C   UNL     1       0.155   3.664  25.020  0.00  0.00    +0.000 A 
ENDBRANCH   4  18
ENDBRANCH  17   4
ENDBRANCH  16  17
ENDBRANCH  12  14
TORSDOF 8
ENDMDL
MODEL 2
REMARK VINA RESULT:      -5.2      3.129      6.340
REMARK  Name = 75366994
REMARK  8 active torsions:
REMARK  status: ('A' for Active; 'I' for Inactive)
REMARK    1  A    between atoms: O_2  and  C_8
REMARK    2  A    between atoms: O_4  and  C_17
REMARK    3  A    between atoms: O_4  and  C_18
REMARK    4  A    between atoms: N_5  and  C_13
REMARK    5  A    between atoms: C_7  and  C_12
REMARK    6  A    between atoms: C_9  and  C_13
REMARK    7  A    between atoms: C_12  and  C_14
REMARK    8  A    between atoms: C_16  and  C_17
REMARK                            x       y       z     vdW  Elec       q    Type
REMARK                         _______ _______ _______ _____ _____    ______ ____
ROOT
ATOM     12  C   UNL     1      -1.054   2.209  26.015  0.00  0.00    +0.090 C 
ENDROOT
BRANCH  12   7
ATOM      1  O   UNL     1      -3.172   1.972  24.951  0.00  0.00    -0.369 OA
ATOM      7  C   UNL     1      -2.225   2.952  25.384  0.00  0.00    +0.125 C 
ATOM      8  C   UNL     1      -5.062   3.508  25.233  0.00  0.00    +0.145 C 
ATOM      9  C   UNL     1      -4.349   2.498  24.324  0.00  0.00    +0.160 C 
ATOM     10  C   UNL     1      -2.864   3.912  26.387  0.00  0.00    +0.034 C 
ATOM     11  C   UNL     1      -4.109   4.562  25.790  0.00  0.00    +0.036 C 
BRANCH   8   2
ATOM      2  O   UNL     1      -5.633   2.807  26.342  0.00  0.00    -0.389 OA
ATOM     24  H   UNL     1      -5.602   3.400  27.112  0.00  0.00    +0.210 HD
ENDBRANCH   8   2
BRANCH   9  13
ATOM     13  C   UNL     1      -4.033   3.062  22.940  0.00  0.00    +0.112 C 
BRANCH  13   5
ATOM      5  N   UNL     1      -2.980   2.292  22.295  0.00  0.00    -0.328 NA
ATOM     25  H   UNL     1      -2.132   2.853  22.231  0.00  0.00    +0.118 HD
ATOM     26  H   UNL     1      -3.255   2.076  21.337  0.00  0.00    +0.118 HD
ENDBRANCH  13   5
ENDBRANCH   9  13
ENDBRANCH  12   7
BRANCH  12  14
ATOM      3  O   UNL     1      -0.106  -0.866  24.391  0.00  0.00    -0.356 OA
ATOM      6  N   UNL     1      -0.707  -0.154  25.423  0.00  0.00    -0.083 NA
ATOM     14  C   UNL     1      -0.524   1.131  25.108  0.00  0.00    +0.086 A 
ATOM     15  C   UNL     1       0.177   1.291  23.900  0.00  0.00    +0.074 A 
ATOM     16  C   UNL     1       0.416   0.005  23.491  0.00  0.00    +0.175 A 
BRANCH  16  17
ATOM     17  C   UNL     1       1.092  -0.582  22.327  0.00  0.00    +0.306 C 
BRANCH  17   4
ATOM      4  O   UNL     1       2.245   0.190  21.982  0.00  0.00    -0.484 OA
BRANCH   4  18
ATOM     18  C   UNL     1       3.375  -0.040  22.715  0.00  0.00    +0.121 A 
ATOM     19  C   UNL     1       4.310   0.979  22.896  0.00  0.00    +0.045 A 
ATOM     20  C   UNL     1       3.593  -1.296  23.283  0.00  0.00    +0.045 A 
ATOM     21  C   UNL     1       5.463   0.743  23.645  0.00  0.00    +0.004 A 
ATOM     22  C   UNL     1       4.746  -1.532  24.032  0.00  0.00    +0.004 A 
ATOM     23  C   UNL     1       5.681  -0.512  24.213  0.00  0.00    +0.000 A 
ENDBRANCH   4  18
ENDBRANCH  17   4
ENDBRANCH  16  17
ENDBRANCH  12  14
TORSDOF 8
ENDMDL
MODEL 3
REMARK VINA RESULT:      -5.1      1.816      3.147
REMARK  Name = 75366994
REMARK  8 active torsions:
REMARK  status: ('A' for Active; 'I' for Inactive)
REMARK    1  A    between atoms: O_2  and  C_8
REMARK    2  A    between atoms: O_4  and  C_17
REMARK    3  A    between atoms: O_4  and  C_18
REMARK    4  A    between atoms: N_5  and  C_13
REMARK    5  A    between atoms: C_7  and  C_12
REMARK    6  A    between atoms: C_9  and  C_13
REMARK    7  A    between atoms: C_12  and  C_14
REMARK    8  A    between atoms: C_16  and  C_17
REMARK                            x       y       z     vdW  Elec       q    Type
REMARK                         _______ _______ _______ _____ _____    ______ ____
ROOT
ATOM     12  C   UNL     1      -1.429  -1.750  24.955  0.00  0.00    +0.090 C 
ENDROOT
BRANCH  12   7
ATOM      1  O   UNL     1      -0.157  -0.564  23.328  0.00  0.00    -0.369 OA
ATOM      7  C   UNL     1      -0.336  -0.711  24.739  0.00  0.00    +0.125 C 
ATOM      8  C   UNL     1       0.580   1.764  23.549  0.00  0.00    +0.145 C 
ATOM      9  C   UNL     1       0.846   0.382  22.936  0.00  0.00    +0.160 C 
ATOM     10  C   UNL     1      -0.720   0.624  25.375  0.00  0.00    +0.034 C 
ATOM     11  C   UNL     1       0.320   1.693  25.051  0.00  0.00    +0.036 C 
BRANCH   8   2
ATOM      2  O   UNL     1      -0.581   2.326  22.931  0.00  0.00    -0.389 OA
ATOM     24  H   UNL     1      -0.649   3.252  23.222  0.00  0.00    +0.210 HD
ENDBRANCH   8   2
BRANCH   9  13
ATOM     13  C   UNL     1       2.248  -0.143  23.238  0.00  0.00    +0.112 C 
BRANCH  13   5
ATOM      5  N   UNL     1       3.243   0.903  23.055  0.00  0.00    -0.328 NA
ATOM     25  H   UNL     1       4.166   0.486  22.944  0.00  0.00    +0.118 HD
ATOM     26  H   UNL     1       3.288   1.479  23.896  0.00  0.00    +0.118 HD
ENDBRANCH  13   5
ENDBRANCH   9  13
ENDBRANCH  12   7
BRANCH  12  14
ATOM      3  O   UNL     1      -4.800  -0.883  24.023  0.00  0.00    -0.356 OA
ATOM      6  N   UNL     1      -3.646  -1.646  23.894  0.00  0.00    -0.083 NA
ATOM     14  C   UNL     1      -2.803  -1.155  24.806  0.00  0.00    +0.086 A 
ATOM     15  C   UNL     1      -3.364  -0.092  25.535  0.00  0.00    +0.074 A 
ATOM     16  C   UNL     1      -4.620   0.039  25.004  0.00  0.00    +0.175 A 
BRANCH  16  17
ATOM     17  C   UNL     1      -5.750   0.937  25.276  0.00  0.00    +0.306 C 
BRANCH  17   4
ATOM      4  O   UNL     1      -5.604   2.155  24.541  0.00  0.00    -0.484 OA
BRANCH   4  18
ATOM     18  C   UNL     1      -4.537   2.941  24.872  0.00  0.00    +0.121 A 
ATOM     19  C   UNL     1      -4.372   3.376  26.188  0.00  0.00    +0.045 A 
ATOM     20  C   UNL     1      -3.612   3.310  23.895  0.00  0.00    +0.045 A 
ATOM     21  C   UNL     1      -3.283   4.179  26.526  0.00  0.00    +0.004 A 
ATOM     22  C   UNL     1      -2.523   4.113  24.233  0.00  0.00    +0.004 A 
ATOM     23  C   UNL     1      -2.358   4.547  25.549  0.00  0.00    +0.000 A 
ENDBRANCH   4  18
ENDBRANCH  17   4
ENDBRANCH  16  17
ENDBRANCH  12  14
TORSDOF 8
ENDMDL
MODEL 4
REMARK VINA RESULT:      -4.9      3.090      6.188
REMARK  Name = 75366994
REMARK  8 active torsions:
REMARK  status: ('A' for Active; 'I' for Inactive)
REMARK    1  A    between atoms: O_2  and  C_8
REMARK    2  A    between atoms: O_4  and  C_17
REMARK    3  A    between atoms: O_4  and  C_18
REMARK    4  A    between atoms: N_5  and  C_13
REMARK    5  A    between atoms: C_7  and  C_12
REMARK    6  A    between atoms: C_9  and  C_13
REMARK    7  A    between atoms: C_12  and  C_14
REMARK    8  A    between atoms: C_16  and  C_17
REMARK                            x       y       z     vdW  Elec       q    Type
REMARK                         _______ _______ _______ _____ _____    ______ ____
ROOT
ATOM     12  C   UNL     1      -2.071   3.271  25.118  0.00  0.00    +0.090 C 
ENDROOT
BRANCH  12   7
ATOM      1  O   UNL     1      -3.634   1.558  25.663  0.00  0.00    -0.369 OA
ATOM      7  C   UNL     1      -3.438   2.678  24.797  0.00  0.00    +0.125 C 
ATOM      8  C   UNL     1      -6.071   1.825  25.645  0.00  0.00    +0.145 C 
ATOM      9  C   UNL     1      -4.880   0.869  25.496  0.00  0.00    +0.160 C 
ATOM     10  C   UNL     1      -4.542   3.715  24.999  0.00  0.00    +0.034 C 
ATOM     11  C   UNL     1      -5.916   3.083  24.794  0.00  0.00    +0.036 C 
BRANCH   8   2
ATOM      2  O   UNL     1      -6.166   2.233  27.013  0.00  0.00    -0.389 OA
ATOM     24  H   UNL     1      -5.650   3.052  27.111  0.00  0.00    +0.210 HD
ENDBRANCH   8   2
BRANCH   9  13
ATOM     13  C   UNL     1      -4.906   0.085  24.186  0.00  0.00    +0.112 C 
BRANCH  13   5
ATOM      5  N   UNL     1      -4.021  -1.068  24.255  0.00  0.00    -0.328 NA
ATOM     25  H   UNL     1      -3.715  -1.210  25.216  0.00  0.00    +0.118 HD
ATOM     26  H   UNL     1      -3.180  -0.884  23.709  0.00  0.00    +0.118 HD
ENDBRANCH  13   5
ENDBRANCH   9  13
ENDBRANCH  12   7
BRANCH  12  14
ATOM      3  O   UNL     1       1.059   1.603  24.481  0.00  0.00    -0.356 OA
ATOM      6  N   UNL     1       0.292   2.588  25.092  0.00  0.00    -0.083 NA
ATOM     14  C   UNL     1      -0.953   2.378  24.654  0.00  0.00    +0.086 A 
ATOM     15  C   UNL     1      -1.032   1.285  23.775  0.00  0.00    +0.074 A 
ATOM     16  C   UNL     1       0.259   0.833  23.700  0.00  0.00    +0.175 A 
BRANCH  16  17
ATOM     17  C   UNL     1       0.911  -0.266  22.975  0.00  0.00    +0.306 C 
BRANCH  17   4
ATOM      4  O   UNL     1       2.065   0.214  22.281  0.00  0.00    -0.484 OA
BRANCH   4  18
ATOM     18  C   UNL     1       3.274  -0.028  22.870  0.00  0.00    +0.121 A 
ATOM     19  C   UNL     1       3.533  -1.273  23.445  0.00  0.00    +0.045 A 
ATOM     20  C   UNL     1       4.250   0.968  22.895  0.00  0.00    +0.045 A 
ATOM     21  C   UNL     1       4.768  -1.520  24.046  0.00  0.00    +0.004 A 
ATOM     22  C   UNL     1       5.484   0.721  23.496  0.00  0.00    +0.004 A 
ATOM     23  C   UNL     1       5.743  -0.523  24.072  0.00  0.00    +0.000 A 
ENDBRANCH   4  18
ENDBRANCH  17   4
ENDBRANCH  16  17
ENDBRANCH  12  14
TORSDOF 8
ENDMDL
MODEL 5
REMARK VINA RESULT:      -4.6      1.794      5.877
REMARK  Name = 75366994
REMARK  8 active torsions:
REMARK  status: ('A' for Active; 'I' for Inactive)
REMARK    1  A    between atoms: O_2  and  C_8
REMARK    2  A    between atoms: O_4  and  C_17
REMARK    3  A    between atoms: O_4  and  C_18
REMARK    4  A    between atoms: N_5  and  C_13
REMARK    5  A    between atoms: C_7  and  C_12
REMARK    6  A    between atoms: C_9  and  C_13
REMARK    7  A    between atoms: C_12  and  C_14
REMARK    8  A    between atoms: C_16  and  C_17
REMARK                            x       y       z     vdW  Elec       q    Type
REMARK                         _______ _______ _______ _____ _____    ______ ____
ROOT
ATOM     12  C   UNL     1      -2.177   3.984  25.325  0.00  0.00    +0.090 C 
ENDROOT
BRANCH  12   7
ATOM      1  O   UNL     1      -3.724   2.187  25.552  0.00  0.00    -0.369 OA
ATOM      7  C   UNL     1      -3.582   3.496  24.994  0.00  0.00    +0.125 C 
ATOM      8  C   UNL     1      -6.145   2.448  25.839  0.00  0.00    +0.145 C 
ATOM      9  C   UNL     1      -4.996   1.566  25.331  0.00  0.00    +0.160 C 
ATOM     10  C   UNL     1      -4.636   4.442  25.565  0.00  0.00    +0.034 C 
ATOM     11  C   UNL     1      -6.039   3.885  25.336  0.00  0.00    +0.036 C 
BRANCH   8   2
ATOM      2  O   UNL     1      -6.101   2.482  27.269  0.00  0.00    -0.389 OA
ATOM     24  H   UNL     1      -5.834   1.598  27.575  0.00  0.00    +0.210 HD
ENDBRANCH   8   2
BRANCH   9  13
ATOM     13  C   UNL     1      -5.164   1.153  23.870  0.00  0.00    +0.112 C 
BRANCH  13   5
ATOM      5  N   UNL     1      -3.979   0.459  23.389  0.00  0.00    -0.328 NA
ATOM     25  H   UNL     1      -3.259   1.137  23.144  0.00  0.00    +0.118 HD
ATOM     26  H   UNL     1      -4.205  -0.043  22.530  0.00  0.00    +0.118 HD
ENDBRANCH  13   5
ENDBRANCH   9  13
ENDBRANCH  12   7
BRANCH  12  14
ATOM      3  O   UNL     1       0.720   1.844  25.206  0.00  0.00    -0.356 OA
ATOM      6  N   UNL     1       0.004   2.917  25.723  0.00  0.00    -0.083 NA
ATOM     14  C   UNL     1      -1.138   2.936  25.030  0.00  0.00    +0.086 A 
ATOM     15  C   UNL     1      -1.199   1.909  24.073  0.00  0.00    +0.074 A 
ATOM     16  C   UNL     1      -0.007   1.251  24.226  0.00  0.00    +0.175 A 
BRANCH  16  17
ATOM     17  C   UNL     1       0.605   0.090  23.566  0.00  0.00    +0.306 C 
BRANCH  17   4
ATOM      4  O   UNL     1       0.458  -1.077  24.380  0.00  0.00    -0.484 OA
BRANCH   4  18
ATOM     18  C   UNL     1      -0.814  -1.401  24.756  0.00  0.00    +0.121 A 
ATOM     19  C   UNL     1      -1.559  -2.303  23.995  0.00  0.00    +0.045 A 
ATOM     20  C   UNL     1      -1.370  -0.831  25.902  0.00  0.00    +0.045 A 
ATOM     21  C   UNL     1      -2.858  -2.634  24.379  0.00  0.00    +0.004 A 
ATOM     22  C   UNL     1      -2.670  -1.162  26.286  0.00  0.00    +0.004 A 
ATOM     23  C   UNL     1      -3.414  -2.064  25.524  0.00  0.00    +0.000 A 
ENDBRANCH   4  18
ENDBRANCH  17   4
ENDBRANCH  16  17
ENDBRANCH  12  14
TORSDOF 8
ENDMDL
MODEL 6
REMARK VINA RESULT:      -4.5      1.914      4.029
REMARK  Name = 75366994
REMARK  8 active torsions:
REMARK  status: ('A' for Active; 'I' for Inactive)
REMARK    1  A    between atoms: O_2  and  C_8
REMARK    2  A    between atoms: O_4  and  C_17
REMARK    3  A    between atoms: O_4  and  C_18
REMARK    4  A    between atoms: N_5  and  C_13
REMARK    5  A    between atoms: C_7  and  C_12
REMARK    6  A    between atoms: C_9  and  C_13
REMARK    7  A    between atoms: C_12  and  C_14
REMARK    8  A    between atoms: C_16  and  C_17
REMARK                            x       y       z     vdW  Elec       q    Type
REMARK                         _______ _______ _______ _____ _____    ______ ____
ROOT
ATOM     12  C   UNL     1      -0.127  -0.159  24.410  0.00  0.00    +0.090 C 
ENDROOT
BRANCH  12   7
ATOM      1  O   UNL     1      -1.931  -1.324  25.439  0.00  0.00    -0.369 OA
ATOM      7  C   UNL     1      -1.504  -0.773  24.191  0.00  0.00    +0.125 C 
ATOM      8  C   UNL     1      -4.301  -0.993  24.905  0.00  0.00    +0.145 C 
ATOM      9  C   UNL     1      -3.219  -1.953  25.418  0.00  0.00    +0.160 C 
ATOM     10  C   UNL     1      -2.497   0.279  23.699  0.00  0.00    +0.034 C 
ATOM     11  C   UNL     1      -3.901  -0.312  23.599  0.00  0.00    +0.036 C 
BRANCH   8   2
ATOM      2  O   UNL     1      -4.512   0.029  25.883  0.00  0.00    -0.389 OA
ATOM     24  H   UNL     1      -5.452   0.007  26.132  0.00  0.00    +0.210 HD
ENDBRANCH   8   2
BRANCH   9  13
ATOM     13  C   UNL     1      -3.178  -3.271  24.648  0.00  0.00    +0.112 C 
BRANCH  13   5
ATOM      5  N   UNL     1      -4.282  -3.352  23.702  0.00  0.00    -0.328 NA
ATOM     25  H   UNL     1      -4.525  -2.418  23.376  0.00  0.00    +0.118 HD
ATOM     26  H   UNL     1      -5.108  -3.716  24.175  0.00  0.00    +0.118 HD
ENDBRANCH  13   5
ENDBRANCH   9  13
ENDBRANCH  12   7
BRANCH  12  14
ATOM      3  O   UNL     1      -0.292   2.975  26.182  0.00  0.00    -0.356 OA
ATOM      6  N   UNL     1      -0.190   1.590  26.140  0.00  0.00    -0.083 NA
ATOM     14  C   UNL     1      -0.219   1.280  24.841  0.00  0.00    +0.086 A 
ATOM     15  C   UNL     1      -0.336   2.418  24.024  0.00  0.00    +0.074 A 
ATOM     16  C   UNL     1      -0.378   3.456  24.916  0.00  0.00    +0.175 A 
BRANCH  16  17
ATOM     17  C   UNL     1      -0.493   4.914  24.775  0.00  0.00    +0.306 C 
BRANCH  17   4
ATOM      4  O   UNL     1      -1.709   5.376  25.368  0.00  0.00    -0.484 OA
BRANCH   4  18
ATOM     18  C   UNL     1      -2.812   4.589  25.187  0.00  0.00    +0.121 A 
ATOM     19  C   UNL     1      -3.195   4.209  23.901  0.00  0.00    +0.045 A 
ATOM     20  C   UNL     1      -3.554   4.165  26.290  0.00  0.00    +0.045 A 
ATOM     21  C   UNL     1      -4.321   3.406  23.717  0.00  0.00    +0.004 A 
ATOM     22  C   UNL     1      -4.679   3.361  26.106  0.00  0.00    +0.004 A 
ATOM     23  C   UNL     1      -5.063   2.982  24.819  0.00  0.00    +0.000 A 
ENDBRANCH   4  18
ENDBRANCH  17   4
ENDBRANCH  16  17
ENDBRANCH  12  14
TORSDOF 8
ENDMDL
MODEL 7
REMARK VINA RESULT:      -4.5      1.706      4.250
REMARK  Name = 75366994
REMARK  8 active torsions:
REMARK  status: ('A' for Active; 'I' for Inactive)
REMARK    1  A    between atoms: O_2  and  C_8
REMARK    2  A    between atoms: O_4  and  C_17
REMARK    3  A    between atoms: O_4  and  C_18
REMARK    4  A    between atoms: N_5  and  C_13
REMARK    5  A    between atoms: C_7  and  C_12
REMARK    6  A    between atoms: C_9  and  C_13
REMARK    7  A    between atoms: C_12  and  C_14
REMARK    8  A    between atoms: C_16  and  C_17
REMARK                            x       y       z     vdW  Elec       q    Type
REMARK                         _______ _______ _______ _____ _____    ______ ____
ROOT
ATOM     12  C   UNL     1      -0.317  -1.100  24.290  0.00  0.00    +0.090 C 
ENDROOT
BRANCH  12   7
ATOM      1  O   UNL     1      -2.615  -0.623  23.883  0.00  0.00    -0.369 OA
ATOM      7  C   UNL     1      -1.748  -1.382  24.730  0.00  0.00    +0.125 C 
ATOM      8  C   UNL     1      -4.446  -2.237  24.118  0.00  0.00    +0.145 C 
ATOM      9  C   UNL     1      -4.014  -0.765  24.159  0.00  0.00    +0.160 C 
ATOM     10  C   UNL     1      -2.066  -2.872  24.629  0.00  0.00    +0.034 C 
ATOM     11  C   UNL     1      -3.535  -3.132  24.954  0.00  0.00    +0.036 C 
BRANCH   8   2
ATOM      2  O   UNL     1      -4.386  -2.696  22.764  0.00  0.00    -0.389 OA
ATOM     24  H   UNL     1      -4.045  -1.965  22.221  0.00  0.00    +0.210 HD
ENDBRANCH   8   2
BRANCH   9  13
ATOM     13  C   UNL     1      -4.393  -0.070  25.466  0.00  0.00    +0.112 C 
BRANCH  13   5
ATOM      5  N   UNL     1      -5.610   0.711  25.303  0.00  0.00    -0.328 NA
ATOM     25  H   UNL     1      -5.449   1.463  24.634  0.00  0.00    +0.118 HD
ATOM     26  H   UNL     1      -5.846   1.160  26.187  0.00  0.00    +0.118 HD
ENDBRANCH  13   5
ENDBRANCH   9  13
ENDBRANCH  12   7
BRANCH  12  14
ATOM      3  O   UNL     1       1.034   2.230  24.017  0.00  0.00    -0.356 OA
ATOM      6  N   UNL     1       0.962   0.896  23.633  0.00  0.00    -0.083 NA
ATOM     14  C   UNL     1       0.033   0.357  24.426  0.00  0.00    +0.086 A 
ATOM     15  C   UNL     1      -0.513   1.293  25.322  0.00  0.00    +0.074 A 
ATOM     16  C   UNL     1       0.150   2.454  25.023  0.00  0.00    +0.175 A 
BRANCH  16  17
ATOM     17  C   UNL     1       0.093   3.822  25.553  0.00  0.00    +0.306 C 
BRANCH  17   4
ATOM      4  O   UNL     1      -0.852   4.601  24.816  0.00  0.00    -0.484 OA
BRANCH   4  18
ATOM     18  C   UNL     1      -2.169   4.274  24.977  0.00  0.00    +0.121 A 
ATOM     19  C   UNL     1      -2.744   4.298  26.247  0.00  0.00    +0.045 A 
ATOM     20  C   UNL     1      -2.938   3.915  23.870  0.00  0.00    +0.045 A 
ATOM     21  C   UNL     1      -4.088   3.963  26.412  0.00  0.00    +0.004 A 
ATOM     22  C   UNL     1      -4.283   3.580  24.034  0.00  0.00    +0.004 A 
ATOM     23  C   UNL     1      -4.857   3.604  25.305  0.00  0.00    +0.000 A 
ENDBRANCH   4  18
ENDBRANCH  17   4
ENDBRANCH  16  17
ENDBRANCH  12  14
TORSDOF 8
ENDMDL
MODEL 8
REMARK VINA RESULT:      -4.2      1.411      1.970
REMARK  Name = 75366994
REMARK  8 active torsions:
REMARK  status: ('A' for Active; 'I' for Inactive)
REMARK    1  A    between atoms: O_2  and  C_8
REMARK    2  A    between atoms: O_4  and  C_17
REMARK    3  A    between atoms: O_4  and  C_18
REMARK    4  A    between atoms: N_5  and  C_13
REMARK    5  A    between atoms: C_7  and  C_12
REMARK    6  A    between atoms: C_9  and  C_13
REMARK    7  A    between atoms: C_12  and  C_14
REMARK    8  A    between atoms: C_16  and  C_17
REMARK                            x       y       z     vdW  Elec       q    Type
REMARK                         _______ _______ _______ _____ _____    ______ ____
ROOT
ATOM     12  C   UNL     1      -5.430   0.339  24.316  0.00  0.00    +0.090 C 
ENDROOT
BRANCH  12   7
ATOM      1  O   UNL     1      -3.463  -0.476  25.383  0.00  0.00    -0.369 OA
ATOM      7  C   UNL     1      -4.183  -0.520  24.149  0.00  0.00    +0.125 C 
ATOM      8  C   UNL     1      -2.495  -2.701  25.030  0.00  0.00    +0.145 C 
ATOM      9  C   UNL     1      -2.247  -1.234  25.407  0.00  0.00    +0.160 C 
ATOM     10  C   UNL     1      -4.556  -1.959  23.794  0.00  0.00    +0.034 C 
ATOM     11  C   UNL     1      -3.312  -2.841  23.748  0.00  0.00    +0.036 C 
BRANCH   8   2
ATOM      2  O   UNL     1      -3.229  -3.329  26.086  0.00  0.00    -0.389 OA
ATOM     24  H   UNL     1      -3.606  -4.152  25.731  0.00  0.00    +0.210 HD
ENDBRANCH   8   2
BRANCH   9  13
ATOM     13  C   UNL     1      -1.168  -0.574  24.550  0.00  0.00    +0.112 C 
BRANCH  13   5
ATOM      5  N   UNL     1       0.131  -1.185  24.792  0.00  0.00    -0.328 NA
ATOM     25  H   UNL     1       0.436  -1.686  23.959  0.00  0.00    +0.118 HD
ATOM     26  H   UNL     1       0.045  -1.882  25.531  0.00  0.00    +0.118 HD
ENDBRANCH  13   5
ENDBRANCH   9  13
ENDBRANCH  12   7
BRANCH  12  14
ATOM      3  O   UNL     1      -5.330   3.277  26.400  0.00  0.00    -0.356 OA
ATOM      6  N   UNL     1      -5.885   2.064  26.010  0.00  0.00    -0.083 NA
ATOM     14  C   UNL     1      -5.121   1.644  24.998  0.00  0.00    +0.086 A 
ATOM     15  C   UNL     1      -4.079   2.541  24.707  0.00  0.00    +0.074 A 
ATOM     16  C   UNL     1      -4.255   3.550  25.618  0.00  0.00    +0.175 A 
BRANCH  16  17
ATOM     17  C   UNL     1      -3.544   4.804  25.895  0.00  0.00    +0.306 C 
BRANCH  17   4
ATOM      4  O   UNL     1      -2.430   4.949  25.010  0.00  0.00    -0.484 OA
BRANCH   4  18
ATOM     18  C   UNL     1      -1.439   4.015  25.120  0.00  0.00    +0.121 A 
ATOM     19  C   UNL     1      -0.686   3.661  24.000  0.00  0.00    +0.045 A 
ATOM     20  C   UNL     1      -1.180   3.415  26.352  0.00  0.00    +0.045 A 
ATOM     21  C   UNL     1       0.325   2.707  24.112  0.00  0.00    +0.004 A 
ATOM     22  C   UNL     1      -0.169   2.461  26.465  0.00  0.00    +0.004 A 
ATOM     23  C   UNL     1       0.584   2.107  25.345  0.00  0.00    +0.000 A 
ENDBRANCH   4  18
ENDBRANCH  17   4
ENDBRANCH  16  17
ENDBRANCH  12  14
TORSDOF 8
ENDMDL
MODEL 9
REMARK VINA RESULT:      -4.1      1.934      6.222
REMARK  Name = 75366994
REMARK  8 active torsions:
REMARK  status: ('A' for Active; 'I' for Inactive)
REMARK    1  A    between atoms: O_2  and  C_8
REMARK    2  A    between atoms: O_4  and  C_17
REMARK    3  A    between atoms: O_4  and  C_18
REMARK    4  A    between atoms: N_5  and  C_13
REMARK    5  A    between atoms: C_7  and  C_12
REMARK    6  A    between atoms: C_9  and  C_13
REMARK    7  A    between atoms: C_12  and  C_14
REMARK    8  A    between atoms: C_16  and  C_17
REMARK                            x       y       z     vdW  Elec       q    Type
REMARK                         _______ _______ _______ _____ _____    ______ ____
ROOT
ATOM     12  C   UNL     1      -1.300   4.556  25.018  0.00  0.00    +0.090 C 
ENDROOT
BRANCH  12   7
ATOM      1  O   UNL     1      -3.515   4.193  24.222  0.00  0.00    -0.369 OA
ATOM      7  C   UNL     1      -2.752   4.333  25.423  0.00  0.00    +0.125 C 
ATOM      8  C   UNL     1      -5.180   2.760  25.312  0.00  0.00    +0.145 C 
ATOM      9  C   UNL     1      -4.919   3.978  24.415  0.00  0.00    +0.160 C 
ATOM     10  C   UNL     1      -2.889   3.087  26.296  0.00  0.00    +0.034 C 
ATOM     11  C   UNL     1      -4.357   2.800  26.597  0.00  0.00    +0.036 C 
BRANCH   8   2
ATOM      2  O   UNL     1      -4.817   1.576  24.597  0.00  0.00    -0.389 OA
ATOM     24  H   UNL     1      -3.885   1.386  24.798  0.00  0.00    +0.210 HD
ENDBRANCH   8   2
BRANCH   9  13
ATOM     13  C   UNL     1      -5.609   5.245  24.915  0.00  0.00    +0.112 C 
BRANCH  13   5
ATOM      5  N   UNL     1      -6.601   4.927  25.932  0.00  0.00    -0.328 NA
ATOM     25  H   UNL     1      -6.134   4.630  26.787  0.00  0.00    +0.118 HD
ATOM     26  H   UNL     1      -7.164   4.136  25.622  0.00  0.00    +0.118 HD
ENDBRANCH  13   5
ENDBRANCH   9  13
ENDBRANCH  12   7
BRANCH  12  14
ATOM      3  O   UNL     1       0.878   1.686  25.107  0.00  0.00    -0.356 OA
ATOM      6  N   UNL     1       0.453   2.923  25.578  0.00  0.00    -0.083 NA
ATOM     14  C   UNL     1      -0.577   3.256  24.794  0.00  0.00    +0.086 A 
ATOM     15  C   UNL     1      -0.846   2.277  23.822  0.00  0.00    +0.074 A 
ATOM     16  C   UNL     1       0.096   1.312  24.063  0.00  0.00    +0.175 A 
BRANCH  16  17
ATOM     17  C   UNL     1       0.409   0.019  23.440  0.00  0.00    +0.306 C 
BRANCH  17   4
ATOM      4  O   UNL     1       0.229  -1.042  24.383  0.00  0.00    -0.484 OA
BRANCH   4  18
ATOM     18  C   UNL     1      -1.061  -1.354  24.709  0.00  0.00    +0.121 A 
ATOM     19  C   UNL     1      -1.715  -0.650  25.720  0.00  0.00    +0.045 A 
ATOM     20  C   UNL     1      -1.723  -2.378  24.031  0.00  0.00    +0.045 A 
ATOM     21  C   UNL     1      -3.031  -0.970  26.053  0.00  0.00    +0.004 A 
ATOM     22  C   UNL     1      -3.039  -2.697  24.364  0.00  0.00    +0.004 A 
ATOM     23  C   UNL     1      -3.694  -1.993  25.375  0.00  0.00    +0.000 A 
ENDBRANCH   4  18
ENDBRANCH  17   4
ENDBRANCH  16  17
ENDBRANCH  12  14
TORSDOF 8
ENDMDL
MODEL 10
REMARK VINA RESULT:      -3.1      2.037      5.107
REMARK  Name = 75366994
REMARK  8 active torsions:
REMARK  status: ('A' for Active; 'I' for Inactive)
REMARK    1  A    between atoms: O_2  and  C_8
REMARK    2  A    between atoms: O_4  and  C_17
REMARK    3  A    between atoms: O_4  and  C_18
REMARK    4  A    between atoms: N_5  and  C_13
REMARK    5  A    between atoms: C_7  and  C_12
REMARK    6  A    between atoms: C_9  and  C_13
REMARK    7  A    between atoms: C_12  and  C_14
REMARK    8  A    between atoms: C_16  and  C_17
REMARK                            x       y       z     vdW  Elec       q    Type
REMARK                         _______ _______ _______ _____ _____    ______ ____
ROOT
ATOM     12  C   UNL     1      -5.323   0.794  25.962  0.00  0.00    +0.090 C 
ENDROOT
BRANCH  12   7
ATOM      1  O   UNL     1      -3.618   2.074  24.899  0.00  0.00    -0.369 OA
ATOM      7  C   UNL     1      -4.756   2.194  25.756  0.00  0.00    +0.125 C 
ATOM      8  C   UNL     1      -3.918   4.333  23.994  0.00  0.00    +0.145 C 
ATOM      9  C   UNL     1      -2.950   3.305  24.597  0.00  0.00    +0.160 C 
ATOM     10  C   UNL     1      -5.802   3.119  25.136  0.00  0.00    +0.034 C 
ATOM     11  C   UNL     1      -5.193   4.482  24.819  0.00  0.00    +0.036 C 
BRANCH   8   2
ATOM      2  O   UNL     1      -4.294   3.897  22.684  0.00  0.00    -0.389 OA
ATOM     24  H   UNL     1      -3.545   3.398  22.316  0.00  0.00    +0.210 HD
ENDBRANCH   8   2
BRANCH   9  13
ATOM     13  C   UNL     1      -2.198   3.839  25.815  0.00  0.00    +0.112 C 
BRANCH  13   5
ATOM      5  N   UNL     1      -1.311   4.930  25.438  0.00  0.00    -0.328 NA
ATOM     25  H   UNL     1      -1.675   5.400  24.611  0.00  0.00    +0.118 HD
ATOM     26  H   UNL     1      -0.401   4.552  25.177  0.00  0.00    +0.118 HD
ENDBRANCH  13   5
ENDBRANCH   9  13
ENDBRANCH  12   7
BRANCH  12  14
ATOM      3  O   UNL     1      -3.820  -1.535  23.659  0.00  0.00    -0.356 OA
ATOM      6  N   UNL     1      -4.749  -0.554  23.986  0.00  0.00    -0.083 NA
ATOM     14  C   UNL     1      -4.497  -0.251  25.262  0.00  0.00    +0.086 A 
ATOM     15  C   UNL     1      -3.430  -0.999  25.788  0.00  0.00    +0.074 A 
ATOM     16  C   UNL     1      -3.040  -1.791  24.740  0.00  0.00    +0.175 A 
BRANCH  16  17
ATOM     17  C   UNL     1      -1.996  -2.809  24.569  0.00  0.00    +0.306 C 
BRANCH  17   4
ATOM      4  O   UNL     1      -0.754  -2.341  25.101  0.00  0.00    -0.484 OA
BRANCH   4  18
ATOM     18  C   UNL     1      -0.401  -1.060  24.786  0.00  0.00    +0.121 A 
ATOM     19  C   UNL     1      -0.643  -0.026  25.691  0.00  0.00    +0.045 A 
ATOM     20  C   UNL     1       0.201  -0.785  23.558  0.00  0.00    +0.045 A 
ATOM     21  C   UNL     1      -0.283   1.282  25.369  0.00  0.00    +0.004 A 
ATOM     22  C   UNL     1       0.562   0.524  23.235  0.00  0.00    +0.004 A 
ATOM     23  C   UNL     1       0.320   1.557  24.141  0.00  0.00    +0.000 A 
ENDBRANCH   4  18
ENDBRANCH  17   4
ENDBRANCH  16  17
ENDBRANCH  12  14
TORSDOF 8
ENDMDL
