MODEL 1
REMARK VINA RESULT:      -3.3      0.000      0.000
REMARK  Name = 26745158
REMARK  3 active torsions:
REMARK  status: ('A' for Active; 'I' for Inactive)
REMARK    1  A    between atoms: N_9  and  C_21
REMARK    2  A    between atoms: C_10  and  C_15
REMARK    3  A    between atoms: C_17  and  C_18
REMARK                            x       y       z     vdW  Elec       q    Type
REMARK                         _______ _______ _______ _____ _____    ______ ____
ROOT
ATOM      1  O   UNL     1      11.473  -6.049  32.633  0.00  0.00    -0.336 OA
ATOM      7  N   UNL     1      12.925  -7.144  31.327  0.00  0.00    -0.190 NA
ATOM      8  N   UNL     1      12.577  -5.201  32.484  0.00  0.00    -0.056 NA
ATOM     15  C   UNL     1      11.760  -7.170  31.922  0.00  0.00    +0.245 A 
ATOM     17  C   UNL     1      13.390  -5.917  31.701  0.00  0.00    +0.202 A 
ENDROOT
BRANCH  15  10
ATOM      4  N   UNL     1      11.056  -9.356  32.872  0.00  0.00    -0.300 NA
ATOM      5  N   UNL     1       7.597 -10.779  32.872  0.00  0.00    -0.347 N 
ATOM      6  N   UNL     1       6.960  -8.680  32.435  0.00  0.00    -0.240 NA
ATOM     10  C   UNL     1      10.703  -8.261  31.923  0.00  0.00    +0.149 C 
ATOM     11  C   UNL     1       9.279  -7.671  32.193  0.00  0.00    +0.085 C 
ATOM     12  C   UNL     1       8.321  -8.777  32.428  0.00  0.00    +0.065 A 
ATOM     13  C   UNL     1      10.142 -10.517  32.752  0.00  0.00    +0.137 C 
ATOM     14  C   UNL     1       8.738 -10.057  32.699  0.00  0.00    +0.053 A 
ATOM     16  C   UNL     1       6.551  -9.905  32.704  0.00  0.00    +0.197 A 
ATOM     24  H   UNL     1      10.994  -8.990  33.823  0.00  0.00    +0.123 HD
ATOM     25  H   UNL     1       7.526 -11.767  33.081  0.00  0.00    +0.167 HD
ENDBRANCH  15  10
BRANCH  17  18
ATOM     18  C   UNL     1      14.673  -5.436  31.274  0.00  0.00    +0.025 A 
ATOM     19  C   UNL     1      14.948  -4.069  31.297  0.00  0.00    +0.044 A 
ATOM     20  C   UNL     1      15.644  -6.337  30.837  0.00  0.00    +0.012 A 
ATOM     21  C   UNL     1      16.196  -3.602  30.881  0.00  0.00    +0.127 A 
ATOM     22  C   UNL     1      16.891  -5.870  30.421  0.00  0.00    +0.003 A 
ATOM     23  C   UNL     1      17.167  -4.502  30.443  0.00  0.00    +0.033 A 
BRANCH  21   9
ATOM      2  O   UNL     1      16.268  -1.565  31.959  0.00  0.00    -0.126 OA
ATOM      3  O   UNL     1      16.925  -1.664  29.866  0.00  0.00    -0.126 OA
ATOM      9  N   UNL     1      16.476  -2.210  30.903  0.00  0.00    +0.056 N 
ENDBRANCH  21   9
ENDBRANCH  17  18
TORSDOF 3
ENDMDL
MODEL 2
REMARK VINA RESULT:      -3.2     15.593     18.289
REMARK  Name = 26745158
REMARK  3 active torsions:
REMARK  status: ('A' for Active; 'I' for Inactive)
REMARK    1  A    between atoms: N_9  and  C_21
REMARK    2  A    between atoms: C_10  and  C_15
REMARK    3  A    between atoms: C_17  and  C_18
REMARK                            x       y       z     vdW  Elec       q    Type
REMARK                         _______ _______ _______ _____ _____    ______ ____
ROOT
ATOM      1  O   UNL     1      -0.290  -1.494  23.928  0.00  0.00    -0.336 OA
ATOM      7  N   UNL     1      -0.769   0.691  23.814  0.00  0.00    -0.190 NA
ATOM      8  N   UNL     1      -1.630  -1.370  24.311  0.00  0.00    -0.056 NA
ATOM     15  C   UNL     1       0.142  -0.236  23.652  0.00  0.00    +0.245 A 
ATOM     17  C   UNL     1      -1.839  -0.052  24.219  0.00  0.00    +0.202 A 
ENDROOT
BRANCH  15  10
ATOM      4  N   UNL     1       2.074   1.301  23.373  0.00  0.00    -0.300 NA
ATOM      5  N   UNL     1       5.672   0.327  23.050  0.00  0.00    -0.347 N 
ATOM      6  N   UNL     1       4.996  -1.637  23.882  0.00  0.00    -0.240 NA
ATOM     10  C   UNL     1       1.587  -0.098  23.205  0.00  0.00    +0.149 C 
ATOM     11  C   UNL     1       2.504  -1.141  23.925  0.00  0.00    +0.085 C 
ATOM     12  C   UNL     1       3.926  -0.822  23.653  0.00  0.00    +0.065 A 
ATOM     13  C   UNL     1       3.414   1.503  22.769  0.00  0.00    +0.137 C 
ATOM     14  C   UNL     1       4.315   0.394  23.146  0.00  0.00    +0.053 A 
ATOM     16  C   UNL     1       6.036  -0.916  23.507  0.00  0.00    +0.197 A 
ATOM     24  H   UNL     1       2.134   1.504  24.372  0.00  0.00    +0.123 HD
ATOM     25  H   UNL     1       6.295   1.047  22.708  0.00  0.00    +0.167 HD
ENDBRANCH  15  10
BRANCH  17  18
ATOM     18  C   UNL     1      -3.104   0.553  24.524  0.00  0.00    +0.025 A 
ATOM     19  C   UNL     1      -3.158   1.877  24.956  0.00  0.00    +0.044 A 
ATOM     20  C   UNL     1      -4.279  -0.186  24.388  0.00  0.00    +0.012 A 
ATOM     21  C   UNL     1      -4.388   2.464  25.253  0.00  0.00    +0.127 A 
ATOM     22  C   UNL     1      -5.509   0.401  24.685  0.00  0.00    +0.003 A 
ATOM     23  C   UNL     1      -5.564   1.726  25.118  0.00  0.00    +0.033 A 
BRANCH  21   9
ATOM      2  O   UNL     1      -3.384   4.378  26.057  0.00  0.00    -0.126 OA
ATOM      3  O   UNL     1      -5.551   4.403  25.708  0.00  0.00    -0.126 OA
ATOM      9  N   UNL     1      -4.444   3.813  25.693  0.00  0.00    +0.056 N 
ENDBRANCH  21   9
ENDBRANCH  17  18
TORSDOF 3
ENDMDL
MODEL 3
REMARK VINA RESULT:      -2.9      2.321      2.644
REMARK  Name = 26745158
REMARK  3 active torsions:
REMARK  status: ('A' for Active; 'I' for Inactive)
REMARK    1  A    between atoms: N_9  and  C_21
REMARK    2  A    between atoms: C_10  and  C_15
REMARK    3  A    between atoms: C_17  and  C_18
REMARK                            x       y       z     vdW  Elec       q    Type
REMARK                         _______ _______ _______ _____ _____    ______ ____
ROOT
ATOM      1  O   UNL     1      10.995  -6.255  32.154  0.00  0.00    -0.336 OA
ATOM      7  N   UNL     1      12.304  -7.515  30.845  0.00  0.00    -0.190 NA
ATOM      8  N   UNL     1      12.145  -5.496  31.910  0.00  0.00    -0.056 NA
ATOM     15  C   UNL     1      11.169  -7.428  31.492  0.00  0.00    +0.245 A 
ATOM     17  C   UNL     1      12.869  -6.306  31.132  0.00  0.00    +0.202 A 
ENDROOT
BRANCH  15  10
ATOM      4  N   UNL     1      10.431  -9.596  32.457  0.00  0.00    -0.300 NA
ATOM      5  N   UNL     1       6.903 -10.769  32.872  0.00  0.00    -0.347 N 
ATOM      6  N   UNL     1       6.376  -8.613  32.592  0.00  0.00    -0.240 NA
ATOM     10  C   UNL     1      10.041  -8.440  31.599  0.00  0.00    +0.149 C 
ATOM     11  C   UNL     1       8.715  -7.762  32.075  0.00  0.00    +0.085 C 
ATOM     12  C   UNL     1       7.714  -8.806  32.400  0.00  0.00    +0.065 A 
ATOM     13  C   UNL     1       9.423 -10.683  32.422  0.00  0.00    +0.137 C 
ATOM     14  C   UNL     1       8.064 -10.123  32.571  0.00  0.00    +0.053 A 
ATOM     16  C   UNL     1       5.914  -9.816  32.873  0.00  0.00    +0.197 A 
ATOM     24  H   UNL     1      10.522  -9.267  33.419  0.00  0.00    +0.123 HD
ATOM     25  H   UNL     1       6.786 -11.757  33.056  0.00  0.00    +0.167 HD
ENDBRANCH  15  10
BRANCH  17  18
ATOM     18  C   UNL     1      14.160  -5.939  30.623  0.00  0.00    +0.025 A 
ATOM     19  C   UNL     1      14.692  -6.608  29.522  0.00  0.00    +0.044 A 
ATOM     20  C   UNL     1      14.881  -4.913  31.234  0.00  0.00    +0.012 A 
ATOM     21  C   UNL     1      15.947  -6.250  29.029  0.00  0.00    +0.127 A 
ATOM     22  C   UNL     1      16.137  -4.556  30.741  0.00  0.00    +0.003 A 
ATOM     23  C   UNL     1      16.669  -5.224  29.638  0.00  0.00    +0.033 A 
BRANCH  21   9
ATOM      2  O   UNL     1      16.697  -6.289  26.849  0.00  0.00    -0.126 OA
ATOM      3  O   UNL     1      16.746  -8.155  28.004  0.00  0.00    -0.126 OA
ATOM      9  N   UNL     1      16.490  -6.931  27.907  0.00  0.00    +0.056 N 
ENDBRANCH  21   9
ENDBRANCH  17  18
TORSDOF 3
ENDMDL
MODEL 4
REMARK VINA RESULT:      -2.7      3.763      4.575
REMARK  Name = 26745158
REMARK  3 active torsions:
REMARK  status: ('A' for Active; 'I' for Inactive)
REMARK    1  A    between atoms: N_9  and  C_21
REMARK    2  A    between atoms: C_10  and  C_15
REMARK    3  A    between atoms: C_17  and  C_18
REMARK                            x       y       z     vdW  Elec       q    Type
REMARK                         _______ _______ _______ _____ _____    ______ ____
ROOT
ATOM      1  O   UNL     1      15.181  -8.075  31.570  0.00  0.00    -0.336 OA
ATOM      7  N   UNL     1      14.154  -7.225  29.770  0.00  0.00    -0.190 NA
ATOM      8  N   UNL     1      16.198  -7.689  30.688  0.00  0.00    -0.056 NA
ATOM     15  C   UNL     1      14.011  -7.768  30.953  0.00  0.00    +0.245 A 
ATOM     17  C   UNL     1      15.513  -7.197  29.651  0.00  0.00    +0.202 A 
ENDROOT
BRANCH  15  10
ATOM      4  N   UNL     1      11.773  -6.956  31.667  0.00  0.00    -0.300 NA
ATOM      5  N   UNL     1       8.891  -9.059  32.793  0.00  0.00    -0.347 N 
ATOM      6  N   UNL     1      10.009 -10.737  31.824  0.00  0.00    -0.240 NA
ATOM     10  C   UNL     1      12.738  -8.092  31.716  0.00  0.00    +0.149 C 
ATOM     11  C   UNL     1      12.106  -9.435  31.220  0.00  0.00    +0.085 C 
ATOM     12  C   UNL     1      10.755  -9.594  31.807  0.00  0.00    +0.065 A 
ATOM     13  C   UNL     1      10.608  -7.173  32.559  0.00  0.00    +0.137 C 
ATOM     14  C   UNL     1      10.087  -8.546  32.393  0.00  0.00    +0.053 A 
ATOM     16  C   UNL     1       8.891 -10.382  32.427  0.00  0.00    +0.197 A 
ATOM     24  H   UNL     1      11.435  -6.861  30.709  0.00  0.00    +0.123 HD
ATOM     25  H   UNL     1       8.146  -8.567  33.269  0.00  0.00    +0.167 HD
ENDBRANCH  15  10
BRANCH  17  18
ATOM     18  C   UNL     1      16.155  -6.671  28.480  0.00  0.00    +0.025 A 
ATOM     19  C   UNL     1      16.180  -7.418  27.303  0.00  0.00    +0.044 A 
ATOM     20  C   UNL     1      16.755  -5.413  28.523  0.00  0.00    +0.012 A 
ATOM     21  C   UNL     1      16.805  -6.905  26.166  0.00  0.00    +0.127 A 
ATOM     22  C   UNL     1      17.380  -4.900  27.386  0.00  0.00    +0.003 A 
ATOM     23  C   UNL     1      17.405  -5.647  26.207  0.00  0.00    +0.033 A 
BRANCH  21   9
ATOM      2  O   UNL     1      17.343  -7.160  23.938  0.00  0.00    -0.126 OA
ATOM      3  O   UNL     1      16.342  -8.821  24.967  0.00  0.00    -0.126 OA
ATOM      9  N   UNL     1      16.831  -7.665  24.967  0.00  0.00    +0.056 N 
ENDBRANCH  21   9
ENDBRANCH  17  18
TORSDOF 3
ENDMDL
MODEL 5
REMARK VINA RESULT:      -2.3     15.929     18.497
REMARK  Name = 26745158
REMARK  3 active torsions:
REMARK  status: ('A' for Active; 'I' for Inactive)
REMARK    1  A    between atoms: N_9  and  C_21
REMARK    2  A    between atoms: C_10  and  C_15
REMARK    3  A    between atoms: C_17  and  C_18
REMARK                            x       y       z     vdW  Elec       q    Type
REMARK                         _______ _______ _______ _____ _____    ______ ____
ROOT
ATOM      1  O   UNL     1      -0.419  -0.577  23.680  0.00  0.00    -0.336 OA
ATOM      7  N   UNL     1      -0.238   1.640  23.937  0.00  0.00    -0.190 NA
ATOM      8  N   UNL     1      -1.673  -0.133  24.116  0.00  0.00    -0.056 NA
ATOM     15  C   UNL     1       0.366   0.528  23.601  0.00  0.00    +0.245 A 
ATOM     17  C   UNL     1      -1.486   1.184  24.246  0.00  0.00    +0.202 A 
ENDROOT
BRANCH  15  10
ATOM      4  N   UNL     1       2.574   1.584  23.169  0.00  0.00    -0.300 NA
ATOM      5  N   UNL     1       5.876  -0.160  22.943  0.00  0.00    -0.347 N 
ATOM      6  N   UNL     1       4.818  -1.845  23.967  0.00  0.00    -0.240 NA
ATOM     10  C   UNL     1       1.798   0.311  23.142  0.00  0.00    +0.149 C 
ATOM     11  C   UNL     1       2.489  -0.829  23.961  0.00  0.00    +0.085 C 
ATOM     12  C   UNL     1       3.939  -0.847  23.658  0.00  0.00    +0.065 A 
ATOM     13  C   UNL     1       3.912   1.436  22.548  0.00  0.00    +0.137 C 
ATOM     14  C   UNL     1       4.566   0.203  23.032  0.00  0.00    +0.053 A 
ATOM     16  C   UNL     1       5.978  -1.402  23.520  0.00  0.00    +0.197 A 
ATOM     24  H   UNL     1       2.697   1.865  24.143  0.00  0.00    +0.123 HD
ATOM     25  H   UNL     1       6.630   0.374  22.530  0.00  0.00    +0.167 HD
ENDBRANCH  15  10
BRANCH  17  18
ATOM     18  C   UNL     1      -2.526   2.072  24.681  0.00  0.00    +0.025 A 
ATOM     19  C   UNL     1      -3.806   1.579  24.929  0.00  0.00    +0.044 A 
ATOM     20  C   UNL     1      -2.254   3.429  24.856  0.00  0.00    +0.012 A 
ATOM     21  C   UNL     1      -4.816   2.444  25.351  0.00  0.00    +0.127 A 
ATOM     22  C   UNL     1      -3.264   4.294  25.278  0.00  0.00    +0.003 A 
ATOM     23  C   UNL     1      -4.545   3.801  25.526  0.00  0.00    +0.033 A 
BRANCH  21   9
ATOM      2  O   UNL     1      -6.497   1.794  26.791  0.00  0.00    -0.126 OA
ATOM      3  O   UNL     1      -6.863   1.662  24.630  0.00  0.00    -0.126 OA
ATOM      9  N   UNL     1      -6.121   1.943  25.603  0.00  0.00    +0.056 N 
ENDBRANCH  21   9
ENDBRANCH  17  18
TORSDOF 3
ENDMDL
MODEL 6
REMARK VINA RESULT:      -2.0      3.344      4.215
REMARK  Name = 26745158
REMARK  3 active torsions:
REMARK  status: ('A' for Active; 'I' for Inactive)
REMARK    1  A    between atoms: N_9  and  C_21
REMARK    2  A    between atoms: C_10  and  C_15
REMARK    3  A    between atoms: C_17  and  C_18
REMARK                            x       y       z     vdW  Elec       q    Type
REMARK                         _______ _______ _______ _____ _____    ______ ____
ROOT
ATOM      1  O   UNL     1      14.970  -8.139  31.136  0.00  0.00    -0.336 OA
ATOM      7  N   UNL     1      14.064  -7.170  29.331  0.00  0.00    -0.190 NA
ATOM      8  N   UNL     1      15.967  -8.140  30.153  0.00  0.00    -0.056 NA
ATOM     15  C   UNL     1      13.884  -7.552  30.571  0.00  0.00    +0.245 A 
ATOM     17  C   UNL     1      15.356  -7.553  29.119  0.00  0.00    +0.202 A 
ENDROOT
BRANCH  15  10
ATOM      4  N   UNL     1      12.185  -6.011  31.529  0.00  0.00    -0.300 NA
ATOM      5  N   UNL     1       8.824  -6.954  32.873  0.00  0.00    -0.347 N 
ATOM      6  N   UNL     1       9.142  -8.861  31.748  0.00  0.00    -0.240 NA
ATOM     10  C   UNL     1      12.649  -7.426  31.447  0.00  0.00    +0.149 C 
ATOM     11  C   UNL     1      11.519  -8.400  30.977  0.00  0.00    +0.085 C 
ATOM     12  C   UNL     1      10.260  -8.081  31.691  0.00  0.00    +0.065 A 
ATOM     13  C   UNL     1      11.101  -5.835  32.525  0.00  0.00    +0.137 C 
ATOM     14  C   UNL     1      10.088  -6.900  32.371  0.00  0.00    +0.053 A 
ATOM     16  C   UNL     1       8.293  -8.155  32.470  0.00  0.00    +0.197 A 
ATOM     24  H   UNL     1      11.832  -5.735  30.612  0.00  0.00    +0.123 HD
ATOM     25  H   UNL     1       8.361  -6.252  33.436  0.00  0.00    +0.167 HD
ENDBRANCH  15  10
BRANCH  17  18
ATOM     18  C   UNL     1      16.009  -7.333  27.859  0.00  0.00    +0.025 A 
ATOM     19  C   UNL     1      16.180  -6.035  27.380  0.00  0.00    +0.044 A 
ATOM     20  C   UNL     1      16.471  -8.419  27.117  0.00  0.00    +0.012 A 
ATOM     21  C   UNL     1      16.814  -5.823  26.155  0.00  0.00    +0.127 A 
ATOM     22  C   UNL     1      17.105  -8.207  25.892  0.00  0.00    +0.003 A 
ATOM     23  C   UNL     1      17.277  -6.909  25.411  0.00  0.00    +0.033 A 
BRANCH  21   9
ATOM      2  O   UNL     1      17.404  -3.613  26.448  0.00  0.00    -0.126 OA
ATOM      3  O   UNL     1      16.723  -4.258  24.463  0.00  0.00    -0.126 OA
ATOM      9  N   UNL     1      16.989  -4.502  25.665  0.00  0.00    +0.056 N 
ENDBRANCH  21   9
ENDBRANCH  17  18
TORSDOF 3
ENDMDL
MODEL 7
REMARK VINA RESULT:      -0.4     15.591     17.171
REMARK  Name = 26745158
REMARK  3 active torsions:
REMARK  status: ('A' for Active; 'I' for Inactive)
REMARK    1  A    between atoms: N_9  and  C_21
REMARK    2  A    between atoms: C_10  and  C_15
REMARK    3  A    between atoms: C_17  and  C_18
REMARK                            x       y       z     vdW  Elec       q    Type
REMARK                         _______ _______ _______ _____ _____    ______ ____
ROOT
ATOM      1  O   UNL     1      -1.326  -0.896  24.650  0.00  0.00    -0.336 OA
ATOM      7  N   UNL     1      -0.546   0.789  23.399  0.00  0.00    -0.190 NA
ATOM      8  N   UNL     1      -0.004  -1.228  24.334  0.00  0.00    -0.056 NA
ATOM     15  C   UNL     1      -1.566   0.304  24.062  0.00  0.00    +0.245 A 
ATOM     17  C   UNL     1       0.388  -0.186  23.594  0.00  0.00    +0.202 A 
ENDROOT
BRANCH  15  10
ATOM      4  N   UNL     1      -3.759   0.066  25.206  0.00  0.00    -0.300 NA
ATOM      5  N   UNL     1      -6.296   2.761  25.749  0.00  0.00    -0.347 N 
ATOM      6  N   UNL     1      -4.604   4.154  25.300  0.00  0.00    -0.240 NA
ATOM     10  C   UNL     1      -2.952   0.891  24.261  0.00  0.00    +0.149 C 
ATOM     11  C   UNL     1      -2.875   2.393  24.694  0.00  0.00    +0.085 C 
ATOM     12  C   UNL     1      -4.219   2.858  25.111  0.00  0.00    +0.065 A 
ATOM     13  C   UNL     1      -5.173   0.510  25.269  0.00  0.00    +0.137 C 
ATOM     14  C   UNL     1      -5.241   1.982  25.386  0.00  0.00    +0.053 A 
ATOM     16  C   UNL     1      -5.863   4.063  25.682  0.00  0.00    +0.197 A 
ATOM     24  H   UNL     1      -3.350   0.151  26.138  0.00  0.00    +0.123 HD
ATOM     25  H   UNL     1      -7.222   2.449  26.013  0.00  0.00    +0.167 HD
ENDBRANCH  15  10
BRANCH  17  18
ATOM     18  C   UNL     1       1.707  -0.088  23.035  0.00  0.00    +0.025 A 
ATOM     19  C   UNL     1       2.821  -0.071  23.873  0.00  0.00    +0.044 A 
ATOM     20  C   UNL     1       1.871  -0.008  21.652  0.00  0.00    +0.012 A 
ATOM     21  C   UNL     1       4.101   0.025  23.328  0.00  0.00    +0.127 A 
ATOM     22  C   UNL     1       3.152   0.088  21.107  0.00  0.00    +0.003 A 
ATOM     23  C   UNL     1       4.267   0.104  21.946  0.00  0.00    +0.033 A 
BRANCH  21   9
ATOM      2  O   UNL     1       5.733   1.146  24.511  0.00  0.00    -0.126 OA
ATOM      3  O   UNL     1       5.713  -1.048  24.582  0.00  0.00    -0.126 OA
ATOM      9  N   UNL     1       5.236   0.042  24.181  0.00  0.00    +0.056 N 
ENDBRANCH  21   9
ENDBRANCH  17  18
TORSDOF 3
ENDMDL
MODEL 8
REMARK VINA RESULT:      -0.4     15.679     17.220
REMARK  Name = 26745158
REMARK  3 active torsions:
REMARK  status: ('A' for Active; 'I' for Inactive)
REMARK    1  A    between atoms: N_9  and  C_21
REMARK    2  A    between atoms: C_10  and  C_15
REMARK    3  A    between atoms: C_17  and  C_18
REMARK                            x       y       z     vdW  Elec       q    Type
REMARK                         _______ _______ _______ _____ _____    ______ ____
ROOT
ATOM      1  O   UNL     1      -1.305  -0.635  24.819  0.00  0.00    -0.336 OA
ATOM      7  N   UNL     1      -0.257   1.180  24.031  0.00  0.00    -0.190 NA
ATOM      8  N   UNL     1      -0.133  -1.098  24.210  0.00  0.00    -0.056 NA
ATOM     15  C   UNL     1      -1.301   0.715  24.669  0.00  0.00    +0.245 A 
ATOM     17  C   UNL     1       0.431   0.031  23.768  0.00  0.00    +0.202 A 
ENDROOT
BRANCH  15  10
ATOM      4  N   UNL     1      -2.380   2.930  24.993  0.00  0.00    -0.300 NA
ATOM      5  N   UNL     1      -5.975   3.562  25.813  0.00  0.00    -0.347 N 
ATOM      6  N   UNL     1      -6.283   1.455  25.128  0.00  0.00    -0.240 NA
ATOM     10  C   UNL     1      -2.484   1.465  25.255  0.00  0.00    +0.149 C 
ATOM     11  C   UNL     1      -3.840   0.864  24.758  0.00  0.00    +0.085 C 
ATOM     12  C   UNL     1      -4.953   1.760  25.149  0.00  0.00    +0.065 A 
ATOM     13  C   UNL     1      -3.419   3.703  25.716  0.00  0.00    +0.137 C 
ATOM     14  C   UNL     1      -4.737   3.052  25.562  0.00  0.00    +0.053 A 
ATOM     16  C   UNL     1      -6.874   2.562  25.536  0.00  0.00    +0.197 A 
ATOM     24  H   UNL     1      -2.496   3.087  23.991  0.00  0.00    +0.123 HD
ATOM     25  H   UNL     1      -6.195   4.493  26.143  0.00  0.00    +0.167 HD
ENDBRANCH  15  10
BRANCH  17  18
ATOM     18  C   UNL     1       1.680   0.046  23.063  0.00  0.00    +0.025 A 
ATOM     19  C   UNL     1       2.879   0.143  23.768  0.00  0.00    +0.044 A 
ATOM     20  C   UNL     1       1.694  -0.037  21.670  0.00  0.00    +0.012 A 
ATOM     21  C   UNL     1       4.093   0.158  23.081  0.00  0.00    +0.127 A 
ATOM     22  C   UNL     1       2.907  -0.022  20.983  0.00  0.00    +0.003 A 
ATOM     23  C   UNL     1       4.107   0.075  21.688  0.00  0.00    +0.033 A 
BRANCH  21   9
ATOM      2  O   UNL     1       5.305   0.768  24.945  0.00  0.00    -0.126 OA
ATOM      3  O   UNL     1       6.369  -0.164  23.266  0.00  0.00    -0.126 OA
ATOM      9  N   UNL     1       5.314   0.258  23.798  0.00  0.00    +0.056 N 
ENDBRANCH  21   9
ENDBRANCH  17  18
TORSDOF 3
ENDMDL
MODEL 9
REMARK VINA RESULT:       0.5     16.235     18.865
REMARK  Name = 26745158
REMARK  3 active torsions:
REMARK  status: ('A' for Active; 'I' for Inactive)
REMARK    1  A    between atoms: N_9  and  C_21
REMARK    2  A    between atoms: C_10  and  C_15
REMARK    3  A    between atoms: C_17  and  C_18
REMARK                            x       y       z     vdW  Elec       q    Type
REMARK                         _______ _______ _______ _____ _____    ______ ____
ROOT
ATOM      1  O   UNL     1      -0.921  -0.938  23.903  0.00  0.00    -0.336 OA
ATOM      7  N   UNL     1      -0.643   1.281  24.016  0.00  0.00    -0.190 NA
ATOM      8  N   UNL     1      -2.141  -0.417  24.349  0.00  0.00    -0.056 NA
ATOM     15  C   UNL     1      -0.096   0.126  23.731  0.00  0.00    +0.245 A 
ATOM     17  C   UNL     1      -1.898   0.897  24.391  0.00  0.00    +0.202 A 
ENDROOT
BRANCH  15  10
ATOM      4  N   UNL     1       1.491   0.239  21.822  0.00  0.00    -0.300 NA
ATOM      5  N   UNL     1       5.223   0.058  22.008  0.00  0.00    -0.347 N 
ATOM      6  N   UNL     1       4.927   0.524  24.176  0.00  0.00    -0.240 NA
ATOM     10  C   UNL     1       1.310  -0.179  23.242  0.00  0.00    +0.149 C 
ATOM     11  C   UNL     1       2.387   0.444  24.191  0.00  0.00    +0.085 C 
ATOM     12  C   UNL     1       3.724   0.338  23.559  0.00  0.00    +0.065 A 
ATOM     13  C   UNL     1       2.787  -0.219  21.265  0.00  0.00    +0.137 C 
ATOM     14  C   UNL     1       3.879   0.054  22.224  0.00  0.00    +0.053 A 
ATOM     16  C   UNL     1       5.812   0.347  23.214  0.00  0.00    +0.197 A 
ATOM     24  H   UNL     1       1.461   1.258  21.779  0.00  0.00    +0.123 HD
ATOM     25  H   UNL     1       5.700  -0.120  21.134  0.00  0.00    +0.167 HD
ENDBRANCH  15  10
BRANCH  17  18
ATOM     18  C   UNL     1      -2.886   1.853  24.802  0.00  0.00    +0.025 A 
ATOM     19  C   UNL     1      -4.204   1.449  25.009  0.00  0.00    +0.044 A 
ATOM     20  C   UNL     1      -2.526   3.187  24.994  0.00  0.00    +0.012 A 
ATOM     21  C   UNL     1      -5.164   2.379  25.408  0.00  0.00    +0.127 A 
ATOM     22  C   UNL     1      -3.486   4.117  25.393  0.00  0.00    +0.003 A 
ATOM     23  C   UNL     1      -4.805   3.713  25.600  0.00  0.00    +0.033 A 
BRANCH  21   9
ATOM      2  O   UNL     1      -6.921   1.819  26.793  0.00  0.00    -0.126 OA
ATOM      3  O   UNL     1      -7.244   1.765  24.623  0.00  0.00    -0.126 OA
ATOM      9  N   UNL     1      -6.507   1.968  25.618  0.00  0.00    +0.056 N 
ENDBRANCH  21   9
ENDBRANCH  17  18
TORSDOF 3
ENDMDL
