MODEL 1
REMARK VINA RESULT:      -5.6      0.000      0.000
REMARK  Name = 26744640
REMARK  10 active torsions:
REMARK  status: ('A' for Active; 'I' for Inactive)
REMARK    1  A    between atoms: O_2  and  C_10
REMARK    2  A    between atoms: O_3  and  C_11
REMARK    3  A    between atoms: N_6  and  C_13
REMARK    4  A    between atoms: N_7  and  C_14
REMARK    5  A    between atoms: N_8  and  C_23
REMARK    6  A    between atoms: C_9  and  C_14
REMARK    7  A    between atoms: C_12  and  C_17
REMARK    8  A    between atoms: C_17  and  C_22
REMARK    9  A    between atoms: C_23  and  C_24
REMARK   10  A    between atoms: C_23  and  C_25
REMARK                            x       y       z     vdW  Elec       q    Type
REMARK                         _______ _______ _______ _____ _____    ______ ____
ROOT
ATOM      1  O   UNL     1      -2.606   1.597  23.975  0.00  0.00    -0.366 OA
ATOM      9  C   UNL     1      -1.817   2.503  24.766  0.00  0.00    +0.167 C 
ATOM     10  C   UNL     1      -2.811   3.289  25.605  0.00  0.00    +0.176 C 
ATOM     11  C   UNL     1      -3.979   3.420  24.648  0.00  0.00    +0.175 C 
ATOM     12  C   UNL     1      -3.976   2.060  23.957  0.00  0.00    +0.158 C 
ENDROOT
BRANCH  10   2
ATOM      2  O   UNL     1      -2.287   4.532  26.021  0.00  0.00    -0.387 OA
ATOM     28  H   UNL     1      -2.923   5.221  25.758  0.00  0.00    +0.210 HD
ENDBRANCH  10   2
BRANCH  11   3
ATOM      3  O   UNL     1      -3.705   4.417  23.665  0.00  0.00    -0.387 OA
ATOM     29  H   UNL     1      -4.118   4.126  22.834  0.00  0.00    +0.210 HD
ENDBRANCH  11   3
BRANCH   9  14
ATOM     14  C   UNL     1      -0.817   1.719  25.596  0.00  0.00    +0.140 C 
BRANCH  14   7
ATOM      4  O   UNL     1       0.248   0.191  23.405  0.00  0.00    -0.253 OA
ATOM      6  N   UNL     1       2.263   1.323  23.634  0.00  0.00    -0.297 N 
ATOM      7  N   UNL     1       0.503   1.815  25.044  0.00  0.00    -0.297 N 
ATOM     21  C   UNL     1       0.944   1.032  23.973  0.00  0.00    +0.300 C 
ATOM     26  H   UNL     1       2.722   2.086  24.122  0.00  0.00    +0.151 HD
ATOM     27  H   UNL     1       1.147   2.491  25.446  0.00  0.00    +0.150 HD
BRANCH   6  13
ATOM     13  C   UNL     1       2.968   0.659  22.560  0.00  0.00    +0.074 C 
ATOM     15  C   UNL     1       4.415   1.153  22.463  0.00  0.00    +0.022 C 
ATOM     16  C   UNL     1       2.910  -0.864  22.724  0.00  0.00    +0.022 C 
ATOM     18  C   UNL     1       5.283   0.652  23.618  0.00  0.00    +0.002 C 
ATOM     19  C   UNL     1       3.781  -1.361  23.878  0.00  0.00    +0.002 C 
ATOM     20  C   UNL     1       5.219  -0.866  23.753  0.00  0.00    +0.000 C 
ENDBRANCH   6  13
ENDBRANCH  14   7
ENDBRANCH   9  14
BRANCH  12  17
ATOM     17  C   UNL     1      -4.829   1.025  24.677  0.00  0.00    +0.130 C 
BRANCH  17  22
ATOM      5  O   UNL     1      -3.819  -0.523  26.237  0.00  0.00    -0.276 OA
ATOM      8  N   UNL     1      -3.603  -0.912  23.956  0.00  0.00    -0.313 N 
ATOM     22  C   UNL     1      -4.036  -0.209  25.071  0.00  0.00    +0.216 C 
ATOM     30  H   UNL     1      -3.891  -0.596  23.034  0.00  0.00    +0.149 HD
BRANCH   8  23
ATOM     23  C   UNL     1      -2.824  -2.126  24.043  0.00  0.00    +0.067 C 
ATOM     24  C   UNL     1      -3.684  -3.269  24.567  0.00  0.00    +0.027 C 
ATOM     25  C   UNL     1      -1.597  -1.912  24.921  0.00  0.00    +0.027 C 
ENDBRANCH   8  23
ENDBRANCH  17  22
ENDBRANCH  12  17
TORSDOF 8
ENDMDL
MODEL 2
REMARK VINA RESULT:      -4.2      1.909      6.821
REMARK  Name = 26744640
REMARK  10 active torsions:
REMARK  status: ('A' for Active; 'I' for Inactive)
REMARK    1  A    between atoms: O_2  and  C_10
REMARK    2  A    between atoms: O_3  and  C_11
REMARK    3  A    between atoms: N_6  and  C_13
REMARK    4  A    between atoms: N_7  and  C_14
REMARK    5  A    between atoms: N_8  and  C_23
REMARK    6  A    between atoms: C_9  and  C_14
REMARK    7  A    between atoms: C_12  and  C_17
REMARK    8  A    between atoms: C_17  and  C_22
REMARK    9  A    between atoms: C_23  and  C_24
REMARK   10  A    between atoms: C_23  and  C_25
REMARK                            x       y       z     vdW  Elec       q    Type
REMARK                         _______ _______ _______ _____ _____    ______ ____
ROOT
ATOM      1  O   UNL     1      -1.340  -2.207  23.640  0.00  0.00    -0.366 OA
ATOM      9  C   UNL     1      -2.269  -2.115  24.734  0.00  0.00    +0.167 C 
ATOM     10  C   UNL     1      -1.776  -0.966  25.596  0.00  0.00    +0.176 C 
ATOM     11  C   UNL     1      -0.273  -1.106  25.459  0.00  0.00    +0.175 C 
ATOM     12  C   UNL     1      -0.124  -1.507  23.995  0.00  0.00    +0.158 C 
ENDROOT
BRANCH  10   2
ATOM      2  O   UNL     1      -2.227  -1.071  26.930  0.00  0.00    -0.387 OA
ATOM     28  H   UNL     1      -2.422  -2.009  27.100  0.00  0.00    +0.210 HD
ENDBRANCH  10   2
BRANCH  11   3
ATOM      3  O   UNL     1       0.199  -2.185  26.264  0.00  0.00    -0.387 OA
ATOM     29  H   UNL     1      -0.579  -2.609  26.666  0.00  0.00    +0.210 HD
ENDBRANCH  11   3
BRANCH   9  14
ATOM     14  C   UNL     1      -3.673  -1.904  24.196  0.00  0.00    +0.140 C 
BRANCH  14   7
ATOM      4  O   UNL     1      -3.350   0.722  23.068  0.00  0.00    -0.253 OA
ATOM      6  N   UNL     1      -4.693   1.579  24.758  0.00  0.00    -0.297 N 
ATOM      7  N   UNL     1      -4.238  -0.683  24.689  0.00  0.00    -0.297 N 
ATOM     21  C   UNL     1      -4.032   0.558  24.079  0.00  0.00    +0.300 C 
ATOM     26  H   UNL     1      -5.286   1.323  25.540  0.00  0.00    +0.151 HD
ATOM     27  H   UNL     1      -4.824  -0.722  25.519  0.00  0.00    +0.150 HD
BRANCH   6  13
ATOM     13  C   UNL     1      -4.648   2.964  24.341  0.00  0.00    +0.074 C 
ATOM     15  C   UNL     1      -4.914   3.903  25.522  0.00  0.00    +0.022 C 
ATOM     16  C   UNL     1      -3.314   3.290  23.660  0.00  0.00    +0.022 C 
ATOM     18  C   UNL     1      -3.746   3.949  26.507  0.00  0.00    +0.002 C 
ATOM     19  C   UNL     1      -2.149   3.337  24.650  0.00  0.00    +0.002 C 
ATOM     20  C   UNL     1      -2.433   4.287  25.809  0.00  0.00    +0.000 C 
ENDBRANCH   6  13
ENDBRANCH  14   7
ENDBRANCH   9  14
BRANCH  12  17
ATOM     17  C   UNL     1       0.016  -0.313  23.062  0.00  0.00    +0.130 C 
BRANCH  17  22
ATOM      5  O   UNL     1       1.452  -0.359  21.116  0.00  0.00    -0.276 OA
ATOM      8  N   UNL     1       2.411  -0.199  23.227  0.00  0.00    -0.313 N 
ATOM     22  C   UNL     1       1.350  -0.295  22.337  0.00  0.00    +0.216 C 
ATOM     30  H   UNL     1       2.211  -0.090  24.217  0.00  0.00    +0.149 HD
BRANCH   8  23
ATOM     23  C   UNL     1       3.792  -0.164  22.805  0.00  0.00    +0.067 C 
ATOM     24  C   UNL     1       4.673  -0.880  23.821  0.00  0.00    +0.027 C 
ATOM     25  C   UNL     1       4.250   1.275  22.594  0.00  0.00    +0.027 C 
ENDBRANCH   8  23
ENDBRANCH  17  22
ENDBRANCH  12  17
TORSDOF 8
ENDMDL
MODEL 3
REMARK VINA RESULT:      -4.2      2.257      5.441
REMARK  Name = 26744640
REMARK  10 active torsions:
REMARK  status: ('A' for Active; 'I' for Inactive)
REMARK    1  A    between atoms: O_2  and  C_10
REMARK    2  A    between atoms: O_3  and  C_11
REMARK    3  A    between atoms: N_6  and  C_13
REMARK    4  A    between atoms: N_7  and  C_14
REMARK    5  A    between atoms: N_8  and  C_23
REMARK    6  A    between atoms: C_9  and  C_14
REMARK    7  A    between atoms: C_12  and  C_17
REMARK    8  A    between atoms: C_17  and  C_22
REMARK    9  A    between atoms: C_23  and  C_24
REMARK   10  A    between atoms: C_23  and  C_25
REMARK                            x       y       z     vdW  Elec       q    Type
REMARK                         _______ _______ _______ _____ _____    ______ ____
ROOT
ATOM      1  O   UNL     1      -0.227   2.271  23.137  0.00  0.00    -0.366 OA
ATOM      9  C   UNL     1       0.710   2.009  24.196  0.00  0.00    +0.167 C 
ATOM     10  C   UNL     1      -0.088   2.112  25.485  0.00  0.00    +0.176 C 
ATOM     11  C   UNL     1      -1.063   3.223  25.151  0.00  0.00    +0.175 C 
ATOM     12  C   UNL     1      -1.391   2.927  23.690  0.00  0.00    +0.158 C 
ENDROOT
BRANCH  10   2
ATOM      2  O   UNL     1       0.733   2.405  26.595  0.00  0.00    -0.387 OA
ATOM     28  H   UNL     1       0.199   2.917  27.228  0.00  0.00    +0.210 HD
ENDBRANCH  10   2
BRANCH  11   3
ATOM      3  O   UNL     1      -0.410   4.490  25.210  0.00  0.00    -0.387 OA
ATOM     29  H   UNL     1      -0.250   4.690  26.148  0.00  0.00    +0.210 HD
ENDBRANCH  11   3
BRANCH   9  14
ATOM     14  C   UNL     1       1.347   0.646  23.990  0.00  0.00    +0.140 C 
BRANCH  14   7
ATOM      4  O   UNL     1      -0.497  -0.526  25.861  0.00  0.00    -0.253 OA
ATOM      6  N   UNL     1      -1.369  -1.822  24.143  0.00  0.00    -0.297 N 
ATOM      7  N   UNL     1       0.356  -0.351  23.709  0.00  0.00    -0.297 N 
ATOM     21  C   UNL     1      -0.506  -0.870  24.680  0.00  0.00    +0.300 C 
ATOM     26  H   UNL     1      -1.338  -1.980  23.141  0.00  0.00    +0.151 HD
ATOM     27  H   UNL     1       0.270  -0.692  22.755  0.00  0.00    +0.150 HD
BRANCH   6  13
ATOM     13  C   UNL     1      -2.364  -2.519  24.928  0.00  0.00    +0.074 C 
ATOM     15  C   UNL     1      -2.974  -1.596  25.988  0.00  0.00    +0.022 C 
ATOM     16  C   UNL     1      -3.447  -3.125  24.029  0.00  0.00    +0.022 C 
ATOM     18  C   UNL     1      -3.896  -0.537  25.382  0.00  0.00    +0.002 C 
ATOM     19  C   UNL     1      -4.368  -2.064  23.427  0.00  0.00    +0.002 C 
ATOM     20  C   UNL     1      -4.972  -1.165  24.502  0.00  0.00    +0.000 C 
ENDBRANCH   6  13
ENDBRANCH  14   7
ENDBRANCH   9  14
BRANCH  12  17
ATOM     17  C   UNL     1      -2.578   1.989  23.524  0.00  0.00    +0.130 C 
BRANCH  17  22
ATOM      5  O   UNL     1      -4.364   3.494  22.896  0.00  0.00    -0.276 OA
ATOM      8  N   UNL     1      -4.521   2.325  24.898  0.00  0.00    -0.313 N 
ATOM     22  C   UNL     1      -3.908   2.696  23.710  0.00  0.00    +0.216 C 
ATOM     30  H   UNL     1      -4.084   1.608  25.472  0.00  0.00    +0.149 HD
BRANCH   8  23
ATOM     23  C   UNL     1      -5.798   2.849  25.325  0.00  0.00    +0.067 C 
ATOM     24  C   UNL     1      -5.666   4.318  25.704  0.00  0.00    +0.027 C 
ATOM     25  C   UNL     1      -6.352   2.027  26.483  0.00  0.00    +0.027 C 
ENDBRANCH   8  23
ENDBRANCH  17  22
ENDBRANCH  12  17
TORSDOF 8
ENDMDL
MODEL 4
REMARK VINA RESULT:      -3.7      1.682      3.668
REMARK  Name = 26744640
REMARK  10 active torsions:
REMARK  status: ('A' for Active; 'I' for Inactive)
REMARK    1  A    between atoms: O_2  and  C_10
REMARK    2  A    between atoms: O_3  and  C_11
REMARK    3  A    between atoms: N_6  and  C_13
REMARK    4  A    between atoms: N_7  and  C_14
REMARK    5  A    between atoms: N_8  and  C_23
REMARK    6  A    between atoms: C_9  and  C_14
REMARK    7  A    between atoms: C_12  and  C_17
REMARK    8  A    between atoms: C_17  and  C_22
REMARK    9  A    between atoms: C_23  and  C_24
REMARK   10  A    between atoms: C_23  and  C_25
REMARK                            x       y       z     vdW  Elec       q    Type
REMARK                         _______ _______ _______ _____ _____    ______ ____
ROOT
ATOM      1  O   UNL     1      -3.081   0.286  25.988  0.00  0.00    -0.366 OA
ATOM      9  C   UNL     1      -1.785   0.056  25.410  0.00  0.00    +0.167 C 
ATOM     10  C   UNL     1      -2.028  -0.811  24.187  0.00  0.00    +0.176 C 
ATOM     11  C   UNL     1      -3.176  -1.682  24.655  0.00  0.00    +0.175 C 
ATOM     12  C   UNL     1      -4.007  -0.698  25.472  0.00  0.00    +0.158 C 
ENDROOT
BRANCH  10   2
ATOM      2  O   UNL     1      -0.880  -1.547  23.822  0.00  0.00    -0.387 OA
ATOM     28  H   UNL     1      -0.180  -1.337  24.463  0.00  0.00    +0.210 HD
ENDBRANCH  10   2
BRANCH  11   3
ATOM      3  O   UNL     1      -2.699  -2.698  25.536  0.00  0.00    -0.387 OA
ATOM     29  H   UNL     1      -3.110  -2.545  26.404  0.00  0.00    +0.210 HD
ENDBRANCH  11   3
BRANCH   9  14
ATOM     14  C   UNL     1      -1.127   1.385  25.084  0.00  0.00    +0.140 C 
BRANCH  14   7
ATOM      4  O   UNL     1       0.249   0.628  22.675  0.00  0.00    -0.253 OA
ATOM      6  N   UNL     1       2.267   0.790  23.813  0.00  0.00    -0.297 N 
ATOM      7  N   UNL     1       0.289   1.235  24.916  0.00  0.00    -0.297 N 
ATOM     21  C   UNL     1       0.880   0.863  23.705  0.00  0.00    +0.300 C 
ATOM     26  H   UNL     1       2.691   1.073  24.691  0.00  0.00    +0.151 HD
ATOM     27  H   UNL     1       0.892   1.416  25.713  0.00  0.00    +0.150 HD
BRANCH   6  13
ATOM     13  C   UNL     1       3.128   0.427  22.709  0.00  0.00    +0.074 C 
ATOM     15  C   UNL     1       4.437   1.222  22.747  0.00  0.00    +0.022 C 
ATOM     16  C   UNL     1       3.395  -1.083  22.694  0.00  0.00    +0.022 C 
ATOM     18  C   UNL     1       5.361   0.777  23.881  0.00  0.00    +0.002 C 
ATOM     19  C   UNL     1       4.320  -1.523  23.828  0.00  0.00    +0.002 C 
ATOM     20  C   UNL     1       5.621  -0.726  23.837  0.00  0.00    +0.000 C 
ENDBRANCH   6  13
ENDBRANCH  14   7
ENDBRANCH   9  14
BRANCH  12  17
ATOM     17  C   UNL     1      -5.051   0.033  24.640  0.00  0.00    +0.130 C 
BRANCH  17  22
ATOM      5  O   UNL     1      -6.140   1.809  25.870  0.00  0.00    -0.276 OA
ATOM      8  N   UNL     1      -4.321   2.319  24.517  0.00  0.00    -0.313 N 
ATOM     22  C   UNL     1      -5.254   1.468  25.092  0.00  0.00    +0.216 C 
ATOM     30  H   UNL     1      -3.590   1.923  23.933  0.00  0.00    +0.149 HD
BRANCH   8  23
ATOM     23  C   UNL     1      -4.286   3.741  24.774  0.00  0.00    +0.067 C 
ATOM     24  C   UNL     1      -3.748   4.485  23.558  0.00  0.00    +0.027 C 
ATOM     25  C   UNL     1      -3.456   4.039  26.016  0.00  0.00    +0.027 C 
ENDBRANCH   8  23
ENDBRANCH  17  22
ENDBRANCH  12  17
TORSDOF 8
ENDMDL
MODEL 5
REMARK VINA RESULT:      -3.5     14.359     17.113
REMARK  Name = 26744640
REMARK  10 active torsions:
REMARK  status: ('A' for Active; 'I' for Inactive)
REMARK    1  A    between atoms: O_2  and  C_10
REMARK    2  A    between atoms: O_3  and  C_11
REMARK    3  A    between atoms: N_6  and  C_13
REMARK    4  A    between atoms: N_7  and  C_14
REMARK    5  A    between atoms: N_8  and  C_23
REMARK    6  A    between atoms: C_9  and  C_14
REMARK    7  A    between atoms: C_12  and  C_17
REMARK    8  A    between atoms: C_17  and  C_22
REMARK    9  A    between atoms: C_23  and  C_24
REMARK   10  A    between atoms: C_23  and  C_25
REMARK                            x       y       z     vdW  Elec       q    Type
REMARK                         _______ _______ _______ _____ _____    ______ ____
ROOT
ATOM      1  O   UNL     1      -5.442  -9.534  14.433  0.00  0.00    -0.366 OA
ATOM      9  C   UNL     1      -4.064  -9.930  14.549  0.00  0.00    +0.167 C 
ATOM     10  C   UNL     1      -3.981 -10.762  15.818  0.00  0.00    +0.176 C 
ATOM     11  C   UNL     1      -4.985 -10.058  16.708  0.00  0.00    +0.175 C 
ATOM     12  C   UNL     1      -6.087  -9.694  15.717  0.00  0.00    +0.158 C 
ENDROOT
BRANCH  10   2
ATOM      2  O   UNL     1      -2.676 -10.781  16.355  0.00  0.00    -0.387 OA
ATOM     28  H   UNL     1      -2.518 -11.673  16.711  0.00  0.00    +0.210 HD
ENDBRANCH  10   2
BRANCH  11   3
ATOM      3  O   UNL     1      -4.431  -8.847  17.219  0.00  0.00    -0.387 OA
ATOM     29  H   UNL     1      -5.124  -8.408  17.742  0.00  0.00    +0.210 HD
ENDBRANCH  11   3
BRANCH   9  14
ATOM     14  C   UNL     1      -3.643 -10.690  13.304  0.00  0.00    +0.140 C 
BRANCH  14   7
ATOM      4  O   UNL     1      -3.543  -9.598  10.645  0.00  0.00    -0.253 OA
ATOM      6  N   UNL     1      -5.729 -10.305  10.305  0.00  0.00    -0.297 N 
ATOM      7  N   UNL     1      -4.694 -10.708  12.328  0.00  0.00    -0.297 N 
ATOM     21  C   UNL     1      -4.563 -10.153  11.052  0.00  0.00    +0.300 C 
ATOM     26  H   UNL     1      -6.488 -10.841  10.712  0.00  0.00    +0.151 HD
ATOM     27  H   UNL     1      -5.574 -11.153  12.573  0.00  0.00    +0.150 HD
BRANCH   6  13
ATOM     13  C   UNL     1      -5.867  -9.821   8.949  0.00  0.00    +0.074 C 
ATOM     15  C   UNL     1      -6.780 -10.738   8.127  0.00  0.00    +0.022 C 
ATOM     16  C   UNL     1      -6.371  -8.374   8.930  0.00  0.00    +0.022 C 
ATOM     18  C   UNL     1      -8.248 -10.622   8.536  0.00  0.00    +0.002 C 
ATOM     19  C   UNL     1      -7.841  -8.262   9.337  0.00  0.00    +0.002 C 
ATOM     20  C   UNL     1      -8.730  -9.175   8.498  0.00  0.00    +0.000 C 
ENDBRANCH   6  13
ENDBRANCH  14   7
ENDBRANCH   9  14
BRANCH  12  17
ATOM     17  C   UNL     1      -7.143 -10.781  15.576  0.00  0.00    +0.130 C 
BRANCH  17  22
ATOM      5  O   UNL     1      -9.284 -10.101  14.678  0.00  0.00    -0.276 OA
ATOM      8  N   UNL     1      -8.902  -9.907  16.962  0.00  0.00    -0.313 N 
ATOM     22  C   UNL     1      -8.556 -10.232  15.658  0.00  0.00    +0.216 C 
ATOM     30  H   UNL     1      -8.244 -10.113  17.709  0.00  0.00    +0.149 HD
BRANCH   8  23
ATOM     23  C   UNL     1     -10.190  -9.362  17.324  0.00  0.00    +0.067 C 
ATOM     24  C   UNL     1     -10.189  -7.848  17.156  0.00  0.00    +0.027 C 
ATOM     25  C   UNL     1     -10.556  -9.759  18.749  0.00  0.00    +0.027 C 
ENDBRANCH   8  23
ENDBRANCH  17  22
ENDBRANCH  12  17
TORSDOF 8
ENDMDL
MODEL 6
REMARK VINA RESULT:      -3.1     15.016     17.219
REMARK  Name = 26744640
REMARK  10 active torsions:
REMARK  status: ('A' for Active; 'I' for Inactive)
REMARK    1  A    between atoms: O_2  and  C_10
REMARK    2  A    between atoms: O_3  and  C_11
REMARK    3  A    between atoms: N_6  and  C_13
REMARK    4  A    between atoms: N_7  and  C_14
REMARK    5  A    between atoms: N_8  and  C_23
REMARK    6  A    between atoms: C_9  and  C_14
REMARK    7  A    between atoms: C_12  and  C_17
REMARK    8  A    between atoms: C_17  and  C_22
REMARK    9  A    between atoms: C_23  and  C_24
REMARK   10  A    between atoms: C_23  and  C_25
REMARK                            x       y       z     vdW  Elec       q    Type
REMARK                         _______ _______ _______ _____ _____    ______ ____
ROOT
ATOM      1  O   UNL     1      -6.514  -9.337  14.489  0.00  0.00    -0.366 OA
ATOM      9  C   UNL     1      -5.608  -9.793  15.508  0.00  0.00    +0.167 C 
ATOM     10  C   UNL     1      -6.454 -10.597  16.481  0.00  0.00    +0.176 C 
ATOM     11  C   UNL     1      -7.760  -9.828  16.456  0.00  0.00    +0.175 C 
ATOM     12  C   UNL     1      -7.869  -9.438  14.986  0.00  0.00    +0.158 C 
ENDROOT
BRANCH  10   2
ATOM      2  O   UNL     1      -5.869 -10.663  17.764  0.00  0.00    -0.387 OA
ATOM     28  H   UNL     1      -5.184  -9.974  17.810  0.00  0.00    +0.210 HD
ENDBRANCH  10   2
BRANCH  11   3
ATOM      3  O   UNL     1      -7.644  -8.631  17.224  0.00  0.00    -0.387 OA
ATOM     29  H   UNL     1      -8.087  -8.788  18.075  0.00  0.00    +0.210 HD
ENDBRANCH  11   3
BRANCH   9  14
ATOM     14  C   UNL     1      -4.489 -10.600  14.875  0.00  0.00    +0.140 C 
BRANCH  14   7
ATOM      4  O   UNL     1      -2.876  -9.560  12.733  0.00  0.00    -0.253 OA
ATOM      6  N   UNL     1      -4.314 -10.557  11.206  0.00  0.00    -0.297 N 
ATOM      7  N   UNL     1      -4.710 -10.777  13.469  0.00  0.00    -0.297 N 
ATOM     21  C   UNL     1      -3.874 -10.236  12.488  0.00  0.00    +0.300 C 
ATOM     26  H   UNL     1      -5.110 -11.181  11.119  0.00  0.00    +0.151 HD
ATOM     27  H   UNL     1      -5.510 -11.330  13.171  0.00  0.00    +0.150 HD
BRANCH   6  13
ATOM     13  C   UNL     1      -3.633 -10.125  10.006  0.00  0.00    +0.074 C 
ATOM     15  C   UNL     1      -4.240 -10.781   8.761  0.00  0.00    +0.022 C 
ATOM     16  C   UNL     1      -3.643  -8.596   9.889  0.00  0.00    +0.022 C 
ATOM     18  C   UNL     1      -5.623 -10.226   8.422  0.00  0.00    +0.002 C 
ATOM     19  C   UNL     1      -5.027  -8.046   9.547  0.00  0.00    +0.002 C 
ATOM     20  C   UNL     1      -5.605  -8.706   8.299  0.00  0.00    +0.000 C 
ENDBRANCH   6  13
ENDBRANCH  14   7
ENDBRANCH   9  14
BRANCH  12  17
ATOM     17  C   UNL     1      -8.598 -10.478  14.147  0.00  0.00    +0.130 C 
BRANCH  17  22
ATOM      5  O   UNL     1     -10.692  -9.443  13.519  0.00  0.00    -0.276 OA
ATOM      8  N   UNL     1      -9.081  -9.821  11.886  0.00  0.00    -0.313 N 
ATOM     22  C   UNL     1      -9.587  -9.856  13.178  0.00  0.00    +0.216 C 
ATOM     30  H   UNL     1      -8.128 -10.135  11.725  0.00  0.00    +0.149 HD
BRANCH   8  23
ATOM     23  C   UNL     1      -9.816  -9.282  10.766  0.00  0.00    +0.067 C 
ATOM     24  C   UNL     1     -10.715 -10.351  10.159  0.00  0.00    +0.027 C 
ATOM     25  C   UNL     1      -8.861  -8.707   9.727  0.00  0.00    +0.027 C 
ENDBRANCH   8  23
ENDBRANCH  17  22
ENDBRANCH  12  17
TORSDOF 8
ENDMDL
MODEL 7
REMARK VINA RESULT:      -2.9      1.732      2.624
REMARK  Name = 26744640
REMARK  10 active torsions:
REMARK  status: ('A' for Active; 'I' for Inactive)
REMARK    1  A    between atoms: O_2  and  C_10
REMARK    2  A    between atoms: O_3  and  C_11
REMARK    3  A    between atoms: N_6  and  C_13
REMARK    4  A    between atoms: N_7  and  C_14
REMARK    5  A    between atoms: N_8  and  C_23
REMARK    6  A    between atoms: C_9  and  C_14
REMARK    7  A    between atoms: C_12  and  C_17
REMARK    8  A    between atoms: C_17  and  C_22
REMARK    9  A    between atoms: C_23  and  C_24
REMARK   10  A    between atoms: C_23  and  C_25
REMARK                            x       y       z     vdW  Elec       q    Type
REMARK                         _______ _______ _______ _____ _____    ______ ____
ROOT
ATOM      1  O   UNL     1      -3.151   4.111  23.782  0.00  0.00    -0.366 OA
ATOM      9  C   UNL     1      -2.765   4.652  25.057  0.00  0.00    +0.167 C 
ATOM     10  C   UNL     1      -3.122   3.588  26.080  0.00  0.00    +0.176 C 
ATOM     11  C   UNL     1      -4.392   3.010  25.488  0.00  0.00    +0.175 C 
ATOM     12  C   UNL     1      -4.077   3.020  23.995  0.00  0.00    +0.158 C 
ENDROOT
BRANCH  10   2
ATOM      2  O   UNL     1      -3.305   4.132  27.370  0.00  0.00    -0.387 OA
ATOM     28  H   UNL     1      -2.791   4.957  27.416  0.00  0.00    +0.210 HD
ENDBRANCH  10   2
BRANCH  11   3
ATOM      3  O   UNL     1      -5.490   3.892  25.715  0.00  0.00    -0.387 OA
ATOM     29  H   UNL     1      -6.048   3.490  26.403  0.00  0.00    +0.210 HD
ENDBRANCH  11   3
BRANCH   9  14
ATOM     14  C   UNL     1      -1.286   4.997  25.039  0.00  0.00    +0.140 C 
BRANCH  14   7
ATOM      4  O   UNL     1      -0.174   2.522  25.993  0.00  0.00    -0.253 OA
ATOM      6  N   UNL     1       0.651   2.107  23.862  0.00  0.00    -0.297 N 
ATOM      7  N   UNL     1      -0.540   4.040  24.275  0.00  0.00    -0.297 N 
ATOM     21  C   UNL     1      -0.032   2.856  24.817  0.00  0.00    +0.300 C 
ATOM     26  H   UNL     1       0.647   2.442  22.904  0.00  0.00    +0.151 HD
ATOM     27  H   UNL     1      -0.379   4.228  23.290  0.00  0.00    +0.150 HD
BRANCH   6  13
ATOM     13  C   UNL     1       1.277   0.836  24.154  0.00  0.00    +0.074 C 
ATOM     15  C   UNL     1       0.350  -0.330  23.795  0.00  0.00    +0.022 C 
ATOM     16  C   UNL     1       2.628   0.712  23.440  0.00  0.00    +0.022 C 
ATOM     18  C   UNL     1       0.202  -0.517  22.285  0.00  0.00    +0.002 C 
ATOM     19  C   UNL     1       2.476   0.523  21.931  0.00  0.00    +0.002 C 
ATOM     20  C   UNL     1       1.559  -0.650  21.599  0.00  0.00    +0.000 C 
ENDBRANCH   6  13
ENDBRANCH  14   7
ENDBRANCH   9  14
BRANCH  12  17
ATOM     17  C   UNL     1      -3.407   1.739  23.519  0.00  0.00    +0.130 C 
BRANCH  17  22
ATOM      5  O   UNL     1      -5.039   0.476  24.781  0.00  0.00    -0.276 OA
ATOM      8  N   UNL     1      -3.060  -0.557  24.135  0.00  0.00    -0.313 N 
ATOM     22  C   UNL     1      -3.949   0.505  24.218  0.00  0.00    +0.216 C 
ATOM     30  H   UNL     1      -2.209  -0.443  23.592  0.00  0.00    +0.149 HD
BRANCH   8  23
ATOM     23  C   UNL     1      -3.324  -1.853  24.718  0.00  0.00    +0.067 C 
ATOM     24  C   UNL     1      -2.021  -2.614  24.927  0.00  0.00    +0.027 C 
ATOM     25  C   UNL     1      -4.292  -2.644  23.846  0.00  0.00    +0.027 C 
ENDBRANCH   8  23
ENDBRANCH  17  22
ENDBRANCH  12  17
TORSDOF 8
ENDMDL
MODEL 8
REMARK VINA RESULT:      -2.8      1.836      3.965
REMARK  Name = 26744640
REMARK  10 active torsions:
REMARK  status: ('A' for Active; 'I' for Inactive)
REMARK    1  A    between atoms: O_2  and  C_10
REMARK    2  A    between atoms: O_3  and  C_11
REMARK    3  A    between atoms: N_6  and  C_13
REMARK    4  A    between atoms: N_7  and  C_14
REMARK    5  A    between atoms: N_8  and  C_23
REMARK    6  A    between atoms: C_9  and  C_14
REMARK    7  A    between atoms: C_12  and  C_17
REMARK    8  A    between atoms: C_17  and  C_22
REMARK    9  A    between atoms: C_23  and  C_24
REMARK   10  A    between atoms: C_23  and  C_25
REMARK                            x       y       z     vdW  Elec       q    Type
REMARK                         _______ _______ _______ _____ _____    ______ ____
ROOT
ATOM      1  O   UNL     1      -3.217   0.505  25.366  0.00  0.00    -0.366 OA
ATOM      9  C   UNL     1      -2.503  -0.734  25.518  0.00  0.00    +0.167 C 
ATOM     10  C   UNL     1      -2.417  -1.333  24.125  0.00  0.00    +0.176 C 
ATOM     11  C   UNL     1      -3.748  -0.914  23.532  0.00  0.00    +0.175 C 
ATOM     12  C   UNL     1      -3.921   0.490  24.103  0.00  0.00    +0.158 C 
ENDROOT
BRANCH  10   2
ATOM      2  O   UNL     1      -2.236  -2.732  24.159  0.00  0.00    -0.387 OA
ATOM     28  H   UNL     1      -2.855  -3.092  24.817  0.00  0.00    +0.210 HD
ENDBRANCH  10   2
BRANCH  11   3
ATOM      3  O   UNL     1      -4.797  -1.733  24.045  0.00  0.00    -0.387 OA
ATOM     29  H   UNL     1      -4.734  -2.598  23.603  0.00  0.00    +0.210 HD
ENDBRANCH  11   3
BRANCH   9  14
ATOM     14  C   UNL     1      -1.144  -0.467  26.143  0.00  0.00    +0.140 C 
BRANCH  14   7
ATOM      4  O   UNL     1       0.645  -2.003  24.496  0.00  0.00    -0.253 OA
ATOM      6  N   UNL     1       1.416  -0.029  23.546  0.00  0.00    -0.297 N 
ATOM      7  N   UNL     1      -0.220   0.042  25.173  0.00  0.00    -0.297 N 
ATOM     21  C   UNL     1       0.619  -0.776  24.410  0.00  0.00    +0.300 C 
ATOM     26  H   UNL     1       1.263   0.973  23.506  0.00  0.00    +0.151 HD
ATOM     27  H   UNL     1      -0.176   1.047  25.028  0.00  0.00    +0.150 HD
BRANCH   6  13
ATOM     13  C   UNL     1       2.375  -0.625  22.642  0.00  0.00    +0.074 C 
ATOM     15  C   UNL     1       3.038   0.440  21.762  0.00  0.00    +0.022 C 
ATOM     16  C   UNL     1       3.422  -1.441  23.411  0.00  0.00    +0.022 C 
ATOM     18  C   UNL     1       4.013   1.321  22.543  0.00  0.00    +0.002 C 
ATOM     19  C   UNL     1       4.396  -0.556  24.188  0.00  0.00    +0.002 C 
ATOM     20  C   UNL     1       5.051   0.488  23.288  0.00  0.00    +0.000 C 
ENDBRANCH   6  13
ENDBRANCH  14   7
ENDBRANCH   9  14
BRANCH  12  17
ATOM     17  C   UNL     1      -3.316   1.571  23.218  0.00  0.00    +0.130 C 
BRANCH  17  22
ATOM      5  O   UNL     1      -1.014   2.220  23.580  0.00  0.00    -0.276 OA
ATOM      8  N   UNL     1      -2.673   3.127  24.932  0.00  0.00    -0.313 N 
ATOM     22  C   UNL     1      -2.193   2.325  23.907  0.00  0.00    +0.216 C 
ATOM     30  H   UNL     1      -3.677   3.187  25.080  0.00  0.00    +0.149 HD
BRANCH   8  23
ATOM     23  C   UNL     1      -1.817   3.952  25.754  0.00  0.00    +0.067 C 
ATOM     24  C   UNL     1      -1.385   5.195  24.987  0.00  0.00    +0.027 C 
ATOM     25  C   UNL     1      -0.612   3.155  26.238  0.00  0.00    +0.027 C 
ENDBRANCH   8  23
ENDBRANCH  17  22
ENDBRANCH  12  17
TORSDOF 8
ENDMDL
MODEL 9
REMARK VINA RESULT:      -2.7      2.598      6.847
REMARK  Name = 26744640
REMARK  10 active torsions:
REMARK  status: ('A' for Active; 'I' for Inactive)
REMARK    1  A    between atoms: O_2  and  C_10
REMARK    2  A    between atoms: O_3  and  C_11
REMARK    3  A    between atoms: N_6  and  C_13
REMARK    4  A    between atoms: N_7  and  C_14
REMARK    5  A    between atoms: N_8  and  C_23
REMARK    6  A    between atoms: C_9  and  C_14
REMARK    7  A    between atoms: C_12  and  C_17
REMARK    8  A    between atoms: C_17  and  C_22
REMARK    9  A    between atoms: C_23  and  C_24
REMARK   10  A    between atoms: C_23  and  C_25
REMARK                            x       y       z     vdW  Elec       q    Type
REMARK                         _______ _______ _______ _____ _____    ______ ____
ROOT
ATOM      1  O   UNL     1      -1.294  -2.310  23.616  0.00  0.00    -0.366 OA
ATOM      9  C   UNL     1      -2.206  -2.346  24.727  0.00  0.00    +0.167 C 
ATOM     10  C   UNL     1      -1.830  -1.164  25.606  0.00  0.00    +0.176 C 
ATOM     11  C   UNL     1      -0.324  -1.130  25.441  0.00  0.00    +0.175 C 
ATOM     12  C   UNL     1      -0.159  -1.484  23.966  0.00  0.00    +0.158 C 
ENDROOT
BRANCH  10   2
ATOM      2  O   UNL     1      -2.241  -1.346  26.944  0.00  0.00    -0.387 OA
ATOM     28  H   UNL     1      -1.766  -2.119  27.294  0.00  0.00    +0.210 HD
ENDBRANCH  10   2
BRANCH  11   3
ATOM      3  O   UNL     1       0.282  -2.164  26.214  0.00  0.00    -0.387 OA
ATOM     29  H   UNL     1       1.015  -2.528  25.689  0.00  0.00    +0.210 HD
ENDBRANCH  11   3
BRANCH   9  14
ATOM     14  C   UNL     1      -3.635  -2.285  24.218  0.00  0.00    +0.140 C 
BRANCH  14   7
ATOM      4  O   UNL     1      -3.765   0.342  23.055  0.00  0.00    -0.253 OA
ATOM      6  N   UNL     1      -5.083   1.033  24.838  0.00  0.00    -0.297 N 
ATOM      7  N   UNL     1      -4.326  -1.146  24.747  0.00  0.00    -0.297 N 
ATOM     21  C   UNL     1      -4.340   0.102  24.116  0.00  0.00    +0.300 C 
ATOM     26  H   UNL     1      -5.574   0.710  25.665  0.00  0.00    +0.151 HD
ATOM     27  H   UNL     1      -4.837  -1.252  25.619  0.00  0.00    +0.150 HD
BRANCH   6  13
ATOM     13  C   UNL     1      -5.262   2.403  24.412  0.00  0.00    +0.074 C 
ATOM     15  C   UNL     1      -5.793   3.271  25.557  0.00  0.00    +0.022 C 
ATOM     16  C   UNL     1      -3.960   2.975  23.839  0.00  0.00    +0.022 C 
ATOM     18  C   UNL     1      -4.740   3.529  26.634  0.00  0.00    +0.002 C 
ATOM     19  C   UNL     1      -2.910   3.233  24.920  0.00  0.00    +0.002 C 
ATOM     20  C   UNL     1      -3.459   4.109  26.042  0.00  0.00    +0.000 C 
ENDBRANCH   6  13
ENDBRANCH  14   7
ENDBRANCH   9  14
BRANCH  12  17
ATOM     17  C   UNL     1      -0.173  -0.264  23.056  0.00  0.00    +0.130 C 
BRANCH  17  22
ATOM      5  O   UNL     1       1.822   1.074  23.346  0.00  0.00    -0.276 OA
ATOM      8  N   UNL     1      -0.124   1.686  24.460  0.00  0.00    -0.313 N 
ATOM     22  C   UNL     1       0.639   0.890  23.617  0.00  0.00    +0.216 C 
ATOM     30  H   UNL     1      -1.113   1.479  24.568  0.00  0.00    +0.149 HD
BRANCH   8  23
ATOM     23  C   UNL     1       0.401   2.852  25.132  0.00  0.00    +0.067 C 
ATOM     24  C   UNL     1       0.163   2.750  26.633  0.00  0.00    +0.027 C 
ATOM     25  C   UNL     1      -0.218   4.122  24.560  0.00  0.00    +0.027 C 
ENDBRANCH   8  23
ENDBRANCH  17  22
ENDBRANCH  12  17
TORSDOF 8
ENDMDL
MODEL 10
REMARK VINA RESULT:      -2.6     17.003     19.536
REMARK  Name = 26744640
REMARK  10 active torsions:
REMARK  status: ('A' for Active; 'I' for Inactive)
REMARK    1  A    between atoms: O_2  and  C_10
REMARK    2  A    between atoms: O_3  and  C_11
REMARK    3  A    between atoms: N_6  and  C_13
REMARK    4  A    between atoms: N_7  and  C_14
REMARK    5  A    between atoms: N_8  and  C_23
REMARK    6  A    between atoms: C_9  and  C_14
REMARK    7  A    between atoms: C_12  and  C_17
REMARK    8  A    between atoms: C_17  and  C_22
REMARK    9  A    between atoms: C_23  and  C_24
REMARK   10  A    between atoms: C_23  and  C_25
REMARK                            x       y       z     vdW  Elec       q    Type
REMARK                         _______ _______ _______ _____ _____    ______ ____
ROOT
ATOM      1  O   UNL     1      16.010  -6.367  26.519  0.00  0.00    -0.366 OA
ATOM      9  C   UNL     1      16.372  -7.239  27.604  0.00  0.00    +0.167 C 
ATOM     10  C   UNL     1      17.302  -8.280  27.003  0.00  0.00    +0.176 C 
ATOM     11  C   UNL     1      16.705  -8.459  25.622  0.00  0.00    +0.175 C 
ATOM     12  C   UNL     1      16.295  -7.033  25.267  0.00  0.00    +0.158 C 
ENDROOT
BRANCH  10   2
ATOM      2  O   UNL     1      17.325  -9.471  27.761  0.00  0.00    -0.387 OA
ATOM     28  H   UNL     1      16.456  -9.565  28.186  0.00  0.00    +0.210 HD
ENDBRANCH  10   2
BRANCH  11   3
ATOM      3  O   UNL     1      15.524  -9.254  25.692  0.00  0.00    -0.387 OA
ATOM     29  H   UNL     1      15.606  -9.957  25.024  0.00  0.00    +0.210 HD
ENDBRANCH  11   3
BRANCH   9  14
ATOM     14  C   UNL     1      17.013  -6.431  28.718  0.00  0.00    +0.140 C 
BRANCH  14   7
ATOM      4  O   UNL     1      15.980  -7.429  31.209  0.00  0.00    -0.253 OA
ATOM      6  N   UNL     1      14.608  -5.561  31.353  0.00  0.00    -0.297 N 
ATOM      7  N   UNL     1      16.021  -5.810  29.546  0.00  0.00    -0.297 N 
ATOM     21  C   UNL     1      15.572  -6.364  30.748  0.00  0.00    +0.300 C 
ATOM     26  H   UNL     1      14.395  -4.667  30.923  0.00  0.00    +0.151 HD
ATOM     27  H   UNL     1      15.630  -4.921  29.248  0.00  0.00    +0.150 HD
BRANCH   6  13
ATOM     13  C   UNL     1      13.974  -5.898  32.609  0.00  0.00    +0.074 C 
ATOM     15  C   UNL     1      12.656  -5.136  32.783  0.00  0.00    +0.022 C 
ATOM     16  C   UNL     1      13.761  -7.411  32.729  0.00  0.00    +0.022 C 
ATOM     18  C   UNL     1      11.555  -5.651  31.854  0.00  0.00    +0.002 C 
ATOM     19  C   UNL     1      12.659  -7.921  31.801  0.00  0.00    +0.002 C 
ATOM     20  C   UNL     1      11.354  -7.156  32.000  0.00  0.00    +0.000 C 
ENDBRANCH   6  13
ENDBRANCH  14   7
ENDBRANCH   9  14
BRANCH  12  17
ATOM     17  C   UNL     1      17.398  -6.253  24.565  0.00  0.00    +0.130 C 
BRANCH  17  22
ATOM      5  O   UNL     1      17.405  -4.289  25.977  0.00  0.00    -0.276 OA
ATOM      8  N   UNL     1      17.166  -4.032  23.679  0.00  0.00    -0.313 N 
ATOM     22  C   UNL     1      17.328  -4.764  24.847  0.00  0.00    +0.216 C 
ATOM     30  H   UNL     1      17.175  -4.522  22.789  0.00  0.00    +0.149 HD
BRANCH   8  23
ATOM     23  C   UNL     1      17.067  -2.591  23.659  0.00  0.00    +0.067 C 
ATOM     24  C   UNL     1      15.679  -2.150  24.105  0.00  0.00    +0.027 C 
ATOM     25  C   UNL     1      17.399  -2.052  22.272  0.00  0.00    +0.027 C 
ENDBRANCH   8  23
ENDBRANCH  17  22
ENDBRANCH  12  17
TORSDOF 8
ENDMDL
