MODEL 1
REMARK VINA RESULT:       4.1      0.000      0.000
REMARK  Name = 11884045
REMARK  9 active torsions:
REMARK  status: ('A' for Active; 'I' for Inactive)
REMARK    1  A    between atoms: S_1  and  N_9
REMARK    2  A    between atoms: S_1  and  C_18
REMARK    3  A    between atoms: O_4  and  C_15
REMARK    4  A    between atoms: O_4  and  C_19
REMARK    5  A    between atoms: O_8  and  C_31
REMARK    6  A    between atoms: O_8  and  C_32
REMARK    7  A    between atoms: N_9  and  C_14
REMARK    8  A    between atoms: N_10  and  C_24
REMARK    9  A    between atoms: C_20  and  C_26
REMARK                            x       y       z     vdW  Elec       q    Type
REMARK                         _______ _______ _______ _____ _____    ______ ____
ROOT
ATOM      2  O   UNL     1      -4.206   1.699  23.790  0.00  0.00    -0.369 OA
ATOM      3  O   UNL     1      -5.952   3.037  25.940  0.00  0.00    -0.368 OA
ATOM     12  C   UNL     1      -4.589   3.269  25.527  0.00  0.00    +0.171 C 
ATOM     13  C   UNL     1      -3.993   1.916  25.194  0.00  0.00    +0.191 C 
ATOM     14  C   UNL     1      -4.570   4.010  24.213  0.00  0.00    +0.133 C 
ATOM     15  C   UNL     1      -4.821   0.976  26.037  0.00  0.00    +0.235 C 
ATOM     16  C   UNL     1      -4.734   2.896  23.197  0.00  0.00    +0.183 C 
ATOM     17  C   UNL     1      -6.188   1.622  25.984  0.00  0.00    +0.207 C 
ENDROOT
BRANCH  14   9
ATOM      9  N   UNL     1      -3.257   4.671  24.024  0.00  0.00    -0.182 NA
ATOM     38  H   UNL     1      -2.812   4.595  23.102  0.00  0.00    +0.148 HD
BRANCH   9   1
ATOM      1  S   UNL     1      -2.368   5.187  25.376  0.00  0.00    +0.060 S 
ATOM      5  O   UNL     1      -3.214   5.150  26.553  0.00  0.00    -0.153 OA
ATOM      6  O   UNL     1      -1.651   6.398  25.028  0.00  0.00    -0.153 OA
BRANCH   1  18
ATOM     18  C   UNL     1      -1.163   3.902  25.530  0.00  0.00    +0.123 A 
ATOM     20  C   UNL     1      -0.128   3.748  24.608  0.00  0.00    +0.078 A 
ATOM     21  C   UNL     1      -1.269   3.028  26.613  0.00  0.00    +0.030 A 
ATOM     22  C   UNL     1       0.801   2.721  24.768  0.00  0.00    +0.021 A 
ATOM     23  C   UNL     1      -0.339   2.000  26.772  0.00  0.00    +0.002 A 
ATOM     25  C   UNL     1       0.696   1.847  25.850  0.00  0.00    +0.001 A 
BRANCH  20  26
ATOM     11  N   UNL     1       0.121   5.337  22.575  0.00  0.00    -0.191 NA
ATOM     26  C   UNL     1       0.009   4.625  23.485  0.00  0.00    +0.101 C 
ENDBRANCH  20  26
ENDBRANCH   1  18
ENDBRANCH   9   1
ENDBRANCH  14   9
BRANCH  15   4
ATOM      4  O   UNL     1      -4.841  -0.347  25.550  0.00  0.00    -0.442 OA
BRANCH   4  19
ATOM      7  O   UNL     1      -4.200  -1.322  23.583  0.00  0.00    -0.226 OA
ATOM     10  N   UNL     1      -2.685  -0.138  24.918  0.00  0.00    -0.251 N 
ATOM     19  C   UNL     1      -3.915  -0.667  24.578  0.00  0.00    +0.405 C 
ATOM     39  H   UNL     1      -2.645   0.382  25.791  0.00  0.00    +0.158 HD
BRANCH  10  24
ATOM     24  C   UNL     1      -1.470  -0.231  24.203  0.00  0.00    +0.037 A 
ATOM     27  C   UNL     1      -1.229   0.621  23.125  0.00  0.00    +0.027 A 
ATOM     28  C   UNL     1      -0.513  -1.176  24.573  0.00  0.00    +0.027 A 
ATOM     29  C   UNL     1      -0.030   0.529  22.418  0.00  0.00    +0.048 A 
ATOM     30  C   UNL     1       0.686  -1.269  23.866  0.00  0.00    +0.048 A 
ATOM     31  C   UNL     1       0.927  -0.417  22.788  0.00  0.00    +0.129 A 
BRANCH  31   8
ATOM      8  O   UNL     1       2.096  -0.506  22.097  0.00  0.00    -0.456 OA
BRANCH   8  32
ATOM     32  C   UNL     1       3.274  -0.304  22.797  0.00  0.00    +0.128 A 
ATOM     33  C   UNL     1       3.866  -1.362  23.486  0.00  0.00    +0.046 A 
ATOM     34  C   UNL     1       3.870   0.957  22.810  0.00  0.00    +0.046 A 
ATOM     35  C   UNL     1       5.053  -1.159  24.190  0.00  0.00    +0.004 A 
ATOM     36  C   UNL     1       5.056   1.160  23.514  0.00  0.00    +0.004 A 
ATOM     37  C   UNL     1       5.648   0.103  24.204  0.00  0.00    +0.000 A 
ENDBRANCH   8  32
ENDBRANCH  31   8
ENDBRANCH  10  24
ENDBRANCH   4  19
ENDBRANCH  15   4
TORSDOF 9
ENDMDL
MODEL 2
REMARK VINA RESULT:       4.7      1.749      4.378
REMARK  Name = 11884045
REMARK  9 active torsions:
REMARK  status: ('A' for Active; 'I' for Inactive)
REMARK    1  A    between atoms: S_1  and  N_9
REMARK    2  A    between atoms: S_1  and  C_18
REMARK    3  A    between atoms: O_4  and  C_15
REMARK    4  A    between atoms: O_4  and  C_19
REMARK    5  A    between atoms: O_8  and  C_31
REMARK    6  A    between atoms: O_8  and  C_32
REMARK    7  A    between atoms: N_9  and  C_14
REMARK    8  A    between atoms: N_10  and  C_24
REMARK    9  A    between atoms: C_20  and  C_26
REMARK                            x       y       z     vdW  Elec       q    Type
REMARK                         _______ _______ _______ _____ _____    ______ ____
ROOT
ATOM      2  O   UNL     1      -3.390   3.208  26.394  0.00  0.00    -0.369 OA
ATOM      3  O   UNL     1      -6.066   4.267  25.308  0.00  0.00    -0.368 OA
ATOM     12  C   UNL     1      -5.403   2.993  25.157  0.00  0.00    +0.171 C 
ATOM     13  C   UNL     1      -3.918   3.278  25.059  0.00  0.00    +0.191 C 
ATOM     14  C   UNL     1      -5.538   2.191  26.427  0.00  0.00    +0.133 C 
ATOM     15  C   UNL     1      -3.890   4.689  24.521  0.00  0.00    +0.235 C 
ATOM     16  C   UNL     1      -4.408   2.727  27.286  0.00  0.00    +0.183 C 
ATOM     17  C   UNL     1      -5.089   5.312  25.198  0.00  0.00    +0.207 C 
ENDROOT
BRANCH  14   9
ATOM      9  N   UNL     1      -5.313   0.754  26.145  0.00  0.00    -0.182 NA
ATOM     38  H   UNL     1      -5.274   0.110  26.943  0.00  0.00    +0.148 HD
BRANCH   9   1
ATOM      1  S   UNL     1      -4.761   0.269  24.613  0.00  0.00    +0.060 S 
ATOM      5  O   UNL     1      -4.458   1.443  23.816  0.00  0.00    -0.153 OA
ATOM      6  O   UNL     1      -5.650  -0.754  24.098  0.00  0.00    -0.153 OA
BRANCH   1  18
ATOM     18  C   UNL     1      -3.235  -0.529  25.012  0.00  0.00    +0.123 A 
ATOM     20  C   UNL     1      -2.953  -1.829  24.596  0.00  0.00    +0.078 A 
ATOM     21  C   UNL     1      -2.300   0.181  25.767  0.00  0.00    +0.030 A 
ATOM     22  C   UNL     1      -1.736  -2.421  24.933  0.00  0.00    +0.021 A 
ATOM     23  C   UNL     1      -1.082  -0.412  26.104  0.00  0.00    +0.002 A 
ATOM     25  C   UNL     1      -0.801  -1.712  25.687  0.00  0.00    +0.001 A 
BRANCH  20  26
ATOM     11  N   UNL     1      -4.649  -3.200  23.194  0.00  0.00    -0.191 NA
ATOM     26  C   UNL     1      -3.890  -2.586  23.822  0.00  0.00    +0.101 C 
ENDBRANCH  20  26
ENDBRANCH   1  18
ENDBRANCH   9   1
ENDBRANCH  14   9
BRANCH  15   4
ATOM      4  O   UNL     1      -2.697   5.380  24.815  0.00  0.00    -0.442 OA
BRANCH   4  19
ATOM      7  O   UNL     1      -0.415   5.209  24.793  0.00  0.00    -0.226 OA
ATOM     10  N   UNL     1      -1.788   3.437  24.116  0.00  0.00    -0.251 N 
ATOM     19  C   UNL     1      -1.514   4.706  24.587  0.00  0.00    +0.405 C 
ATOM     39  H   UNL     1      -2.771   3.199  24.011  0.00  0.00    +0.158 HD
BRANCH  10  24
ATOM     24  C   UNL     1      -0.869   2.424  23.758  0.00  0.00    +0.037 A 
ATOM     27  C   UNL     1      -1.240   1.438  22.844  0.00  0.00    +0.027 A 
ATOM     28  C   UNL     1       0.408   2.410  24.320  0.00  0.00    +0.027 A 
ATOM     29  C   UNL     1      -0.335   0.437  22.492  0.00  0.00    +0.048 A 
ATOM     30  C   UNL     1       1.313   1.409  23.968  0.00  0.00    +0.048 A 
ATOM     31  C   UNL     1       0.942   0.423  23.054  0.00  0.00    +0.129 A 
BRANCH  31   8
ATOM      8  O   UNL     1       1.825  -0.553  22.710  0.00  0.00    -0.456 OA
BRANCH   8  32
ATOM     32  C   UNL     1       3.147  -0.389  23.090  0.00  0.00    +0.128 A 
ATOM     33  C   UNL     1       3.817   0.796  22.787  0.00  0.00    +0.046 A 
ATOM     34  C   UNL     1       3.808  -1.408  23.777  0.00  0.00    +0.046 A 
ATOM     35  C   UNL     1       5.149   0.962  23.170  0.00  0.00    +0.004 A 
ATOM     36  C   UNL     1       5.138  -1.242  24.160  0.00  0.00    +0.004 A 
ATOM     37  C   UNL     1       5.809  -0.058  23.856  0.00  0.00    +0.000 A 
ENDBRANCH   8  32
ENDBRANCH  31   8
ENDBRANCH  10  24
ENDBRANCH   4  19
ENDBRANCH  15   4
TORSDOF 9
ENDMDL
MODEL 3
REMARK VINA RESULT:       5.7      1.103      1.911
REMARK  Name = 11884045
REMARK  9 active torsions:
REMARK  status: ('A' for Active; 'I' for Inactive)
REMARK    1  A    between atoms: S_1  and  N_9
REMARK    2  A    between atoms: S_1  and  C_18
REMARK    3  A    between atoms: O_4  and  C_15
REMARK    4  A    between atoms: O_4  and  C_19
REMARK    5  A    between atoms: O_8  and  C_31
REMARK    6  A    between atoms: O_8  and  C_32
REMARK    7  A    between atoms: N_9  and  C_14
REMARK    8  A    between atoms: N_10  and  C_24
REMARK    9  A    between atoms: C_20  and  C_26
REMARK                            x       y       z     vdW  Elec       q    Type
REMARK                         _______ _______ _______ _____ _____    ______ ____
ROOT
ATOM      2  O   UNL     1      -3.599   1.752  24.711  0.00  0.00    -0.369 OA
ATOM      3  O   UNL     1      -6.625   2.305  24.701  0.00  0.00    -0.368 OA
ATOM     12  C   UNL     1      -5.537   2.929  25.414  0.00  0.00    +0.171 C 
ATOM     13  C   UNL     1      -4.561   1.828  25.777  0.00  0.00    +0.191 C 
ATOM     14  C   UNL     1      -4.753   3.817  24.480  0.00  0.00    +0.133 C 
ATOM     15  C   UNL     1      -5.446   0.605  25.819  0.00  0.00    +0.235 C 
ATOM     16  C   UNL     1      -3.809   2.843  23.801  0.00  0.00    +0.183 C 
ATOM     17  C   UNL     1      -6.427   0.884  24.703  0.00  0.00    +0.207 C 
ENDROOT
BRANCH  14   9
ATOM      9  N   UNL     1      -3.975   4.809  25.259  0.00  0.00    -0.182 NA
ATOM     38  H   UNL     1      -4.443   5.272  26.046  0.00  0.00    +0.148 HD
BRANCH   9   1
ATOM      1  S   UNL     1      -2.521   5.424  24.632  0.00  0.00    +0.060 S 
ATOM      5  O   UNL     1      -2.163   6.637  25.342  0.00  0.00    -0.153 OA
ATOM      6  O   UNL     1      -2.598   5.421  23.184  0.00  0.00    -0.153 OA
BRANCH   1  18
ATOM     18  C   UNL     1      -1.366   4.164  25.088  0.00  0.00    +0.123 A 
ATOM     20  C   UNL     1      -1.440   3.507  26.316  0.00  0.00    +0.078 A 
ATOM     21  C   UNL     1      -0.361   3.834  24.179  0.00  0.00    +0.030 A 
ATOM     22  C   UNL     1      -0.509   2.519  26.635  0.00  0.00    +0.021 A 
ATOM     23  C   UNL     1       0.571   2.845  24.499  0.00  0.00    +0.002 A 
ATOM     25  C   UNL     1       0.496   2.189  25.727  0.00  0.00    +0.001 A 
BRANCH  20  26
ATOM     11  N   UNL     1      -3.284   4.078  28.047  0.00  0.00    -0.191 NA
ATOM     26  C   UNL     1      -2.458   3.822  27.272  0.00  0.00    +0.101 C 
ENDBRANCH  20  26
ENDBRANCH   1  18
ENDBRANCH   9   1
ENDBRANCH  14   9
BRANCH  15   4
ATOM      4  O   UNL     1      -4.747  -0.603  25.621  0.00  0.00    -0.442 OA
BRANCH   4  19
ATOM      7  O   UNL     1      -4.219  -0.859  23.410  0.00  0.00    -0.226 OA
ATOM     10  N   UNL     1      -2.580  -0.410  25.021  0.00  0.00    -0.251 N 
ATOM     19  C   UNL     1      -3.862  -0.644  24.562  0.00  0.00    +0.405 C 
ATOM     39  H   UNL     1      -2.483  -0.251  26.021  0.00  0.00    +0.158 HD
BRANCH  10  24
ATOM     24  C   UNL     1      -1.383  -0.366  24.273  0.00  0.00    +0.037 A 
ATOM     27  C   UNL     1      -0.279  -1.117  24.678  0.00  0.00    +0.027 A 
ATOM     28  C   UNL     1      -1.303   0.430  23.129  0.00  0.00    +0.027 A 
ATOM     29  C   UNL     1       0.904  -1.072  23.940  0.00  0.00    +0.048 A 
ATOM     30  C   UNL     1      -0.120   0.475  22.392  0.00  0.00    +0.048 A 
ATOM     31  C   UNL     1       0.983  -0.276  22.797  0.00  0.00    +0.129 A 
BRANCH  31   8
ATOM      8  O   UNL     1       2.137  -0.233  22.078  0.00  0.00    -0.456 OA
BRANCH   8  32
ATOM     32  C   UNL     1       3.333  -0.216  22.779  0.00  0.00    +0.128 A 
ATOM     33  C   UNL     1       3.786  -1.374  23.411  0.00  0.00    +0.046 A 
ATOM     34  C   UNL     1       4.083   0.957  22.851  0.00  0.00    +0.046 A 
ATOM     35  C   UNL     1       4.989  -1.359  24.116  0.00  0.00    +0.004 A 
ATOM     36  C   UNL     1       5.286   0.972  23.556  0.00  0.00    +0.004 A 
ATOM     37  C   UNL     1       5.739  -0.184  24.189  0.00  0.00    +0.000 A 
ENDBRANCH   8  32
ENDBRANCH  31   8
ENDBRANCH  10  24
ENDBRANCH   4  19
ENDBRANCH  15   4
TORSDOF 9
ENDMDL
MODEL 4
REMARK VINA RESULT:       6.3      1.978      4.611
REMARK  Name = 11884045
REMARK  9 active torsions:
REMARK  status: ('A' for Active; 'I' for Inactive)
REMARK    1  A    between atoms: S_1  and  N_9
REMARK    2  A    between atoms: S_1  and  C_18
REMARK    3  A    between atoms: O_4  and  C_15
REMARK    4  A    between atoms: O_4  and  C_19
REMARK    5  A    between atoms: O_8  and  C_31
REMARK    6  A    between atoms: O_8  and  C_32
REMARK    7  A    between atoms: N_9  and  C_14
REMARK    8  A    between atoms: N_10  and  C_24
REMARK    9  A    between atoms: C_20  and  C_26
REMARK                            x       y       z     vdW  Elec       q    Type
REMARK                         _______ _______ _______ _____ _____    ______ ____
ROOT
ATOM      2  O   UNL     1      -3.327   2.701  25.963  0.00  0.00    -0.369 OA
ATOM      3  O   UNL     1      -6.082   3.735  25.064  0.00  0.00    -0.368 OA
ATOM     12  C   UNL     1      -5.345   2.542  24.724  0.00  0.00    +0.171 C 
ATOM     13  C   UNL     1      -3.882   2.932  24.657  0.00  0.00    +0.191 C 
ATOM     14  C   UNL     1      -5.408   1.556  25.864  0.00  0.00    +0.133 C 
ATOM     15  C   UNL     1      -3.950   4.405  24.330  0.00  0.00    +0.235 C 
ATOM     16  C   UNL     1      -4.299   2.033  26.783  0.00  0.00    +0.183 C 
ATOM     17  C   UNL     1      -5.174   4.845  25.100  0.00  0.00    +0.207 C 
ENDROOT
BRANCH  14   9
ATOM      9  N   UNL     1      -5.100   0.193  25.372  0.00  0.00    -0.182 NA
ATOM     38  H   UNL     1      -5.875  -0.368  25.001  0.00  0.00    +0.148 HD
BRANCH   9   1
ATOM      1  S   UNL     1      -3.617  -0.535  25.770  0.00  0.00    +0.060 S 
ATOM      5  O   UNL     1      -3.693  -1.083  27.111  0.00  0.00    -0.153 OA
ATOM      6  O   UNL     1      -2.542   0.369  25.410  0.00  0.00    -0.153 OA
BRANCH   1  18
ATOM     18  C   UNL     1      -3.558  -1.886  24.631  0.00  0.00    +0.123 A 
ATOM     20  C   UNL     1      -2.375  -2.576  24.368  0.00  0.00    +0.078 A 
ATOM     21  C   UNL     1      -4.739  -2.255  23.986  0.00  0.00    +0.030 A 
ATOM     22  C   UNL     1      -2.372  -3.636  23.462  0.00  0.00    +0.021 A 
ATOM     23  C   UNL     1      -4.736  -3.316  23.080  0.00  0.00    +0.002 A 
ATOM     25  C   UNL     1      -3.553  -4.006  22.818  0.00  0.00    +0.001 A 
BRANCH  20  26
ATOM     11  N   UNL     1      -0.147  -1.934  25.529  0.00  0.00    -0.191 NA
ATOM     26  C   UNL     1      -1.145  -2.222  25.009  0.00  0.00    +0.101 C 
ENDBRANCH  20  26
ENDBRANCH   1  18
ENDBRANCH   9   1
ENDBRANCH  14   9
BRANCH  15   4
ATOM      4  O   UNL     1      -2.797   5.120  24.713  0.00  0.00    -0.442 OA
BRANCH   4  19
ATOM      7  O   UNL     1      -0.516   5.000  24.851  0.00  0.00    -0.226 OA
ATOM     10  N   UNL     1      -1.792   3.224  24.015  0.00  0.00    -0.251 N 
ATOM     19  C   UNL     1      -1.584   4.481  24.549  0.00  0.00    +0.405 C 
ATOM     39  H   UNL     1      -2.759   2.968  23.831  0.00  0.00    +0.158 HD
BRANCH  10  24
ATOM     24  C   UNL     1      -0.825   2.246  23.691  0.00  0.00    +0.037 A 
ATOM     27  C   UNL     1       0.448   2.308  24.258  0.00  0.00    +0.027 A 
ATOM     28  C   UNL     1      -1.143   1.219  22.801  0.00  0.00    +0.027 A 
ATOM     29  C   UNL     1       1.403   1.344  23.937  0.00  0.00    +0.048 A 
ATOM     30  C   UNL     1      -0.188   0.254  22.480  0.00  0.00    +0.048 A 
ATOM     31  C   UNL     1       1.085   0.317  23.047  0.00  0.00    +0.129 A 
BRANCH  31   8
ATOM      8  O   UNL     1       2.017  -0.623  22.734  0.00  0.00    -0.456 OA
BRANCH   8  32
ATOM     32  C   UNL     1       3.323  -0.394  23.135  0.00  0.00    +0.128 A 
ATOM     33  C   UNL     1       4.027  -1.385  23.819  0.00  0.00    +0.046 A 
ATOM     34  C   UNL     1       3.935   0.828  22.853  0.00  0.00    +0.046 A 
ATOM     35  C   UNL     1       5.342  -1.155  24.222  0.00  0.00    +0.004 A 
ATOM     36  C   UNL     1       5.250   1.058  23.256  0.00  0.00    +0.004 A 
ATOM     37  C   UNL     1       5.953   0.068  23.941  0.00  0.00    +0.000 A 
ENDBRANCH   8  32
ENDBRANCH  31   8
ENDBRANCH  10  24
ENDBRANCH   4  19
ENDBRANCH  15   4
TORSDOF 9
ENDMDL
MODEL 5
REMARK VINA RESULT:       7.0      1.429      2.121
REMARK  Name = 11884045
REMARK  9 active torsions:
REMARK  status: ('A' for Active; 'I' for Inactive)
REMARK    1  A    between atoms: S_1  and  N_9
REMARK    2  A    between atoms: S_1  and  C_18
REMARK    3  A    between atoms: O_4  and  C_15
REMARK    4  A    between atoms: O_4  and  C_19
REMARK    5  A    between atoms: O_8  and  C_31
REMARK    6  A    between atoms: O_8  and  C_32
REMARK    7  A    between atoms: N_9  and  C_14
REMARK    8  A    between atoms: N_10  and  C_24
REMARK    9  A    between atoms: C_20  and  C_26
REMARK                            x       y       z     vdW  Elec       q    Type
REMARK                         _______ _______ _______ _____ _____    ______ ____
ROOT
ATOM      2  O   UNL     1      -5.224   2.135  24.022  0.00  0.00    -0.369 OA
ATOM      3  O   UNL     1      -6.104   2.620  26.930  0.00  0.00    -0.368 OA
ATOM     12  C   UNL     1      -4.927   3.027  26.201  0.00  0.00    +0.171 C 
ATOM     13  C   UNL     1      -4.565   1.884  25.274  0.00  0.00    +0.191 C 
ATOM     14  C   UNL     1      -5.269   4.160  25.266  0.00  0.00    +0.133 C 
ATOM     15  C   UNL     1      -5.151   0.687  25.985  0.00  0.00    +0.235 C 
ATOM     16  C   UNL     1      -5.825   3.440  24.052  0.00  0.00    +0.183 C 
ATOM     17  C   UNL     1      -6.415   1.262  26.585  0.00  0.00    +0.207 C 
ENDROOT
BRANCH  14   9
ATOM      9  N   UNL     1      -4.039   4.897  24.891  0.00  0.00    -0.182 NA
ATOM     38  H   UNL     1      -4.078   5.505  24.066  0.00  0.00    +0.148 HD
BRANCH   9   1
ATOM      1  S   UNL     1      -2.546   4.446  25.565  0.00  0.00    +0.060 S 
ATOM      5  O   UNL     1      -2.772   3.745  26.814  0.00  0.00    -0.153 OA
ATOM      6  O   UNL     1      -1.650   5.585  25.518  0.00  0.00    -0.153 OA
BRANCH   1  18
ATOM     18  C   UNL     1      -1.951   3.275  24.382  0.00  0.00    +0.123 A 
ATOM     20  C   UNL     1      -0.795   2.526  24.603  0.00  0.00    +0.078 A 
ATOM     21  C   UNL     1      -2.674   3.110  23.199  0.00  0.00    +0.030 A 
ATOM     22  C   UNL     1      -0.362   1.613  23.643  0.00  0.00    +0.021 A 
ATOM     23  C   UNL     1      -2.239   2.196  22.239  0.00  0.00    +0.002 A 
ATOM     25  C   UNL     1      -1.084   1.447  22.461  0.00  0.00    +0.001 A 
BRANCH  20  26
ATOM     11  N   UNL     1       0.592   2.790  26.778  0.00  0.00    -0.191 NA
ATOM     26  C   UNL     1      -0.029   2.672  25.803  0.00  0.00    +0.101 C 
ENDBRANCH  20  26
ENDBRANCH   1  18
ENDBRANCH   9   1
ENDBRANCH  14   9
BRANCH  15   4
ATOM      4  O   UNL     1      -5.418  -0.400  25.128  0.00  0.00    -0.442 OA
BRANCH   4  19
ATOM      7  O   UNL     1      -4.429  -1.875  23.687  0.00  0.00    -0.226 OA
ATOM     10  N   UNL     1      -3.172  -0.606  25.200  0.00  0.00    -0.251 N 
ATOM     19  C   UNL     1      -4.327  -1.046  24.583  0.00  0.00    +0.405 C 
ATOM     39  H   UNL     1      -3.291   0.094  25.929  0.00  0.00    +0.158 HD
BRANCH  10  24
ATOM     24  C   UNL     1      -1.842  -1.009  24.946  0.00  0.00    +0.037 A 
ATOM     27  C   UNL     1      -1.466  -1.401  23.662  0.00  0.00    +0.027 A 
ATOM     28  C   UNL     1      -0.906  -1.016  25.981  0.00  0.00    +0.027 A 
ATOM     29  C   UNL     1      -0.153  -1.800  23.411  0.00  0.00    +0.048 A 
ATOM     30  C   UNL     1       0.407  -1.415  25.730  0.00  0.00    +0.048 A 
ATOM     31  C   UNL     1       0.784  -1.807  24.445  0.00  0.00    +0.129 A 
BRANCH  31   8
ATOM      8  O   UNL     1       2.064  -2.197  24.200  0.00  0.00    -0.456 OA
BRANCH   8  32
ATOM     32  C   UNL     1       2.955  -1.235  23.752  0.00  0.00    +0.128 A 
ATOM     33  C   UNL     1       2.486  -0.119  23.059  0.00  0.00    +0.046 A 
ATOM     34  C   UNL     1       4.321  -1.383  23.994  0.00  0.00    +0.046 A 
ATOM     35  C   UNL     1       3.383   0.850  22.608  0.00  0.00    +0.004 A 
ATOM     36  C   UNL     1       5.217  -0.414  23.543  0.00  0.00    +0.004 A 
ATOM     37  C   UNL     1       4.749   0.701  22.850  0.00  0.00    +0.000 A 
ENDBRANCH   8  32
ENDBRANCH  31   8
ENDBRANCH  10  24
ENDBRANCH   4  19
ENDBRANCH  15   4
TORSDOF 9
ENDMDL
MODEL 6
REMARK VINA RESULT:       7.7      1.880      2.627
REMARK  Name = 11884045
REMARK  9 active torsions:
REMARK  status: ('A' for Active; 'I' for Inactive)
REMARK    1  A    between atoms: S_1  and  N_9
REMARK    2  A    between atoms: S_1  and  C_18
REMARK    3  A    between atoms: O_4  and  C_15
REMARK    4  A    between atoms: O_4  and  C_19
REMARK    5  A    between atoms: O_8  and  C_31
REMARK    6  A    between atoms: O_8  and  C_32
REMARK    7  A    between atoms: N_9  and  C_14
REMARK    8  A    between atoms: N_10  and  C_24
REMARK    9  A    between atoms: C_20  and  C_26
REMARK                            x       y       z     vdW  Elec       q    Type
REMARK                         _______ _______ _______ _____ _____    ______ ____
ROOT
ATOM      2  O   UNL     1      -2.795  -0.242  24.244  0.00  0.00    -0.369 OA
ATOM      3  O   UNL     1      -5.748  -1.064  23.984  0.00  0.00    -0.368 OA
ATOM     12  C   UNL     1      -5.049  -0.292  24.983  0.00  0.00    +0.171 C 
ATOM     13  C   UNL     1      -3.681  -0.922  25.149  0.00  0.00    +0.191 C 
ATOM     14  C   UNL     1      -4.753   1.089  24.452  0.00  0.00    +0.133 C 
ATOM     15  C   UNL     1      -3.924  -2.351  24.726  0.00  0.00    +0.235 C 
ATOM     16  C   UNL     1      -3.477   0.878  23.659  0.00  0.00    +0.183 C 
ATOM     17  C   UNL     1      -4.934  -2.185  23.613  0.00  0.00    +0.207 C 
ENDROOT
BRANCH  14   9
ATOM      9  N   UNL     1      -4.496   2.020  25.576  0.00  0.00    -0.182 NA
ATOM     38  H   UNL     1      -4.957   1.825  26.472  0.00  0.00    +0.148 HD
BRANCH   9   1
ATOM      1  S   UNL     1      -3.793   3.536  25.273  0.00  0.00    +0.060 S 
ATOM      5  O   UNL     1      -4.285   4.497  26.242  0.00  0.00    -0.153 OA
ATOM      6  O   UNL     1      -3.883   3.818  23.854  0.00  0.00    -0.153 OA
BRANCH   1  18
ATOM     18  C   UNL     1      -2.090   3.225  25.630  0.00  0.00    +0.123 A 
ATOM     20  C   UNL     1      -1.105   4.190  25.421  0.00  0.00    +0.078 A 
ATOM     21  C   UNL     1      -1.742   1.971  26.133  0.00  0.00    +0.030 A 
ATOM     22  C   UNL     1       0.227   3.903  25.716  0.00  0.00    +0.021 A 
ATOM     23  C   UNL     1      -0.408   1.684  26.428  0.00  0.00    +0.002 A 
ATOM     25  C   UNL     1       0.575   2.650  26.220  0.00  0.00    +0.001 A 
BRANCH  20  26
ATOM     11  N   UNL     1      -1.688   6.537  24.486  0.00  0.00    -0.191 NA
ATOM     26  C   UNL     1      -1.427   5.486  24.905  0.00  0.00    +0.101 C 
ENDBRANCH  20  26
ENDBRANCH   1  18
ENDBRANCH   9   1
ENDBRANCH  14   9
BRANCH  15   4
ATOM      4  O   UNL     1      -2.759  -3.015  24.290  0.00  0.00    -0.442 OA
BRANCH   4  19
ATOM      7  O   UNL     1      -0.991  -2.323  25.567  0.00  0.00    -0.226 OA
ATOM     10  N   UNL     1      -1.148  -1.790  23.293  0.00  0.00    -0.251 N 
ATOM     19  C   UNL     1      -1.560  -2.359  24.482  0.00  0.00    +0.405 C 
ATOM     39  H   UNL     1      -1.759  -1.931  22.492  0.00  0.00    +0.158 HD
BRANCH  10  24
ATOM     24  C   UNL     1       0.020  -1.034  23.049  0.00  0.00    +0.037 A 
ATOM     27  C   UNL     1       0.716  -1.193  21.850  0.00  0.00    +0.027 A 
ATOM     28  C   UNL     1       0.478  -0.129  24.007  0.00  0.00    +0.027 A 
ATOM     29  C   UNL     1       1.870  -0.447  21.609  0.00  0.00    +0.048 A 
ATOM     30  C   UNL     1       1.632   0.617  23.766  0.00  0.00    +0.048 A 
ATOM     31  C   UNL     1       2.328   0.458  22.568  0.00  0.00    +0.129 A 
BRANCH  31   8
ATOM      8  O   UNL     1       3.454   1.185  22.333  0.00  0.00    -0.456 OA
BRANCH   8  32
ATOM     32  C   UNL     1       4.650   0.703  22.840  0.00  0.00    +0.128 A 
ATOM     33  C   UNL     1       5.076   1.094  24.109  0.00  0.00    +0.046 A 
ATOM     34  C   UNL     1       5.426  -0.175  22.083  0.00  0.00    +0.046 A 
ATOM     35  C   UNL     1       6.280   0.608  24.621  0.00  0.00    +0.004 A 
ATOM     36  C   UNL     1       6.628  -0.660  22.595  0.00  0.00    +0.004 A 
ATOM     37  C   UNL     1       7.056  -0.269  23.863  0.00  0.00    +0.000 A 
ENDBRANCH   8  32
ENDBRANCH  31   8
ENDBRANCH  10  24
ENDBRANCH   4  19
ENDBRANCH  15   4
TORSDOF 9
ENDMDL
