MODEL 1
REMARK VINA RESULT:      -4.1      0.000      0.000
REMARK  Name = 7675130
REMARK  7 active torsions:
REMARK  status: ('A' for Active; 'I' for Inactive)
REMARK    1  A    between atoms: N_7  and  C_18
REMARK    2  A    between atoms: C_15  and  C_16
REMARK    3  A    between atoms: C_15  and  C_19
REMARK    4  A    between atoms: C_15  and  C_20
REMARK    5  A    between atoms: C_15  and  C_21
REMARK    6  A    between atoms: C_16  and  C_17
REMARK    7  A    between atoms: C_18  and  C_22
REMARK                            x       y       z     vdW  Elec       q    Type
REMARK                         _______ _______ _______ _____ _____    ______ ____
ROOT
ATOM      1  O   UNL     1      -6.046  -9.633  16.062  0.00  0.00    -0.273 OA
ATOM      2  O   UNL     1     -10.612  -9.728  15.453  0.00  0.00    -0.252 OA
ATOM      3  O   UNL     1      -7.161 -10.770   9.570  0.00  0.00    -0.276 OA
ATOM      5  N   UNL     1      -8.812 -10.415  14.123  0.00  0.00    -0.271 N 
ATOM      6  N   UNL     1      -7.347 -10.081  11.781  0.00  0.00    -0.298 N 
ATOM      7  N   UNL     1      -8.381  -9.578  16.139  0.00  0.00    -0.215 N 
ATOM      9  C   UNL     1      -7.368 -10.462  14.206  0.00  0.00    +0.181 C 
ATOM     10  C   UNL     1      -6.744  -9.674  13.064  0.00  0.00    +0.139 C 
ATOM     11  C   UNL     1      -9.456 -10.772  12.873  0.00  0.00    +0.129 C 
ATOM     12  C   UNL     1      -8.816  -9.988  11.728  0.00  0.00    +0.127 C 
ATOM     13  C   UNL     1      -7.149  -9.842  15.576  0.00  0.00    +0.246 C 
ATOM     14  C   UNL     1      -9.414  -9.894  15.269  0.00  0.00    +0.312 C 
ATOM     17  C   UNL     1      -6.638 -10.479  10.649  0.00  0.00    +0.216 C 
ENDROOT
BRANCH  17  16
ATOM     16  C   UNL     1      -5.137 -10.551  10.785  0.00  0.00    +0.102 C 
BRANCH  16  15
ATOM     15  C   UNL     1      -4.409  -9.482   9.949  0.00  0.00    -0.029 C 
ATOM     19  C   UNL     1      -5.082  -8.107  10.099  0.00  0.00    +0.011 C 
ATOM     20  C   UNL     1      -4.368  -9.872   8.463  0.00  0.00    +0.011 C 
ATOM     21  C   UNL     1      -2.963  -9.380  10.471  0.00  0.00    +0.011 C 
ENDBRANCH  16  15
ENDBRANCH  17  16
BRANCH   7  18
ATOM     18  C   UNL     1      -8.569  -8.989  17.448  0.00  0.00    +0.213 C 
BRANCH  18  22
ATOM      4  O   UNL     1      -9.508 -10.718  18.861  0.00  0.00    -0.274 OA
ATOM      8  N   UNL     1      -7.274 -10.211  19.060  0.00  0.00    -0.328 N 
ATOM     22  C   UNL     1      -8.528 -10.069  18.504  0.00  0.00    +0.228 C 
ATOM     23  H   UNL     1      -7.103 -10.892  19.793  0.00  0.00    +0.145 HD
ATOM     24  H   UNL     1      -6.480  -9.651  18.767  0.00  0.00    +0.145 HD
ENDBRANCH  18  22
ENDBRANCH   7  18
TORSDOF 4
ENDMDL
MODEL 2
REMARK VINA RESULT:      -2.2     26.752     28.578
REMARK  Name = 7675130
REMARK  7 active torsions:
REMARK  status: ('A' for Active; 'I' for Inactive)
REMARK    1  A    between atoms: N_7  and  C_18
REMARK    2  A    between atoms: C_15  and  C_16
REMARK    3  A    between atoms: C_15  and  C_19
REMARK    4  A    between atoms: C_15  and  C_20
REMARK    5  A    between atoms: C_15  and  C_21
REMARK    6  A    between atoms: C_16  and  C_17
REMARK    7  A    between atoms: C_18  and  C_22
REMARK                            x       y       z     vdW  Elec       q    Type
REMARK                         _______ _______ _______ _____ _____    ______ ____
ROOT
ATOM      1  O   UNL     1      16.839  -6.995  25.371  0.00  0.00    -0.273 OA
ATOM      2  O   UNL     1      17.401  -2.579  26.560  0.00  0.00    -0.252 OA
ATOM      3  O   UNL     1      15.763  -6.559  31.953  0.00  0.00    -0.276 OA
ATOM      5  N   UNL     1      17.293  -4.562  27.799  0.00  0.00    -0.271 N 
ATOM      6  N   UNL     1      15.936  -6.096  29.684  0.00  0.00    -0.298 N 
ATOM      7  N   UNL     1      17.168  -4.690  25.582  0.00  0.00    -0.215 N 
ATOM      9  C   UNL     1      17.148  -5.980  27.551  0.00  0.00    +0.181 C 
ATOM     10  C   UNL     1      15.923  -6.523  28.272  0.00  0.00    +0.139 C 
ATOM     11  C   UNL     1      17.279  -4.083  29.170  0.00  0.00    +0.129 C 
ATOM     12  C   UNL     1      16.054  -4.643  29.891  0.00  0.00    +0.127 C 
ATOM     13  C   UNL     1      17.026  -5.986  26.037  0.00  0.00    +0.246 C 
ATOM     14  C   UNL     1      17.308  -3.797  26.633  0.00  0.00    +0.312 C 
ATOM     17  C   UNL     1      15.796  -6.944  30.781  0.00  0.00    +0.216 C 
ENDROOT
BRANCH  17  16
ATOM     16  C   UNL     1      15.685  -8.418  30.485  0.00  0.00    +0.102 C 
BRANCH  16  15
ATOM     15  C   UNL     1      14.266  -8.969  30.721  0.00  0.00    -0.029 C 
ATOM     19  C   UNL     1      13.201  -7.893  30.458  0.00  0.00    +0.011 C 
ATOM     20  C   UNL     1      14.110  -9.504  32.155  0.00  0.00    +0.011 C 
ATOM     21  C   UNL     1      14.043 -10.133  29.737  0.00  0.00    +0.011 C 
ENDBRANCH  16  15
ENDBRANCH  17  16
BRANCH   7  18
ATOM     18  C   UNL     1      17.115  -4.306  24.187  0.00  0.00    +0.213 C 
BRANCH  18  22
ATOM      4  O   UNL     1      15.154  -2.883  24.190  0.00  0.00    -0.274 OA
ATOM      8  N   UNL     1      17.198  -1.958  23.686  0.00  0.00    -0.328 N 
ATOM     22  C   UNL     1      16.369  -2.999  24.046  0.00  0.00    +0.228 C 
ATOM     23  H   UNL     1      16.829  -1.024  23.543  0.00  0.00    +0.145 HD
ATOM     24  H   UNL     1      18.197  -2.078  23.551  0.00  0.00    +0.145 HD
ENDBRANCH  18  22
ENDBRANCH   7  18
TORSDOF 4
ENDMDL
MODEL 3
REMARK VINA RESULT:      -2.1     14.346     17.475
REMARK  Name = 7675130
REMARK  7 active torsions:
REMARK  status: ('A' for Active; 'I' for Inactive)
REMARK    1  A    between atoms: N_7  and  C_18
REMARK    2  A    between atoms: C_15  and  C_16
REMARK    3  A    between atoms: C_15  and  C_19
REMARK    4  A    between atoms: C_15  and  C_20
REMARK    5  A    between atoms: C_15  and  C_21
REMARK    6  A    between atoms: C_16  and  C_17
REMARK    7  A    between atoms: C_18  and  C_22
REMARK                            x       y       z     vdW  Elec       q    Type
REMARK                         _______ _______ _______ _____ _____    ______ ____
ROOT
ATOM      1  O   UNL     1      -3.494  -0.954  25.811  0.00  0.00    -0.273 OA
ATOM      2  O   UNL     1       0.547  -0.936  23.597  0.00  0.00    -0.252 OA
ATOM      3  O   UNL     1      -1.575   5.423  25.233  0.00  0.00    -0.276 OA
ATOM      5  N   UNL     1      -0.593   0.682  24.847  0.00  0.00    -0.271 N 
ATOM      6  N   UNL     1      -1.887   3.146  24.897  0.00  0.00    -0.298 N 
ATOM      7  N   UNL     1      -1.502  -1.338  24.650  0.00  0.00    -0.215 N 
ATOM      9  C   UNL     1      -1.826   0.793  25.597  0.00  0.00    +0.181 C 
ATOM     10  C   UNL     1      -2.688   1.915  25.038  0.00  0.00    +0.139 C 
ATOM     11  C   UNL     1       0.218   1.870  24.648  0.00  0.00    +0.129 C 
ATOM     12  C   UNL     1      -0.657   2.997  24.101  0.00  0.00    +0.127 C 
ATOM     13  C   UNL     1      -2.406  -0.595  25.383  0.00  0.00    +0.246 C 
ATOM     14  C   UNL     1      -0.398  -0.581  24.288  0.00  0.00    +0.312 C 
ATOM     17  C   UNL     1      -2.237   4.396  25.404  0.00  0.00    +0.216 C 
ENDROOT
BRANCH  17  16
ATOM     16  C   UNL     1      -3.510   4.464  26.210  0.00  0.00    +0.102 C 
BRANCH  16  15
ATOM     15  C   UNL     1      -4.756   4.073  25.395  0.00  0.00    -0.029 C 
ATOM     19  C   UNL     1      -5.339   2.735  25.880  0.00  0.00    +0.011 C 
ATOM     20  C   UNL     1      -4.430   3.975  23.896  0.00  0.00    +0.011 C 
ATOM     21  C   UNL     1      -5.816   5.172  25.597  0.00  0.00    +0.011 C 
ENDBRANCH  16  15
ENDBRANCH  17  16
BRANCH   7  18
ATOM     18  C   UNL     1      -1.709  -2.717  24.258  0.00  0.00    +0.213 C 
BRANCH  18  22
ATOM      4  O   UNL     1      -3.643  -3.835  25.195  0.00  0.00    -0.274 OA
ATOM      8  N   UNL     1      -3.931  -2.448  23.384  0.00  0.00    -0.328 N 
ATOM     22  C   UNL     1      -3.177  -3.061  24.362  0.00  0.00    +0.228 C 
ATOM     23  H   UNL     1      -4.932  -2.600  23.326  0.00  0.00    +0.145 HD
ATOM     24  H   UNL     1      -3.525  -1.828  22.690  0.00  0.00    +0.145 HD
ENDBRANCH  18  22
ENDBRANCH   7  18
TORSDOF 4
ENDMDL
MODEL 4
REMARK VINA RESULT:      -1.6      3.933      5.929
REMARK  Name = 7675130
REMARK  7 active torsions:
REMARK  status: ('A' for Active; 'I' for Inactive)
REMARK    1  A    between atoms: N_7  and  C_18
REMARK    2  A    between atoms: C_15  and  C_16
REMARK    3  A    between atoms: C_15  and  C_19
REMARK    4  A    between atoms: C_15  and  C_20
REMARK    5  A    between atoms: C_15  and  C_21
REMARK    6  A    between atoms: C_16  and  C_17
REMARK    7  A    between atoms: C_18  and  C_22
REMARK                            x       y       z     vdW  Elec       q    Type
REMARK                         _______ _______ _______ _____ _____    ______ ____
ROOT
ATOM      1  O   UNL     1      -4.681 -10.160  14.792  0.00  0.00    -0.273 OA
ATOM      2  O   UNL     1      -1.153 -10.535  11.853  0.00  0.00    -0.252 OA
ATOM      3  O   UNL     1      -7.234 -10.159   8.615  0.00  0.00    -0.276 OA
ATOM      5  N   UNL     1      -3.396  -9.923  11.581  0.00  0.00    -0.271 N 
ATOM      6  N   UNL     1      -5.882 -10.502  10.472  0.00  0.00    -0.298 N 
ATOM      7  N   UNL     1      -2.667 -10.392  13.629  0.00  0.00    -0.215 N 
ATOM      9  C   UNL     1      -4.571  -9.745  12.406  0.00  0.00    +0.181 C 
ATOM     10  C   UNL     1      -5.697 -10.651  11.928  0.00  0.00    +0.139 C 
ATOM     11  C   UNL     1      -3.527  -9.821  10.139  0.00  0.00    +0.129 C 
ATOM     12  C   UNL     1      -4.668 -10.721   9.667  0.00  0.00    +0.127 C 
ATOM     13  C   UNL     1      -4.014 -10.122  13.768  0.00  0.00    +0.246 C 
ATOM     14  C   UNL     1      -2.266 -10.303  12.305  0.00  0.00    +0.312 C 
ATOM     17  C   UNL     1      -7.093 -10.232   9.838  0.00  0.00    +0.216 C 
ENDROOT
BRANCH  17  16
ATOM     16  C   UNL     1      -8.289 -10.017  10.732  0.00  0.00    +0.102 C 
BRANCH  16  15
ATOM     15  C   UNL     1      -9.517  -9.485   9.971  0.00  0.00    -0.029 C 
ATOM     19  C   UNL     1      -9.206  -8.147   9.280  0.00  0.00    +0.011 C 
ATOM     20  C   UNL     1     -10.719  -9.307  10.913  0.00  0.00    +0.011 C 
ATOM     21  C   UNL     1      -9.888 -10.520   8.892  0.00  0.00    +0.011 C 
ENDBRANCH  16  15
ENDBRANCH  17  16
BRANCH   7  18
ATOM     18  C   UNL     1      -1.798 -10.781  14.721  0.00  0.00    +0.213 C 
BRANCH  18  22
ATOM      4  O   UNL     1      -1.038  -8.482  14.644  0.00  0.00    -0.274 OA
ATOM      8  N   UNL     1      -0.133  -9.900  16.211  0.00  0.00    -0.328 N 
ATOM     22  C   UNL     1      -0.983  -9.590  15.172  0.00  0.00    +0.228 C 
ATOM     23  H   UNL     1       0.484  -9.198  16.606  0.00  0.00    +0.145 HD
ATOM     24  H   UNL     1      -0.086 -10.828  16.620  0.00  0.00    +0.145 HD
ENDBRANCH  18  22
ENDBRANCH   7  18
TORSDOF 4
ENDMDL
MODEL 5
REMARK VINA RESULT:      -1.3     14.627     17.254
REMARK  Name = 7675130
REMARK  7 active torsions:
REMARK  status: ('A' for Active; 'I' for Inactive)
REMARK    1  A    between atoms: N_7  and  C_18
REMARK    2  A    between atoms: C_15  and  C_16
REMARK    3  A    between atoms: C_15  and  C_19
REMARK    4  A    between atoms: C_15  and  C_20
REMARK    5  A    between atoms: C_15  and  C_21
REMARK    6  A    between atoms: C_16  and  C_17
REMARK    7  A    between atoms: C_18  and  C_22
REMARK                            x       y       z     vdW  Elec       q    Type
REMARK                         _______ _______ _______ _____ _____    ______ ____
ROOT
ATOM      1  O   UNL     1      -4.780   2.285  23.372  0.00  0.00    -0.273 OA
ATOM      2  O   UNL     1      -1.738   4.805  25.744  0.00  0.00    -0.252 OA
ATOM      3  O   UNL     1       0.182  -1.801  25.205  0.00  0.00    -0.276 OA
ATOM      5  N   UNL     1      -1.628   2.684  24.759  0.00  0.00    -0.271 N 
ATOM      6  N   UNL     1      -1.358  -0.065  25.101  0.00  0.00    -0.298 N 
ATOM      7  N   UNL     1      -3.503   3.858  24.537  0.00  0.00    -0.215 N 
ATOM      9  C   UNL     1      -2.482   1.811  23.984  0.00  0.00    +0.181 C 
ATOM     10  C   UNL     1      -2.668   0.479  24.697  0.00  0.00    +0.139 C 
ATOM     11  C   UNL     1      -0.341   2.187  25.212  0.00  0.00    +0.129 C 
ATOM     12  C   UNL     1      -0.533   0.844  25.914  0.00  0.00    +0.127 C 
ATOM     13  C   UNL     1      -3.745   2.652  23.910  0.00  0.00    +0.246 C 
ATOM     14  C   UNL     1      -2.230   3.899  25.085  0.00  0.00    +0.312 C 
ATOM     17  C   UNL     1      -0.898  -1.350  24.816  0.00  0.00    +0.216 C 
ENDROOT
BRANCH  17  16
ATOM     16  C   UNL     1      -1.800  -2.218  23.975  0.00  0.00    +0.102 C 
BRANCH  16  15
ATOM     15  C   UNL     1      -3.188  -2.428  24.608  0.00  0.00    -0.029 C 
ATOM     19  C   UNL     1      -4.253  -1.565  23.912  0.00  0.00    +0.011 C 
ATOM     20  C   UNL     1      -3.168  -2.101  26.111  0.00  0.00    +0.011 C 
ATOM     21  C   UNL     1      -3.567  -3.911  24.434  0.00  0.00    +0.011 C 
ENDBRANCH  16  15
ENDBRANCH  17  16
BRANCH   7  18
ATOM     18  C   UNL     1      -4.478   4.923  24.659  0.00  0.00    +0.213 C 
BRANCH  18  22
ATOM      4  O   UNL     1      -5.582   3.438  26.223  0.00  0.00    -0.274 OA
ATOM      8  N   UNL     1      -6.616   5.408  25.640  0.00  0.00    -0.328 N 
ATOM     22  C   UNL     1      -5.582   4.497  25.599  0.00  0.00    +0.228 C 
ATOM     23  H   UNL     1      -7.432   5.244  26.221  0.00  0.00    +0.145 HD
ATOM     24  H   UNL     1      -6.608   6.268  25.101  0.00  0.00    +0.145 HD
ENDBRANCH  18  22
ENDBRANCH   7  18
TORSDOF 4
ENDMDL
MODEL 6
REMARK VINA RESULT:      -1.0     14.904     17.275
REMARK  Name = 7675130
REMARK  7 active torsions:
REMARK  status: ('A' for Active; 'I' for Inactive)
REMARK    1  A    between atoms: N_7  and  C_18
REMARK    2  A    between atoms: C_15  and  C_16
REMARK    3  A    between atoms: C_15  and  C_19
REMARK    4  A    between atoms: C_15  and  C_20
REMARK    5  A    between atoms: C_15  and  C_21
REMARK    6  A    between atoms: C_16  and  C_17
REMARK    7  A    between atoms: C_18  and  C_22
REMARK                            x       y       z     vdW  Elec       q    Type
REMARK                         _______ _______ _______ _____ _____    ______ ____
ROOT
ATOM      1  O   UNL     1       0.416   1.990  24.225  0.00  0.00    -0.273 OA
ATOM      2  O   UNL     1      -0.922  -2.382  23.652  0.00  0.00    -0.252 OA
ATOM      3  O   UNL     1      -6.071   1.675  25.806  0.00  0.00    -0.276 OA
ATOM      5  N   UNL     1      -2.100  -0.374  23.905  0.00  0.00    -0.271 N 
ATOM      6  N   UNL     1      -3.834   1.166  25.443  0.00  0.00    -0.298 N 
ATOM      7  N   UNL     1       0.122  -0.299  23.858  0.00  0.00    -0.215 N 
ATOM      9  C   UNL     1      -1.806   1.034  24.064  0.00  0.00    +0.181 C 
ATOM     10  C   UNL     1      -2.416   1.560  25.355  0.00  0.00    +0.139 C 
ATOM     11  C   UNL     1      -3.476  -0.822  24.016  0.00  0.00    +0.129 C 
ATOM     12  C   UNL     1      -4.086  -0.278  25.307  0.00  0.00    +0.127 C 
ATOM     13  C   UNL     1      -0.288   1.002  24.066  0.00  0.00    +0.246 C 
ATOM     14  C   UNL     1      -0.958  -1.165  23.779  0.00  0.00    +0.312 C 
ATOM     17  C   UNL     1      -4.896   2.034  25.689  0.00  0.00    +0.216 C 
ENDROOT
BRANCH  17  16
ATOM     16  C   UNL     1      -4.557   3.498  25.813  0.00  0.00    +0.102 C 
BRANCH  16  15
ATOM     15  C   UNL     1      -3.981   4.090  24.513  0.00  0.00    -0.029 C 
ATOM     19  C   UNL     1      -4.146   3.114  23.337  0.00  0.00    +0.011 C 
ATOM     20  C   UNL     1      -2.494   4.446  24.677  0.00  0.00    +0.011 C 
ATOM     21  C   UNL     1      -4.762   5.379  24.195  0.00  0.00    +0.011 C 
ENDBRANCH  16  15
ENDBRANCH  17  16
BRANCH   7  18
ATOM     18  C   UNL     1       1.508  -0.716  23.791  0.00  0.00    +0.213 C 
BRANCH  18  22
ATOM      4  O   UNL     1       1.990  -0.258  21.462  0.00  0.00    -0.274 OA
ATOM      8  N   UNL     1       3.127   0.911  23.083  0.00  0.00    -0.328 N 
ATOM     22  C   UNL     1       2.198  -0.010  22.647  0.00  0.00    +0.228 C 
ATOM     23  H   UNL     1       3.676   1.450  22.422  0.00  0.00    +0.145 HD
ATOM     24  H   UNL     1       3.300   1.088  24.068  0.00  0.00    +0.145 HD
ENDBRANCH  18  22
ENDBRANCH   7  18
TORSDOF 4
ENDMDL
MODEL 7
REMARK VINA RESULT:      -0.7     15.804     17.527
REMARK  Name = 7675130
REMARK  7 active torsions:
REMARK  status: ('A' for Active; 'I' for Inactive)
REMARK    1  A    between atoms: N_7  and  C_18
REMARK    2  A    between atoms: C_15  and  C_16
REMARK    3  A    between atoms: C_15  and  C_19
REMARK    4  A    between atoms: C_15  and  C_20
REMARK    5  A    between atoms: C_15  and  C_21
REMARK    6  A    between atoms: C_16  and  C_17
REMARK    7  A    between atoms: C_18  and  C_22
REMARK                            x       y       z     vdW  Elec       q    Type
REMARK                         _______ _______ _______ _____ _____    ______ ____
ROOT
ATOM      1  O   UNL     1       0.017   3.865  25.754  0.00  0.00    -0.273 OA
ATOM      2  O   UNL     1      -3.383   0.847  25.004  0.00  0.00    -0.252 OA
ATOM      3  O   UNL     1       2.571  -1.146  22.143  0.00  0.00    -0.276 OA
ATOM      5  N   UNL     1      -1.056   0.715  24.782  0.00  0.00    -0.271 N 
ATOM      6  N   UNL     1       1.140   0.414  23.099  0.00  0.00    -0.298 N 
ATOM      7  N   UNL     1      -1.941   2.604  25.554  0.00  0.00    -0.215 N 
ATOM      9  C   UNL     1       0.097   1.561  25.003  0.00  0.00    +0.181 C 
ATOM     10  C   UNL     1       0.886   1.730  23.713  0.00  0.00    +0.139 C 
ATOM     11  C   UNL     1      -0.868  -0.578  24.150  0.00  0.00    +0.129 C 
ATOM     12  C   UNL     1      -0.063  -0.403  22.863  0.00  0.00    +0.127 C 
ATOM     13  C   UNL     1      -0.581   2.833  25.483  0.00  0.00    +0.246 C 
ATOM     14  C   UNL     1      -2.264   1.331  25.111  0.00  0.00    +0.312 C 
ATOM     17  C   UNL     1       2.388  -0.060  22.698  0.00  0.00    +0.216 C 
ENDROOT
BRANCH  17  16
ATOM     16  C   UNL     1       3.570   0.834  22.978  0.00  0.00    +0.102 C 
BRANCH  16  15
ATOM     15  C   UNL     1       4.806   0.056  23.466  0.00  0.00    -0.029 C 
ATOM     19  C   UNL     1       4.418  -1.346  23.964  0.00  0.00    +0.011 C 
ATOM     20  C   UNL     1       5.531   0.815  24.590  0.00  0.00    +0.011 C 
ATOM     21  C   UNL     1       5.770  -0.095  22.274  0.00  0.00    +0.011 C 
ENDBRANCH  16  15
ENDBRANCH  17  16
BRANCH   7  18
ATOM     18  C   UNL     1      -2.912   3.591  25.980  0.00  0.00    +0.213 C 
BRANCH  18  22
ATOM      4  O   UNL     1      -3.896   4.036  23.812  0.00  0.00    -0.274 OA
ATOM      8  N   UNL     1      -5.254   3.316  25.522  0.00  0.00    -0.328 N 
ATOM     22  C   UNL     1      -4.038   3.664  24.974  0.00  0.00    +0.228 C 
ATOM     23  H   UNL     1      -6.101   3.334  24.964  0.00  0.00    +0.145 HD
ATOM     24  H   UNL     1      -5.355   3.032  26.491  0.00  0.00    +0.145 HD
ENDBRANCH  18  22
ENDBRANCH   7  18
TORSDOF 4
ENDMDL
MODEL 8
REMARK VINA RESULT:      -0.4     15.438     16.736
REMARK  Name = 7675130
REMARK  7 active torsions:
REMARK  status: ('A' for Active; 'I' for Inactive)
REMARK    1  A    between atoms: N_7  and  C_18
REMARK    2  A    between atoms: C_15  and  C_16
REMARK    3  A    between atoms: C_15  and  C_19
REMARK    4  A    between atoms: C_15  and  C_20
REMARK    5  A    between atoms: C_15  and  C_21
REMARK    6  A    between atoms: C_16  and  C_17
REMARK    7  A    between atoms: C_18  and  C_22
REMARK                            x       y       z     vdW  Elec       q    Type
REMARK                         _______ _______ _______ _____ _____    ______ ____
ROOT
ATOM      1  O   UNL     1      -2.573   3.460  24.254  0.00  0.00    -0.273 OA
ATOM      2  O   UNL     1      -4.721  -0.538  25.048  0.00  0.00    -0.252 OA
ATOM      3  O   UNL     1       2.014  -1.381  23.803  0.00  0.00    -0.276 OA
ATOM      5  N   UNL     1      -2.462   0.076  24.999  0.00  0.00    -0.271 N 
ATOM      6  N   UNL     1       0.026  -0.179  23.779  0.00  0.00    -0.298 N 
ATOM      7  N   UNL     1      -3.996   1.652  24.666  0.00  0.00    -0.215 N 
ATOM      9  C   UNL     1      -1.676   1.273  24.792  0.00  0.00    +0.181 C 
ATOM     10  C   UNL     1      -0.720   1.084  23.624  0.00  0.00    +0.139 C 
ATOM     11  C   UNL     1      -1.781  -1.200  25.125  0.00  0.00    +0.129 C 
ATOM     12  C   UNL     1      -0.812  -1.376  23.957  0.00  0.00    +0.127 C 
ATOM     13  C   UNL     1      -2.777   2.286  24.531  0.00  0.00    +0.246 C 
ATOM     14  C   UNL     1      -3.838   0.300  24.928  0.00  0.00    +0.312 C 
ATOM     17  C   UNL     1       1.413  -0.307  23.718  0.00  0.00    +0.216 C 
ENDROOT
BRANCH  17  16
ATOM     16  C   UNL     1       2.200   0.966  23.537  0.00  0.00    +0.102 C 
BRANCH  16  15
ATOM     15  C   UNL     1       3.489   0.762  22.721  0.00  0.00    -0.029 C 
ATOM     19  C   UNL     1       3.206  -0.001  21.416  0.00  0.00    +0.011 C 
ATOM     20  C   UNL     1       4.548   0.002  23.538  0.00  0.00    +0.011 C 
ATOM     21  C   UNL     1       4.048   2.152  22.365  0.00  0.00    +0.011 C 
ENDBRANCH  16  15
ENDBRANCH  17  16
BRANCH   7  18
ATOM     18  C   UNL     1      -5.277   2.305  24.496  0.00  0.00    +0.213 C 
BRANCH  18  22
ATOM      4  O   UNL     1      -5.369   4.204  25.997  0.00  0.00    -0.274 OA
ATOM      8  N   UNL     1      -6.307   2.213  26.664  0.00  0.00    -0.328 N 
ATOM     22  C   UNL     1      -5.653   3.030  25.767  0.00  0.00    +0.228 C 
ATOM     23  H   UNL     1      -6.607   2.565  27.567  0.00  0.00    +0.145 HD
ATOM     24  H   UNL     1      -6.515   1.239  26.464  0.00  0.00    +0.145 HD
ENDBRANCH  18  22
ENDBRANCH   7  18
TORSDOF 4
ENDMDL
