MODEL 1
REMARK VINA RESULT:      -4.6      0.000      0.000
REMARK  Name = 56775321
REMARK  5 active torsions:
REMARK  status: ('A' for Active; 'I' for Inactive)
REMARK    1  A    between atoms: O_5  and  C_16
REMARK    2  A    between atoms: O_5  and  C_22
REMARK    3  A    between atoms: N_7  and  C_13
REMARK    4  A    between atoms: C_13  and  C_16
REMARK    5  A    between atoms: C_15  and  C_17
REMARK                            x       y       z     vdW  Elec       q    Type
REMARK                         _______ _______ _______ _____ _____    ______ ____
ROOT
ATOM      2  O   UNL     1      -8.391 -10.724  10.772  0.00  0.00    -0.364 OA
ATOM      3  O   UNL     1      -6.005 -10.221   8.179  0.00  0.00    -0.273 OA
ATOM      4  O   UNL     1      -8.321 -10.445  15.564  0.00  0.00    -0.270 OA
ATOM      6  N   UNL     1      -7.463  -9.855  13.489  0.00  0.00    -0.293 N 
ATOM      7  N   UNL     1      -6.299  -9.004  10.140  0.00  0.00    -0.290 N 
ATOM      8  C   UNL     1      -7.022  -8.846  11.396  0.00  0.00    +0.124 C 
ATOM      9  C   UNL     1      -8.431  -9.434  11.378  0.00  0.00    +0.158 C 
ATOM     10  C   UNL     1      -6.364  -9.590  12.562  0.00  0.00    +0.133 C 
ATOM     11  C   UNL     1      -8.754  -9.605  12.856  0.00  0.00    +0.141 C 
ATOM     12  C   UNL     1      -6.659  -9.956   9.190  0.00  0.00    +0.242 C 
ATOM     14  C   UNL     1      -8.001 -10.628   9.420  0.00  0.00    +0.256 C 
ATOM     15  C   UNL     1      -7.367 -10.231  14.819  0.00  0.00    +0.247 C 
ENDROOT
BRANCH  15  17
ATOM      1  F   UNL     1      -2.232 -10.778  16.987  0.00  0.00    -0.205 F 
ATOM     17  C   UNL     1      -6.018 -10.374  15.389  0.00  0.00    +0.037 A 
ATOM     18  C   UNL     1      -5.851 -10.474  16.771  0.00  0.00    +0.016 A 
ATOM     19  C   UNL     1      -4.905 -10.411  14.548  0.00  0.00    +0.016 A 
ATOM     20  C   UNL     1      -4.573 -10.610  17.310  0.00  0.00    +0.039 A 
ATOM     21  C   UNL     1      -3.627 -10.548  15.088  0.00  0.00    +0.039 A 
ATOM     23  C   UNL     1      -3.460 -10.647  16.470  0.00  0.00    +0.123 A 
ENDBRANCH  15  17
BRANCH   7  13
ATOM     13  C   UNL     1      -5.074  -8.233   9.983  0.00  0.00    +0.136 C 
BRANCH  13  16
ATOM     16  C   UNL     1      -3.905  -9.118   9.590  0.00  0.00    +0.178 C 
BRANCH  16   5
ATOM      5  O   UNL     1      -3.129  -9.415  10.743  0.00  0.00    -0.381 OA
ATOM     22  C   UNL     1      -3.256 -10.779  11.120  0.00  0.00    +0.194 C 
ENDBRANCH  16   5
ENDBRANCH  13  16
ENDBRANCH   7  13
TORSDOF 4
ENDMDL
MODEL 2
REMARK VINA RESULT:      -3.9     15.422     17.613
REMARK  Name = 56775321
REMARK  5 active torsions:
REMARK  status: ('A' for Active; 'I' for Inactive)
REMARK    1  A    between atoms: O_5  and  C_16
REMARK    2  A    between atoms: O_5  and  C_22
REMARK    3  A    between atoms: N_7  and  C_13
REMARK    4  A    between atoms: C_13  and  C_16
REMARK    5  A    between atoms: C_15  and  C_17
REMARK                            x       y       z     vdW  Elec       q    Type
REMARK                         _______ _______ _______ _____ _____    ______ ____
ROOT
ATOM      2  O   UNL     1      -3.349   4.777  24.393  0.00  0.00    -0.364 OA
ATOM      3  O   UNL     1       0.177   5.139  24.070  0.00  0.00    -0.273 OA
ATOM      4  O   UNL     1      -6.325   1.129  25.339  0.00  0.00    -0.270 OA
ATOM      6  N   UNL     1      -4.224   2.113  25.457  0.00  0.00    -0.293 N 
ATOM      7  N   UNL     1      -1.019   3.845  25.589  0.00  0.00    -0.290 N 
ATOM      8  C   UNL     1      -2.318   3.377  26.057  0.00  0.00    +0.124 C 
ATOM      9  C   UNL     1      -3.468   4.330  25.741  0.00  0.00    +0.158 C 
ATOM     10  C   UNL     1      -2.764   2.077  25.379  0.00  0.00    +0.133 C 
ATOM     11  C   UNL     1      -4.698   3.436  25.847  0.00  0.00    +0.141 C 
ATOM     12  C   UNL     1      -0.889   4.808  24.593  0.00  0.00    +0.242 C 
ATOM     14  C   UNL     1      -2.172   5.532  24.219  0.00  0.00    +0.256 C 
ATOM     15  C   UNL     1      -5.100   1.055  25.265  0.00  0.00    +0.247 C 
ENDROOT
BRANCH  15  17
ATOM      1  F   UNL     1      -2.892  -3.959  24.104  0.00  0.00    -0.205 F 
ATOM     17  C   UNL     1      -4.519  -0.261  24.960  0.00  0.00    +0.037 A 
ATOM     18  C   UNL     1      -3.769  -0.934  25.926  0.00  0.00    +0.016 A 
ATOM     19  C   UNL     1      -4.719  -0.839  23.705  0.00  0.00    +0.016 A 
ATOM     20  C   UNL     1      -3.220  -2.182  25.636  0.00  0.00    +0.039 A 
ATOM     21  C   UNL     1      -4.169  -2.088  23.417  0.00  0.00    +0.039 A 
ATOM     23  C   UNL     1      -3.419  -2.760  24.383  0.00  0.00    +0.123 A 
ENDBRANCH  15  17
BRANCH   7  13
ATOM     13  C   UNL     1       0.154   3.142  26.091  0.00  0.00    +0.136 C 
BRANCH  13  16
ATOM     16  C   UNL     1       0.216   1.718  25.569  0.00  0.00    +0.178 C 
BRANCH  16   5
ATOM      5  O   UNL     1       0.566   1.735  24.192  0.00  0.00    -0.381 OA
ATOM     22  C   UNL     1       0.172   0.535  23.539  0.00  0.00    +0.194 C 
ENDBRANCH  16   5
ENDBRANCH  13  16
ENDBRANCH   7  13
TORSDOF 4
ENDMDL
MODEL 3
REMARK VINA RESULT:      -3.4      1.631      2.059
REMARK  Name = 56775321
REMARK  5 active torsions:
REMARK  status: ('A' for Active; 'I' for Inactive)
REMARK    1  A    between atoms: O_5  and  C_16
REMARK    2  A    between atoms: O_5  and  C_22
REMARK    3  A    between atoms: N_7  and  C_13
REMARK    4  A    between atoms: C_13  and  C_16
REMARK    5  A    between atoms: C_15  and  C_17
REMARK                            x       y       z     vdW  Elec       q    Type
REMARK                         _______ _______ _______ _____ _____    ______ ____
ROOT
ATOM      2  O   UNL     1      -6.965 -10.545   9.639  0.00  0.00    -0.364 OA
ATOM      3  O   UNL     1      -3.552 -10.781   8.659  0.00  0.00    -0.273 OA
ATOM      4  O   UNL     1      -9.272  -9.646  13.753  0.00  0.00    -0.270 OA
ATOM      6  N   UNL     1      -7.382  -9.483  12.413  0.00  0.00    -0.293 N 
ATOM      7  N   UNL     1      -4.539  -9.283  10.140  0.00  0.00    -0.290 N 
ATOM      8  C   UNL     1      -5.746  -8.845  10.830  0.00  0.00    +0.124 C 
ATOM      9  C   UNL     1      -7.039  -9.197  10.096  0.00  0.00    +0.158 C 
ATOM     10  C   UNL     1      -5.938  -9.523  12.190  0.00  0.00    +0.133 C 
ATOM     11  C   UNL     1      -8.093  -9.115  11.193  0.00  0.00    +0.141 C 
ATOM     12  C   UNL     1      -4.556 -10.283   9.172  0.00  0.00    +0.242 C 
ATOM     14  C   UNL     1      -5.935 -10.694   8.688  0.00  0.00    +0.256 C 
ATOM     15  C   UNL     1      -8.052  -9.689  13.610  0.00  0.00    +0.247 C 
ENDROOT
BRANCH  15  17
ATOM      1  F   UNL     1      -4.958 -10.759  18.153  0.00  0.00    -0.205 F 
ATOM     17  C   UNL     1      -7.239  -9.969  14.804  0.00  0.00    +0.037 A 
ATOM     18  C   UNL     1      -7.854 -10.121  16.047  0.00  0.00    +0.016 A 
ATOM     19  C   UNL     1      -5.853 -10.085  14.693  0.00  0.00    +0.016 A 
ATOM     20  C   UNL     1      -7.084 -10.387  17.178  0.00  0.00    +0.039 A 
ATOM     21  C   UNL     1      -5.083 -10.352  15.825  0.00  0.00    +0.039 A 
ATOM     23  C   UNL     1      -5.698 -10.503  17.068  0.00  0.00    +0.123 A 
ENDBRANCH  15  17
BRANCH   7  13
ATOM     13  C   UNL     1      -3.274  -8.746  10.623  0.00  0.00    +0.136 C 
BRANCH  13  16
ATOM     16  C   UNL     1      -2.422  -9.823  11.269  0.00  0.00    +0.178 C 
BRANCH  16   5
ATOM      5  O   UNL     1      -1.292  -9.223  11.889  0.00  0.00    -0.381 OA
ATOM     22  C   UNL     1      -0.257  -8.968  10.951  0.00  0.00    +0.194 C 
ENDBRANCH  16   5
ENDBRANCH  13  16
ENDBRANCH   7  13
TORSDOF 4
ENDMDL
MODEL 4
REMARK VINA RESULT:      -3.1     15.243     17.641
REMARK  Name = 56775321
REMARK  5 active torsions:
REMARK  status: ('A' for Active; 'I' for Inactive)
REMARK    1  A    between atoms: O_5  and  C_16
REMARK    2  A    between atoms: O_5  and  C_22
REMARK    3  A    between atoms: N_7  and  C_13
REMARK    4  A    between atoms: C_13  and  C_16
REMARK    5  A    between atoms: C_15  and  C_17
REMARK                            x       y       z     vdW  Elec       q    Type
REMARK                         _______ _______ _______ _____ _____    ______ ____
ROOT
ATOM      2  O   UNL     1       0.994   2.304  23.967  0.00  0.00    -0.364 OA
ATOM      3  O   UNL     1       1.262  -0.643  21.989  0.00  0.00    -0.273 OA
ATOM      4  O   UNL     1      -2.486   4.360  26.558  0.00  0.00    -0.270 OA
ATOM      6  N   UNL     1      -1.531   2.486  25.576  0.00  0.00    -0.293 N 
ATOM      7  N   UNL     1       0.152  -0.345  24.012  0.00  0.00    -0.290 N 
ATOM      8  C   UNL     1      -0.243   0.566  25.080  0.00  0.00    +0.124 C 
ATOM      9  C   UNL     1       0.691   1.762  25.249  0.00  0.00    +0.158 C 
ATOM     10  C   UNL     1      -1.598   1.233  24.825  0.00  0.00    +0.133 C 
ATOM     11  C   UNL     1      -0.166   2.766  26.009  0.00  0.00    +0.141 C 
ATOM     12  C   UNL     1       1.005   0.041  22.982  0.00  0.00    +0.242 C 
ATOM     14  C   UNL     1       1.707   1.372  23.186  0.00  0.00    +0.256 C 
ATOM     15  C   UNL     1      -2.588   3.312  25.924  0.00  0.00    +0.247 C 
ENDROOT
BRANCH  15  17
ATOM      1  F   UNL     1      -7.730   1.734  24.367  0.00  0.00    -0.205 F 
ATOM     17  C   UNL     1      -3.939   2.898  25.514  0.00  0.00    +0.037 A 
ATOM     18  C   UNL     1      -4.149   1.620  24.994  0.00  0.00    +0.016 A 
ATOM     19  C   UNL     1      -5.010   3.782  25.646  0.00  0.00    +0.016 A 
ATOM     20  C   UNL     1      -5.429   1.227  24.607  0.00  0.00    +0.039 A 
ATOM     21  C   UNL     1      -6.291   3.388  25.258  0.00  0.00    +0.039 A 
ATOM     23  C   UNL     1      -6.500   2.110  24.738  0.00  0.00    +0.123 A 
ENDBRANCH  15  17
BRANCH   7  13
ATOM     13  C   UNL     1      -0.514  -1.640  23.971  0.00  0.00    +0.136 C 
BRANCH  13  16
ATOM     16  C   UNL     1      -1.522  -1.784  25.097  0.00  0.00    +0.178 C 
BRANCH  16   5
ATOM      5  O   UNL     1      -2.525  -2.717  24.717  0.00  0.00    -0.381 OA
ATOM     22  C   UNL     1      -3.714  -2.062  24.297  0.00  0.00    +0.194 C 
ENDBRANCH  16   5
ENDBRANCH  13  16
ENDBRANCH   7  13
TORSDOF 4
ENDMDL
MODEL 5
REMARK VINA RESULT:      -2.7     15.261     17.135
REMARK  Name = 56775321
REMARK  5 active torsions:
REMARK  status: ('A' for Active; 'I' for Inactive)
REMARK    1  A    between atoms: O_5  and  C_16
REMARK    2  A    between atoms: O_5  and  C_22
REMARK    3  A    between atoms: N_7  and  C_13
REMARK    4  A    between atoms: C_13  and  C_16
REMARK    5  A    between atoms: C_15  and  C_17
REMARK                            x       y       z     vdW  Elec       q    Type
REMARK                         _______ _______ _______ _____ _____    ______ ____
ROOT
ATOM      2  O   UNL     1      -3.792  -2.038  25.625  0.00  0.00    -0.364 OA
ATOM      3  O   UNL     1      -0.414  -3.125  25.364  0.00  0.00    -0.273 OA
ATOM      4  O   UNL     1      -6.085   2.134  24.996  0.00  0.00    -0.270 OA
ATOM      6  N   UNL     1      -4.283   0.730  24.579  0.00  0.00    -0.293 N 
ATOM      7  N   UNL     1      -1.572  -1.638  24.000  0.00  0.00    -0.290 N 
ATOM      8  C   UNL     1      -2.811  -0.917  23.735  0.00  0.00    +0.124 C 
ATOM      9  C   UNL     1      -4.056  -1.601  24.294  0.00  0.00    +0.158 C 
ATOM     10  C   UNL     1      -2.857   0.460  24.405  0.00  0.00    +0.133 C 
ATOM     11  C   UNL     1      -5.077  -0.472  24.349  0.00  0.00    +0.141 C 
ATOM     12  C   UNL     1      -1.466  -2.588  25.012  0.00  0.00    +0.242 C 
ATOM     14  C   UNL     1      -2.781  -3.019  25.637  0.00  0.00    +0.256 C 
ATOM     15  C   UNL     1      -4.877   1.951  24.858  0.00  0.00    +0.247 C 
ENDROOT
BRANCH  15  17
ATOM      1  F   UNL     1      -1.521   6.408  25.345  0.00  0.00    -0.205 F 
ATOM     17  C   UNL     1      -3.996   3.122  24.986  0.00  0.00    +0.037 A 
ATOM     18  C   UNL     1      -3.496   3.485  26.237  0.00  0.00    +0.016 A 
ATOM     19  C   UNL     1      -3.660   3.869  23.857  0.00  0.00    +0.016 A 
ATOM     20  C   UNL     1      -2.660   4.595  26.357  0.00  0.00    +0.039 A 
ATOM     21  C   UNL     1      -2.824   4.979  23.978  0.00  0.00    +0.039 A 
ATOM     23  C   UNL     1      -2.324   5.342  25.229  0.00  0.00    +0.123 A 
ENDBRANCH  15  17
BRANCH   7  13
ATOM     13  C   UNL     1      -0.389  -1.206  23.268  0.00  0.00    +0.136 C 
BRANCH  13  16
ATOM     16  C   UNL     1       0.455  -0.248  24.089  0.00  0.00    +0.178 C 
BRANCH  16   5
ATOM      5  O   UNL     1       0.375   1.054  23.524  0.00  0.00    -0.381 OA
ATOM     22  C   UNL     1       0.235   2.050  24.528  0.00  0.00    +0.194 C 
ENDBRANCH  16   5
ENDBRANCH  13  16
ENDBRANCH   7  13
TORSDOF 4
ENDMDL
MODEL 6
REMARK VINA RESULT:      -2.4     14.950     17.452
REMARK  Name = 56775321
REMARK  5 active torsions:
REMARK  status: ('A' for Active; 'I' for Inactive)
REMARK    1  A    between atoms: O_5  and  C_16
REMARK    2  A    between atoms: O_5  and  C_22
REMARK    3  A    between atoms: N_7  and  C_13
REMARK    4  A    between atoms: C_13  and  C_16
REMARK    5  A    between atoms: C_15  and  C_17
REMARK                            x       y       z     vdW  Elec       q    Type
REMARK                         _______ _______ _______ _____ _____    ______ ____
ROOT
ATOM      2  O   UNL     1      -0.183   3.534  25.490  0.00  0.00    -0.364 OA
ATOM      3  O   UNL     1      -3.191   5.319  26.148  0.00  0.00    -0.273 OA
ATOM      4  O   UNL     1       0.886  -0.898  23.985  0.00  0.00    -0.270 OA
ATOM      6  N   UNL     1      -0.588   0.889  24.134  0.00  0.00    -0.293 N 
ATOM      7  N   UNL     1      -2.736   3.820  24.427  0.00  0.00    -0.290 N 
ATOM      8  C   UNL     1      -1.787   2.902  23.811  0.00  0.00    +0.124 C 
ATOM      9  C   UNL     1      -0.325   3.234  24.104  0.00  0.00    +0.158 C 
ATOM     10  C   UNL     1      -1.915   1.468  24.335  0.00  0.00    +0.133 C 
ATOM     11  C   UNL     1       0.393   1.922  23.817  0.00  0.00    +0.141 C 
ATOM     12  C   UNL     1      -2.395   4.628  25.508  0.00  0.00    +0.242 C 
ATOM     14  C   UNL     1      -0.912   4.692  25.828  0.00  0.00    +0.256 C 
ATOM     15  C   UNL     1      -0.246  -0.454  24.160  0.00  0.00    +0.247 C 
ENDROOT
BRANCH  15  17
ATOM      1  F   UNL     1      -4.352  -4.149  25.081  0.00  0.00    -0.205 F 
ATOM     17  C   UNL     1      -1.324  -1.425  24.403  0.00  0.00    +0.037 A 
ATOM     18  C   UNL     1      -2.274  -1.180  25.395  0.00  0.00    +0.016 A 
ATOM     19  C   UNL     1      -1.399  -2.590  23.639  0.00  0.00    +0.016 A 
ATOM     20  C   UNL     1      -3.296  -2.100  25.624  0.00  0.00    +0.039 A 
ATOM     21  C   UNL     1      -2.422  -3.510  23.869  0.00  0.00    +0.039 A 
ATOM     23  C   UNL     1      -3.371  -3.265  24.862  0.00  0.00    +0.123 A 
ENDBRANCH  15  17
BRANCH   7  13
ATOM     13  C   UNL     1      -4.117   3.743  23.972  0.00  0.00    +0.136 C 
BRANCH  13  16
ATOM     16  C   UNL     1      -5.040   3.251  25.072  0.00  0.00    +0.178 C 
BRANCH  16   5
ATOM      5  O   UNL     1      -5.740   2.099  24.621  0.00  0.00    -0.381 OA
ATOM     22  C   UNL     1      -5.313   0.929  25.304  0.00  0.00    +0.194 C 
ENDBRANCH  16   5
ENDBRANCH  13  16
ENDBRANCH   7  13
TORSDOF 4
ENDMDL
MODEL 7
REMARK VINA RESULT:      -1.8     15.532     18.009
REMARK  Name = 56775321
REMARK  5 active torsions:
REMARK  status: ('A' for Active; 'I' for Inactive)
REMARK    1  A    between atoms: O_5  and  C_16
REMARK    2  A    between atoms: O_5  and  C_22
REMARK    3  A    between atoms: N_7  and  C_13
REMARK    4  A    between atoms: C_13  and  C_16
REMARK    5  A    between atoms: C_15  and  C_17
REMARK                            x       y       z     vdW  Elec       q    Type
REMARK                         _______ _______ _______ _____ _____    ______ ____
ROOT
ATOM      2  O   UNL     1      -1.255  -1.718  24.671  0.00  0.00    -0.364 OA
ATOM      3  O   UNL     1      -4.376  -2.370  23.089  0.00  0.00    -0.273 OA
ATOM      4  O   UNL     1       0.866   2.158  26.550  0.00  0.00    -0.270 OA
ATOM      6  N   UNL     1      -1.046   1.003  25.915  0.00  0.00    -0.293 N 
ATOM      7  N   UNL     1      -3.928  -0.989  24.907  0.00  0.00    -0.290 N 
ATOM      8  C   UNL     1      -2.933  -0.418  25.806  0.00  0.00    +0.124 C 
ATOM      9  C   UNL     1      -1.675  -1.271  25.958  0.00  0.00    +0.158 C 
ATOM     10  C   UNL     1      -2.373   0.918  25.307  0.00  0.00    +0.133 C 
ATOM     11  C   UNL     1      -0.646  -0.279  26.484  0.00  0.00    +0.141 C 
ATOM     12  C   UNL     1      -3.606  -1.955  23.957  0.00  0.00    +0.242 C 
ATOM     14  C   UNL     1      -2.223  -2.567  24.098  0.00  0.00    +0.256 C 
ATOM     15  C   UNL     1      -0.248   2.131  26.030  0.00  0.00    +0.247 C 
ENDROOT
BRANCH  15  17
ATOM      1  F   UNL     1      -2.266   6.951  24.017  0.00  0.00    -0.205 F 
ATOM     17  C   UNL     1      -0.779   3.396  25.501  0.00  0.00    +0.037 A 
ATOM     18  C   UNL     1      -1.955   3.933  26.025  0.00  0.00    +0.016 A 
ATOM     19  C   UNL     1      -0.105   4.061  24.476  0.00  0.00    +0.016 A 
ATOM     20  C   UNL     1      -2.457   5.133  25.523  0.00  0.00    +0.039 A 
ATOM     21  C   UNL     1      -0.608   5.262  23.975  0.00  0.00    +0.039 A 
ATOM     23  C   UNL     1      -1.785   5.798  24.499  0.00  0.00    +0.123 A 
ENDBRANCH  15  17
BRANCH   7  13
ATOM     13  C   UNL     1      -5.255  -0.389  24.927  0.00  0.00    +0.136 C 
BRANCH  13  16
ATOM     16  C   UNL     1      -5.199   1.096  24.620  0.00  0.00    +0.178 C 
BRANCH  16   5
ATOM      5  O   UNL     1      -6.005   1.802  25.554  0.00  0.00    -0.381 OA
ATOM     22  C   UNL     1      -5.552   3.138  25.729  0.00  0.00    +0.194 C 
ENDBRANCH  16   5
ENDBRANCH  13  16
ENDBRANCH   7  13
TORSDOF 4
ENDMDL
MODEL 8
REMARK VINA RESULT:      -1.7     15.338     17.826
REMARK  Name = 56775321
REMARK  5 active torsions:
REMARK  status: ('A' for Active; 'I' for Inactive)
REMARK    1  A    between atoms: O_5  and  C_16
REMARK    2  A    between atoms: O_5  and  C_22
REMARK    3  A    between atoms: N_7  and  C_13
REMARK    4  A    between atoms: C_13  and  C_16
REMARK    5  A    between atoms: C_15  and  C_17
REMARK                            x       y       z     vdW  Elec       q    Type
REMARK                         _______ _______ _______ _____ _____    ______ ____
ROOT
ATOM      2  O   UNL     1       0.311   0.090  23.107  0.00  0.00    -0.364 OA
ATOM      3  O   UNL     1      -1.334  -3.022  23.634  0.00  0.00    -0.273 OA
ATOM      4  O   UNL     1      -0.543   4.646  24.358  0.00  0.00    -0.270 OA
ATOM      6  N   UNL     1      -0.814   2.366  24.704  0.00  0.00    -0.293 N 
ATOM      7  N   UNL     1      -1.073  -1.247  25.115  0.00  0.00    -0.290 N 
ATOM      8  C   UNL     1      -0.574   0.103  25.346  0.00  0.00    +0.124 C 
ATOM      9  C   UNL     1       0.596   0.492  24.444  0.00  0.00    +0.158 C 
ATOM     10  C   UNL     1      -1.611   1.185  25.033  0.00  0.00    +0.133 C 
ATOM     11  C   UNL     1       0.588   2.014  24.504  0.00  0.00    +0.141 C 
ATOM     12  C   UNL     1      -0.826  -1.940  23.933  0.00  0.00    +0.242 C 
ATOM     14  C   UNL     1       0.213  -1.314  23.018  0.00  0.00    +0.256 C 
ATOM     15  C   UNL     1      -1.250   3.681  24.639  0.00  0.00    +0.247 C 
ENDROOT
BRANCH  15  17
ATOM      1  F   UNL     1      -6.637   4.678  25.798  0.00  0.00    -0.205 F 
ATOM     17  C   UNL     1      -2.665   3.943  24.943  0.00  0.00    +0.037 A 
ATOM     18  C   UNL     1      -3.631   3.803  23.946  0.00  0.00    +0.016 A 
ATOM     19  C   UNL     1      -3.042   4.331  26.229  0.00  0.00    +0.016 A 
ATOM     20  C   UNL     1      -4.971   4.052  24.235  0.00  0.00    +0.039 A 
ATOM     21  C   UNL     1      -4.384   4.579  26.518  0.00  0.00    +0.039 A 
ATOM     23  C   UNL     1      -5.349   4.440  25.520  0.00  0.00    +0.123 A 
ENDBRANCH  15  17
BRANCH   7  13
ATOM     13  C   UNL     1      -1.987  -1.791  26.110  0.00  0.00    +0.136 C 
BRANCH  13  16
ATOM     16  C   UNL     1      -3.386  -1.224  25.949  0.00  0.00    +0.178 C 
BRANCH  16   5
ATOM      5  O   UNL     1      -4.059  -1.918  24.906  0.00  0.00    -0.381 OA
ATOM     22  C   UNL     1      -4.390  -1.049  23.832  0.00  0.00    +0.194 C 
ENDBRANCH  16   5
ENDBRANCH  13  16
ENDBRANCH   7  13
TORSDOF 4
ENDMDL
