MODEL 1
REMARK VINA RESULT:       9.1      0.000      0.000
REMARK  Name = 7155428
REMARK  2 active torsions:
REMARK  status: ('A' for Active; 'I' for Inactive)
REMARK    1  A    between atoms: N_5  and  C_15
REMARK    2  A    between atoms: C_13  and  C_24
REMARK                            x       y       z     vdW  Elec       q    Type
REMARK                         _______ _______ _______ _____ _____    ______ ____
ROOT
ATOM      1  O   UNL     1       0.914   0.037  21.960  0.00  0.00    -0.253 OA
ATOM      2  O   UNL     1       1.344   2.475  27.330  0.00  0.00    -0.268 OA
ATOM      3  N   UNL     1      -0.102  -0.838  23.855  0.00  0.00    -0.285 N 
ATOM      4  N   UNL     1      -0.347   1.484  26.048  0.00  0.00    -0.311 N 
ATOM      5  N   UNL     1       2.206  -1.144  23.443  0.00  0.00    -0.296 N 
ATOM      6  C   UNL     1      -0.876  -1.016  26.230  0.00  0.00    +0.027 C 
ATOM      7  C   UNL     1      -2.126   0.387  24.651  0.00  0.00    +0.054 C 
ATOM      8  C   UNL     1      -2.274  -0.610  25.798  0.00  0.00    +0.018 C 
ATOM      9  C   UNL     1      -0.095  -1.664  25.071  0.00  0.00    +0.114 C 
ATOM     10  C   UNL     1      -1.415  -0.306  23.474  0.00  0.00    +0.119 C 
ATOM     11  C   UNL     1      -0.161   0.222  26.775  0.00  0.00    +0.130 C 
ATOM     12  C   UNL     1      -1.354   1.640  25.076  0.00  0.00    +0.034 A 
ATOM     13  C   UNL     1      -1.588   2.864  24.536  0.00  0.00    +0.002 A 
ATOM     14  C   UNL     1       1.000  -0.602  23.014  0.00  0.00    +0.302 C 
ATOM     16  C   UNL     1       0.463   2.552  26.473  0.00  0.00    +0.252 A 
ATOM     22  C   UNL     1      -0.769   3.988  24.945  0.00  0.00    +0.015 A 
ATOM     23  C   UNL     1       0.210   3.867  25.841  0.00  0.00    +0.071 A 
ATOM     30  H   UNL     1       2.236  -1.789  24.217  0.00  0.00    +0.151 HD
ENDROOT
BRANCH   5  15
ATOM     15  C   UNL     1       3.429  -0.993  22.687  0.00  0.00    +0.074 C 
ATOM     17  C   UNL     1       3.632   0.463  22.252  0.00  0.00    +0.022 C 
ATOM     18  C   UNL     1       4.634  -1.508  23.480  0.00  0.00    +0.022 C 
ATOM     19  C   UNL     1       4.002   1.376  23.421  0.00  0.00    +0.002 C 
ATOM     20  C   UNL     1       5.002  -0.592  24.647  0.00  0.00    +0.002 C 
ATOM     21  C   UNL     1       5.211   0.848  24.188  0.00  0.00    +0.000 C 
ENDBRANCH   5  15
BRANCH  13  24
ATOM     24  C   UNL     1      -2.646   3.079  23.522  0.00  0.00    -0.016 A 
ATOM     25  C   UNL     1      -3.817   3.740  23.877  0.00  0.00    +0.008 A 
ATOM     26  C   UNL     1      -2.460   2.618  22.222  0.00  0.00    +0.008 A 
ATOM     27  C   UNL     1      -4.814   3.942  22.922  0.00  0.00    +0.001 A 
ATOM     28  C   UNL     1      -3.457   2.821  21.267  0.00  0.00    +0.001 A 
ATOM     29  C   UNL     1      -4.634   3.483  21.617  0.00  0.00    +0.000 A 
ENDBRANCH  13  24
TORSDOF 2
ENDMDL
MODEL 2
REMARK VINA RESULT:       9.7      2.769      4.983
REMARK  Name = 7155428
REMARK  2 active torsions:
REMARK  status: ('A' for Active; 'I' for Inactive)
REMARK    1  A    between atoms: N_5  and  C_15
REMARK    2  A    between atoms: C_13  and  C_24
REMARK                            x       y       z     vdW  Elec       q    Type
REMARK                         _______ _______ _______ _____ _____    ______ ____
ROOT
ATOM      1  O   UNL     1      -1.014   2.902  27.848  0.00  0.00    -0.253 OA
ATOM      2  O   UNL     1      -0.521  -2.404  25.283  0.00  0.00    -0.268 OA
ATOM      3  N   UNL     1      -0.303   2.593  25.660  0.00  0.00    -0.285 N 
ATOM      4  N   UNL     1      -1.297  -0.283  24.660  0.00  0.00    -0.311 N 
ATOM      5  N   UNL     1       1.144   2.213  27.490  0.00  0.00    -0.296 N 
ATOM      6  C   UNL     1       0.233   1.421  23.512  0.00  0.00    +0.027 C 
ATOM      7  C   UNL     1      -2.093   2.014  24.020  0.00  0.00    +0.054 C 
ATOM      8  C   UNL     1      -1.051   1.958  22.906  0.00  0.00    +0.018 C 
ATOM      9  C   UNL     1       0.737   2.322  24.655  0.00  0.00    +0.114 C 
ATOM     10  C   UNL     1      -1.606   2.982  25.113  0.00  0.00    +0.119 C 
ATOM     11  C   UNL     1      -0.020  -0.012  23.988  0.00  0.00    +0.130 C 
ATOM     12  C   UNL     1      -2.368   0.631  24.618  0.00  0.00    +0.034 A 
ATOM     13  C   UNL     1      -3.578   0.278  25.124  0.00  0.00    +0.002 A 
ATOM     14  C   UNL     1      -0.120   2.589  27.054  0.00  0.00    +0.302 C 
ATOM     16  C   UNL     1      -1.417  -1.561  25.236  0.00  0.00    +0.252 A 
ATOM     22  C   UNL     1      -3.738  -1.028  25.732  0.00  0.00    +0.015 A 
ATOM     23  C   UNL     1      -2.737  -1.905  25.811  0.00  0.00    +0.071 A 
ATOM     30  H   UNL     1       1.906   2.108  26.838  0.00  0.00    +0.151 HD
ENDROOT
BRANCH   5  15
ATOM     15  C   UNL     1       1.491   2.163  28.894  0.00  0.00    +0.074 C 
ATOM     17  C   UNL     1       2.840   1.469  29.103  0.00  0.00    +0.022 C 
ATOM     18  C   UNL     1       1.485   3.565  29.512  0.00  0.00    +0.022 C 
ATOM     19  C   UNL     1       4.017   2.324  28.634  0.00  0.00    +0.002 C 
ATOM     20  C   UNL     1       2.664   4.416  29.042  0.00  0.00    +0.002 C 
ATOM     21  C   UNL     1       3.996   3.710  29.272  0.00  0.00    +0.000 C 
ENDBRANCH   5  15
BRANCH  13  24
ATOM     24  C   UNL     1      -4.736   1.199  25.089  0.00  0.00    -0.016 A 
ATOM     25  C   UNL     1      -5.930   0.785  24.508  0.00  0.00    +0.008 A 
ATOM     26  C   UNL     1      -4.621   2.473  25.637  0.00  0.00    +0.008 A 
ATOM     27  C   UNL     1      -7.021   1.654  24.475  0.00  0.00    +0.001 A 
ATOM     28  C   UNL     1      -5.712   3.341  25.605  0.00  0.00    +0.001 A 
ATOM     29  C   UNL     1      -6.912   2.932  25.023  0.00  0.00    +0.000 A 
ENDBRANCH  13  24
TORSDOF 2
ENDMDL
MODEL 3
REMARK VINA RESULT:      11.7      2.231      6.812
REMARK  Name = 7155428
REMARK  2 active torsions:
REMARK  status: ('A' for Active; 'I' for Inactive)
REMARK    1  A    between atoms: N_5  and  C_15
REMARK    2  A    between atoms: C_13  and  C_24
REMARK                            x       y       z     vdW  Elec       q    Type
REMARK                         _______ _______ _______ _____ _____    ______ ____
ROOT
ATOM      1  O   UNL     1      -2.258   3.264  23.041  0.00  0.00    -0.253 OA
ATOM      2  O   UNL     1      -2.506  -1.165  26.951  0.00  0.00    -0.268 OA
ATOM      3  N   UNL     1      -1.174   3.299  25.093  0.00  0.00    -0.285 N 
ATOM      4  N   UNL     1      -0.859   0.285  26.132  0.00  0.00    -0.311 N 
ATOM      5  N   UNL     1      -3.494   3.718  24.919  0.00  0.00    -0.296 N 
ATOM      6  C   UNL     1      -0.316   2.497  27.305  0.00  0.00    +0.027 C 
ATOM      7  C   UNL     1       0.873   1.879  25.250  0.00  0.00    +0.054 C 
ATOM      8  C   UNL     1       1.064   2.320  26.698  0.00  0.00    +0.018 C 
ATOM      9  C   UNL     1      -1.136   3.553  26.540  0.00  0.00    +0.114 C 
ATOM     10  C   UNL     1       0.123   2.985  24.485  0.00  0.00    +0.119 C 
ATOM     11  C   UNL     1      -1.015   1.136  27.319  0.00  0.00    +0.130 C 
ATOM     12  C   UNL     1       0.114   0.553  25.149  0.00  0.00    +0.034 A 
ATOM     13  C   UNL     1       0.325  -0.339  24.147  0.00  0.00    +0.002 A 
ATOM     14  C   UNL     1      -2.306   3.415  24.267  0.00  0.00    +0.302 C 
ATOM     16  C   UNL     1      -1.656  -0.873  26.109  0.00  0.00    +0.252 A 
ATOM     22  C   UNL     1      -0.482  -1.542  24.086  0.00  0.00    +0.015 A 
ATOM     23  C   UNL     1      -1.428  -1.810  24.986  0.00  0.00    +0.071 A 
ATOM     30  H   UNL     1      -3.496   3.989  25.891  0.00  0.00    +0.151 HD
ENDROOT
BRANCH   5  15
ATOM     15  C   UNL     1      -4.744   3.876  24.209  0.00  0.00    +0.074 C 
ATOM     17  C   UNL     1      -5.052   2.640  23.357  0.00  0.00    +0.022 C 
ATOM     18  C   UNL     1      -5.891   4.185  25.175  0.00  0.00    +0.022 C 
ATOM     19  C   UNL     1      -5.451   1.431  24.203  0.00  0.00    +0.002 C 
ATOM     20  C   UNL     1      -6.289   2.973  26.018  0.00  0.00    +0.002 C 
ATOM     21  C   UNL     1      -6.602   1.760  25.148  0.00  0.00    +0.000 C 
ENDBRANCH   5  15
BRANCH  13  24
ATOM     24  C   UNL     1       1.346  -0.108  23.100  0.00  0.00    -0.016 A 
ATOM     25  C   UNL     1       1.119  -0.557  21.803  0.00  0.00    +0.008 A 
ATOM     26  C   UNL     1       2.526   0.556  23.421  0.00  0.00    +0.008 A 
ATOM     27  C   UNL     1       2.081  -0.340  20.817  0.00  0.00    +0.001 A 
ATOM     28  C   UNL     1       3.488   0.774  22.435  0.00  0.00    +0.001 A 
ATOM     29  C   UNL     1       3.266   0.326  21.133  0.00  0.00    +0.000 A 
ENDBRANCH  13  24
TORSDOF 2
ENDMDL
MODEL 4
REMARK VINA RESULT:      11.9      2.033      2.973
REMARK  Name = 7155428
REMARK  2 active torsions:
REMARK  status: ('A' for Active; 'I' for Inactive)
REMARK    1  A    between atoms: N_5  and  C_15
REMARK    2  A    between atoms: C_13  and  C_24
REMARK                            x       y       z     vdW  Elec       q    Type
REMARK                         _______ _______ _______ _____ _____    ______ ____
ROOT
ATOM      1  O   UNL     1       0.012   0.168  23.298  0.00  0.00    -0.253 OA
ATOM      2  O   UNL     1      -0.184   6.014  24.165  0.00  0.00    -0.268 OA
ATOM      3  N   UNL     1       0.206   1.165  25.385  0.00  0.00    -0.285 N 
ATOM      4  N   UNL     1      -1.041   4.111  25.229  0.00  0.00    -0.311 N 
ATOM      5  N   UNL     1       2.021   1.114  23.871  0.00  0.00    -0.296 N 
ATOM      6  C   UNL     1       0.223   2.957  27.135  0.00  0.00    +0.027 C 
ATOM      7  C   UNL     1      -1.918   2.043  26.357  0.00  0.00    +0.054 C 
ATOM      8  C   UNL     1      -1.155   2.512  27.593  0.00  0.00    +0.018 C 
ATOM      9  C   UNL     1       0.987   1.806  26.453  0.00  0.00    +0.114 C 
ATOM     10  C   UNL     1      -1.180   0.842  25.739  0.00  0.00    +0.119 C 
ATOM     11  C   UNL     1       0.057   4.159  26.203  0.00  0.00    +0.130 C 
ATOM     12  C   UNL     1      -2.076   3.161  25.323  0.00  0.00    +0.034 A 
ATOM     13  C   UNL     1      -3.148   3.245  24.492  0.00  0.00    +0.002 A 
ATOM     14  C   UNL     1       0.698   0.775  24.126  0.00  0.00    +0.302 C 
ATOM     16  C   UNL     1      -1.052   5.148  24.279  0.00  0.00    +0.252 A 
ATOM     22  C   UNL     1      -3.191   4.296  23.495  0.00  0.00    +0.015 A 
ATOM     23  C   UNL     1      -2.215   5.194  23.363  0.00  0.00    +0.071 A 
ATOM     30  H   UNL     1       2.615   1.470  24.604  0.00  0.00    +0.151 HD
ENDROOT
BRANCH   5  15
ATOM     15  C   UNL     1       2.674   0.780  22.624  0.00  0.00    +0.074 C 
ATOM     17  C   UNL     1       4.022   1.498  22.499  0.00  0.00    +0.022 C 
ATOM     18  C   UNL     1       2.836  -0.736  22.477  0.00  0.00    +0.022 C 
ATOM     19  C   UNL     1       5.080   0.925  23.442  0.00  0.00    +0.002 C 
ATOM     20  C   UNL     1       3.896  -1.306  23.421  0.00  0.00    +0.002 C 
ATOM     21  C   UNL     1       5.231  -0.583  23.269  0.00  0.00    +0.000 C 
ENDBRANCH   5  15
BRANCH  13  24
ATOM     24  C   UNL     1      -4.267   2.278  24.563  0.00  0.00    -0.016 A 
ATOM     25  C   UNL     1      -5.511   2.695  25.023  0.00  0.00    +0.008 A 
ATOM     26  C   UNL     1      -4.065   0.959  24.169  0.00  0.00    +0.008 A 
ATOM     27  C   UNL     1      -6.565   1.784  25.091  0.00  0.00    +0.001 A 
ATOM     28  C   UNL     1      -5.119   0.048  24.235  0.00  0.00    +0.001 A 
ATOM     29  C   UNL     1      -6.369   0.460  24.697  0.00  0.00    +0.000 A 
ENDBRANCH  13  24
TORSDOF 2
ENDMDL
MODEL 5
REMARK VINA RESULT:      12.9      2.611      6.208
REMARK  Name = 7155428
REMARK  2 active torsions:
REMARK  status: ('A' for Active; 'I' for Inactive)
REMARK    1  A    between atoms: N_5  and  C_15
REMARK    2  A    between atoms: C_13  and  C_24
REMARK                            x       y       z     vdW  Elec       q    Type
REMARK                         _______ _______ _______ _____ _____    ______ ____
ROOT
ATOM      1  O   UNL     1      -0.994  -1.680  26.103  0.00  0.00    -0.253 OA
ATOM      2  O   UNL     1      -3.175   3.098  23.385  0.00  0.00    -0.268 OA
ATOM      3  N   UNL     1       0.054  -0.624  24.321  0.00  0.00    -0.285 N 
ATOM      4  N   UNL     1      -1.068   2.368  24.104  0.00  0.00    -0.311 N 
ATOM      5  N   UNL     1      -1.788  -2.067  23.986  0.00  0.00    -0.296 N 
ATOM      6  C   UNL     1       0.510   1.085  22.547  0.00  0.00    +0.027 C 
ATOM      7  C   UNL     1       1.179   1.537  24.864  0.00  0.00    +0.054 C 
ATOM      8  C   UNL     1       1.614   1.674  23.408  0.00  0.00    +0.018 C 
ATOM      9  C   UNL     1       0.265  -0.399  22.883  0.00  0.00    +0.114 C 
ATOM     10  C   UNL     1       1.019   0.043  25.201  0.00  0.00    +0.119 C 
ATOM     11  C   UNL     1      -0.753   1.927  22.740  0.00  0.00    +0.130 C 
ATOM     12  C   UNL     1      -0.125   2.289  25.147  0.00  0.00    +0.034 A 
ATOM     13  C   UNL     1      -0.404   2.844  26.355  0.00  0.00    +0.002 A 
ATOM     14  C   UNL     1      -0.916  -1.470  24.887  0.00  0.00    +0.302 C 
ATOM     16  C   UNL     1      -2.322   2.984  24.266  0.00  0.00    +0.252 A 
ATOM     22  C   UNL     1      -1.690   3.482  26.562  0.00  0.00    +0.015 A 
ATOM     23  C   UNL     1      -2.614   3.549  25.603  0.00  0.00    +0.071 A 
ATOM     30  H   UNL     1      -1.623  -2.012  22.992  0.00  0.00    +0.151 HD
ENDROOT
BRANCH   5  15
ATOM     15  C   UNL     1      -2.838  -2.966  24.411  0.00  0.00    +0.074 C 
ATOM     17  C   UNL     1      -3.383  -2.565  25.786  0.00  0.00    +0.022 C 
ATOM     18  C   UNL     1      -3.957  -3.038  23.368  0.00  0.00    +0.022 C 
ATOM     19  C   UNL     1      -4.221  -1.288  25.732  0.00  0.00    +0.002 C 
ATOM     20  C   UNL     1      -4.794  -1.760  23.319  0.00  0.00    +0.002 C 
ATOM     21  C   UNL     1      -5.336  -1.388  24.696  0.00  0.00    +0.000 C 
ENDBRANCH   5  15
BRANCH  13  24
ATOM     24  C   UNL     1       0.561   2.799  27.476  0.00  0.00    -0.016 A 
ATOM     25  C   UNL     1       1.883   3.177  27.265  0.00  0.00    +0.008 A 
ATOM     26  C   UNL     1       0.140   2.376  28.733  0.00  0.00    +0.008 A 
ATOM     27  C   UNL     1       2.793   3.133  28.321  0.00  0.00    +0.001 A 
ATOM     28  C   UNL     1       1.049   2.333  29.790  0.00  0.00    +0.001 A 
ATOM     29  C   UNL     1       2.376   2.711  29.584  0.00  0.00    +0.000 A 
ENDBRANCH  13  24
TORSDOF 2
ENDMDL
