MODEL 1
REMARK VINA RESULT:      -4.4      0.000      0.000
REMARK  Name = 56775474
REMARK  8 active torsions:
REMARK  status: ('A' for Active; 'I' for Inactive)
REMARK    1  A    between atoms: O_4  and  C_21
REMARK    2  A    between atoms: O_4  and  C_27
REMARK    3  A    between atoms: N_5  and  C_7
REMARK    4  A    between atoms: N_5  and  C_11
REMARK    5  A    between atoms: C_7  and  C_10
REMARK    6  A    between atoms: C_10  and  C_12
REMARK    7  A    between atoms: C_11  and  C_13
REMARK    8  A    between atoms: C_15  and  C_18
REMARK                            x       y       z     vdW  Elec       q    Type
REMARK                         _______ _______ _______ _____ _____    ______ ____
ROOT
ATOM      2  O   UNL     1      -4.952  -7.696   9.336  0.00  0.00    -0.376 OA
ATOM      7  C   UNL     1      -4.926  -9.718  10.019  0.00  0.00    +0.072 C 
ATOM      8  C   UNL     1      -4.984  -8.326  10.638  0.00  0.00    +0.184 C 
ATOM      9  C   UNL     1      -4.801  -8.981   8.691  0.00  0.00    +0.184 C 
ENDROOT
BRANCH   7   5
ATOM      5  N   UNL     1      -6.250 -10.320  10.098  0.00  0.00    -0.302 NA
ATOM     28  H   UNL     1      -6.359 -11.033  10.818  0.00  0.00    +0.123 HD
BRANCH   5  11
ATOM     11  C   UNL     1      -7.257  -9.277  10.282  0.00  0.00    +0.117 C 
BRANCH  11  13
ATOM     13  C   UNL     1      -8.148  -9.561  11.462  0.00  0.00    -0.033 A 
ATOM     16  C   UNL     1      -7.667  -9.385  12.759  0.00  0.00    +0.008 A 
ATOM     17  C   UNL     1      -9.456 -10.001  11.257  0.00  0.00    +0.008 A 
ATOM     19  C   UNL     1      -8.493  -9.648  13.851  0.00  0.00    +0.046 A 
ATOM     20  C   UNL     1     -10.283 -10.264  12.350  0.00  0.00    +0.046 A 
ATOM     21  C   UNL     1      -9.801 -10.087  13.647  0.00  0.00    +0.120 A 
BRANCH  21   4
ATOM      4  O   UNL     1     -10.607 -10.344  14.712  0.00  0.00    -0.495 OA
ATOM     27  C   UNL     1     -10.241  -9.757  15.961  0.00  0.00    +0.277 C 
ENDBRANCH  21   4
ENDBRANCH  11  13
ENDBRANCH   5  11
ENDBRANCH   7   5
BRANCH   7  10
ATOM     10  C   UNL     1      -3.806 -10.676  10.448  0.00  0.00    +0.085 C 
BRANCH  10  12
ATOM      3  O   UNL     1      -2.679 -10.780  13.835  0.00  0.00    -0.354 OA
ATOM      6  N   UNL     1      -2.452 -10.763  12.465  0.00  0.00    -0.083 NA
ATOM     12  C   UNL     1      -3.666 -10.708  11.912  0.00  0.00    +0.086 A 
ATOM     14  C   UNL     1      -4.690 -10.691  12.876  0.00  0.00    +0.076 A 
ATOM     15  C   UNL     1      -4.016 -10.737  14.067  0.00  0.00    +0.167 A 
BRANCH  15  18
ATOM      1  F   UNL     1      -5.547 -10.781  19.424  0.00  0.00    -0.205 F 
ATOM     18  C   UNL     1      -4.412 -10.748  15.454  0.00  0.00    +0.020 A 
ATOM     22  C   UNL     1      -3.443 -10.744  16.457  0.00  0.00    +0.014 A 
ATOM     23  C   UNL     1      -5.766 -10.761  15.793  0.00  0.00    +0.014 A 
ATOM     24  C   UNL     1      -3.826 -10.755  17.798  0.00  0.00    +0.039 A 
ATOM     25  C   UNL     1      -6.148 -10.773  17.135  0.00  0.00    +0.039 A 
ATOM     26  C   UNL     1      -5.179 -10.770  18.137  0.00  0.00    +0.123 A 
ENDBRANCH  15  18
ENDBRANCH  10  12
ENDBRANCH   7  10
TORSDOF 7
ENDMDL
MODEL 2
REMARK VINA RESULT:      -3.8     14.808     17.193
REMARK  Name = 56775474
REMARK  8 active torsions:
REMARK  status: ('A' for Active; 'I' for Inactive)
REMARK    1  A    between atoms: O_4  and  C_21
REMARK    2  A    between atoms: O_4  and  C_27
REMARK    3  A    between atoms: N_5  and  C_7
REMARK    4  A    between atoms: N_5  and  C_11
REMARK    5  A    between atoms: C_7  and  C_10
REMARK    6  A    between atoms: C_10  and  C_12
REMARK    7  A    between atoms: C_11  and  C_13
REMARK    8  A    between atoms: C_15  and  C_18
REMARK                            x       y       z     vdW  Elec       q    Type
REMARK                         _______ _______ _______ _____ _____    ______ ____
ROOT
ATOM      2  O   UNL     1      -3.550  -3.043  24.532  0.00  0.00    -0.376 OA
ATOM      7  C   UNL     1      -3.445  -0.921  24.331  0.00  0.00    +0.072 C 
ATOM      8  C   UNL     1      -4.350  -2.049  23.852  0.00  0.00    +0.184 C 
ATOM      9  C   UNL     1      -2.600  -2.033  24.942  0.00  0.00    +0.184 C 
ENDROOT
BRANCH   7   5
ATOM      5  N   UNL     1      -4.120  -0.203  25.404  0.00  0.00    -0.302 NA
ATOM     28  H   UNL     1      -3.513   0.126  26.154  0.00  0.00    +0.123 HD
BRANCH   5  11
ATOM     11  C   UNL     1      -4.873   0.920  24.850  0.00  0.00    +0.117 C 
BRANCH  11  13
ATOM     13  C   UNL     1      -4.089   2.204  24.912  0.00  0.00    -0.033 A 
ATOM     16  C   UNL     1      -3.531   2.625  26.119  0.00  0.00    +0.008 A 
ATOM     17  C   UNL     1      -3.920   2.973  23.760  0.00  0.00    +0.008 A 
ATOM     19  C   UNL     1      -2.805   3.814  26.175  0.00  0.00    +0.046 A 
ATOM     20  C   UNL     1      -3.193   4.163  23.815  0.00  0.00    +0.046 A 
ATOM     21  C   UNL     1      -2.636   4.583  25.023  0.00  0.00    +0.120 A 
BRANCH  21   4
ATOM      4  O   UNL     1      -1.927   5.743  25.078  0.00  0.00    -0.495 OA
ATOM     27  C   UNL     1      -0.545   5.677  24.727  0.00  0.00    +0.277 C 
ENDBRANCH  21   4
ENDBRANCH  11  13
ENDBRANCH   5  11
ENDBRANCH   7   5
BRANCH   7  10
ATOM     10  C   UNL     1      -2.809   0.014  23.294  0.00  0.00    +0.085 C 
BRANCH  10  12
ATOM      3  O   UNL     1       0.379   0.971  24.590  0.00  0.00    -0.354 OA
ATOM      6  N   UNL     1      -1.010   0.980  24.614  0.00  0.00    -0.083 NA
ATOM     12  C   UNL     1      -1.380   0.227  23.575  0.00  0.00    +0.086 A 
ATOM     14  C   UNL     1      -0.277  -0.279  22.864  0.00  0.00    +0.076 A 
ATOM     15  C   UNL     1       0.803   0.218  23.543  0.00  0.00    +0.167 A 
BRANCH  15  18
ATOM      1  F   UNL     1       6.326  -0.194  22.934  0.00  0.00    -0.205 F 
ATOM     18  C   UNL     1       2.233   0.112  23.386  0.00  0.00    +0.020 A 
ATOM     22  C   UNL     1       2.961   1.186  22.874  0.00  0.00    +0.014 A 
ATOM     23  C   UNL     1       2.889  -1.065  23.747  0.00  0.00    +0.014 A 
ATOM     24  C   UNL     1       4.343   1.083  22.722  0.00  0.00    +0.039 A 
ATOM     25  C   UNL     1       4.271  -1.168  23.594  0.00  0.00    +0.039 A 
ATOM     26  C   UNL     1       4.999  -0.094  23.081  0.00  0.00    +0.123 A 
ENDBRANCH  15  18
ENDBRANCH  10  12
ENDBRANCH   7  10
TORSDOF 7
ENDMDL
MODEL 3
REMARK VINA RESULT:      -3.7     15.503     17.349
REMARK  Name = 56775474
REMARK  8 active torsions:
REMARK  status: ('A' for Active; 'I' for Inactive)
REMARK    1  A    between atoms: O_4  and  C_21
REMARK    2  A    between atoms: O_4  and  C_27
REMARK    3  A    between atoms: N_5  and  C_7
REMARK    4  A    between atoms: N_5  and  C_11
REMARK    5  A    between atoms: C_7  and  C_10
REMARK    6  A    between atoms: C_10  and  C_12
REMARK    7  A    between atoms: C_11  and  C_13
REMARK    8  A    between atoms: C_15  and  C_18
REMARK                            x       y       z     vdW  Elec       q    Type
REMARK                         _______ _______ _______ _____ _____    ______ ____
ROOT
ATOM      2  O   UNL     1       4.674   0.125  22.747  0.00  0.00    -0.376 OA
ATOM      7  C   UNL     1       2.556   0.230  22.982  0.00  0.00    +0.072 C 
ATOM      8  C   UNL     1       3.695  -0.661  23.464  0.00  0.00    +0.184 C 
ATOM      9  C   UNL     1       3.632   0.951  22.179  0.00  0.00    +0.184 C 
ENDROOT
BRANCH   7   5
ATOM      5  N   UNL     1       2.136   1.089  24.081  0.00  0.00    -0.302 NA
ATOM     28  H   UNL     1       2.874   1.344  24.737  0.00  0.00    +0.123 HD
BRANCH   5  11
ATOM     11  C   UNL     1       1.508   2.299  23.552  0.00  0.00    +0.117 C 
BRANCH  11  13
ATOM     13  C   UNL     1       0.393   2.784  24.438  0.00  0.00    -0.033 A 
ATOM     16  C   UNL     1       0.169   2.177  25.674  0.00  0.00    +0.008 A 
ATOM     17  C   UNL     1      -0.417   3.842  24.023  0.00  0.00    +0.008 A 
ATOM     19  C   UNL     1      -0.865   2.628  26.495  0.00  0.00    +0.046 A 
ATOM     20  C   UNL     1      -1.450   4.293  24.844  0.00  0.00    +0.046 A 
ATOM     21  C   UNL     1      -1.674   3.685  26.080  0.00  0.00    +0.120 A 
BRANCH  21   4
ATOM      4  O   UNL     1      -2.683   4.125  26.881  0.00  0.00    -0.495 OA
ATOM     27  C   UNL     1      -3.907   4.489  26.244  0.00  0.00    +0.277 C 
ENDBRANCH  21   4
ENDBRANCH  11  13
ENDBRANCH   5  11
ENDBRANCH   7   5
BRANCH   7  10
ATOM     10  C   UNL     1       1.375  -0.409  22.238  0.00  0.00    +0.085 C 
BRANCH  10  12
ATOM      3  O   UNL     1      -1.277  -0.714  24.610  0.00  0.00    -0.354 OA
ATOM      6  N   UNL     1      -0.021  -1.050  24.124  0.00  0.00    -0.083 NA
ATOM     12  C   UNL     1       0.135  -0.308  23.024  0.00  0.00    +0.086 A 
ATOM     14  C   UNL     1      -0.982   0.508  22.769  0.00  0.00    +0.076 A 
ATOM     15  C   UNL     1      -1.840   0.214  23.795  0.00  0.00    +0.167 A 
BRANCH  15  18
ATOM      1  F   UNL     1      -6.923   1.959  25.266  0.00  0.00    -0.205 F 
ATOM     18  C   UNL     1      -3.156   0.666  24.175  0.00  0.00    +0.020 A 
ATOM     22  C   UNL     1      -3.648   1.875  23.684  0.00  0.00    +0.014 A 
ATOM     23  C   UNL     1      -3.939  -0.108  25.033  0.00  0.00    +0.014 A 
ATOM     24  C   UNL     1      -4.920   2.313  24.052  0.00  0.00    +0.039 A 
ATOM     25  C   UNL     1      -5.210   0.330  25.402  0.00  0.00    +0.039 A 
ATOM     26  C   UNL     1      -5.702   1.540  24.912  0.00  0.00    +0.123 A 
ENDBRANCH  15  18
ENDBRANCH  10  12
ENDBRANCH   7  10
TORSDOF 7
ENDMDL
MODEL 4
REMARK VINA RESULT:      -3.6     14.905     17.364
REMARK  Name = 56775474
REMARK  8 active torsions:
REMARK  status: ('A' for Active; 'I' for Inactive)
REMARK    1  A    between atoms: O_4  and  C_21
REMARK    2  A    between atoms: O_4  and  C_27
REMARK    3  A    between atoms: N_5  and  C_7
REMARK    4  A    between atoms: N_5  and  C_11
REMARK    5  A    between atoms: C_7  and  C_10
REMARK    6  A    between atoms: C_10  and  C_12
REMARK    7  A    between atoms: C_11  and  C_13
REMARK    8  A    between atoms: C_15  and  C_18
REMARK                            x       y       z     vdW  Elec       q    Type
REMARK                         _______ _______ _______ _____ _____    ______ ____
ROOT
ATOM      2  O   UNL     1      -6.477   4.576  25.794  0.00  0.00    -0.376 OA
ATOM      7  C   UNL     1      -4.577   3.635  25.549  0.00  0.00    +0.072 C 
ATOM      8  C   UNL     1      -5.881   3.353  26.286  0.00  0.00    +0.184 C 
ATOM      9  C   UNL     1      -5.239   4.949  25.149  0.00  0.00    +0.184 C 
ENDROOT
BRANCH   7   5
ATOM      5  N   UNL     1      -4.505   2.772  24.379  0.00  0.00    -0.302 NA
ATOM     28  H   UNL     1      -3.562   2.575  24.043  0.00  0.00    +0.123 HD
BRANCH   5  11
ATOM     11  C   UNL     1      -5.203   1.516  24.646  0.00  0.00    +0.117 C 
BRANCH  11  13
ATOM     13  C   UNL     1      -4.257   0.346  24.687  0.00  0.00    -0.033 A 
ATOM     16  C   UNL     1      -4.044  -0.339  25.883  0.00  0.00    +0.008 A 
ATOM     17  C   UNL     1      -3.591  -0.052  23.527  0.00  0.00    +0.008 A 
ATOM     19  C   UNL     1      -3.167  -1.423  25.919  0.00  0.00    +0.046 A 
ATOM     20  C   UNL     1      -2.714  -1.136  23.563  0.00  0.00    +0.046 A 
ATOM     21  C   UNL     1      -2.502  -1.821  24.759  0.00  0.00    +0.120 A 
BRANCH  21   4
ATOM      4  O   UNL     1      -1.647  -2.879  24.795  0.00  0.00    -0.495 OA
ATOM     27  C   UNL     1      -0.358  -2.653  25.365  0.00  0.00    +0.277 C 
ENDBRANCH  21   4
ENDBRANCH  11  13
ENDBRANCH   5  11
ENDBRANCH   7   5
BRANCH   7  10
ATOM     10  C   UNL     1      -3.266   3.674  26.347  0.00  0.00    +0.085 C 
BRANCH  10  12
ATOM      3  O   UNL     1      -0.511   3.663  24.075  0.00  0.00    -0.354 OA
ATOM      6  N   UNL     1      -1.549   4.300  24.744  0.00  0.00    -0.083 NA
ATOM     12  C   UNL     1      -2.114   3.348  25.491  0.00  0.00    +0.086 A 
ATOM     14  C   UNL     1      -1.483   2.101  25.335  0.00  0.00    +0.076 A 
ATOM     15  C   UNL     1      -0.482   2.354  24.435  0.00  0.00    +0.167 A 
BRANCH  15  18
ATOM      1  F   UNL     1       3.509  -0.723  22.059  0.00  0.00    -0.205 F 
ATOM     18  C   UNL     1       0.550   1.558  23.819  0.00  0.00    +0.020 A 
ATOM     22  C   UNL     1       0.251   0.289  23.322  0.00  0.00    +0.014 A 
ATOM     23  C   UNL     1       1.850   2.056  23.719  0.00  0.00    +0.014 A 
ATOM     24  C   UNL     1       1.249  -0.481  22.727  0.00  0.00    +0.039 A 
ATOM     25  C   UNL     1       2.849   1.285  23.125  0.00  0.00    +0.039 A 
ATOM     26  C   UNL     1       2.549   0.016  22.629  0.00  0.00    +0.123 A 
ENDBRANCH  15  18
ENDBRANCH  10  12
ENDBRANCH   7  10
TORSDOF 7
ENDMDL
MODEL 5
REMARK VINA RESULT:      -2.9     14.439     16.819
REMARK  Name = 56775474
REMARK  8 active torsions:
REMARK  status: ('A' for Active; 'I' for Inactive)
REMARK    1  A    between atoms: O_4  and  C_21
REMARK    2  A    between atoms: O_4  and  C_27
REMARK    3  A    between atoms: N_5  and  C_7
REMARK    4  A    between atoms: N_5  and  C_11
REMARK    5  A    between atoms: C_7  and  C_10
REMARK    6  A    between atoms: C_10  and  C_12
REMARK    7  A    between atoms: C_11  and  C_13
REMARK    8  A    between atoms: C_15  and  C_18
REMARK                            x       y       z     vdW  Elec       q    Type
REMARK                         _______ _______ _______ _____ _____    ______ ____
ROOT
ATOM      2  O   UNL     1      -1.330   4.913  25.350  0.00  0.00    -0.376 OA
ATOM      7  C   UNL     1      -2.318   3.096  24.826  0.00  0.00    +0.072 C 
ATOM      8  C   UNL     1      -1.001   3.510  25.472  0.00  0.00    +0.184 C 
ATOM      9  C   UNL     1      -2.552   4.591  24.647  0.00  0.00    +0.184 C 
ENDROOT
BRANCH   7   5
ATOM      5  N   UNL     1      -3.213   2.602  25.864  0.00  0.00    -0.302 NA
ATOM     28  H   UNL     1      -3.535   3.306  26.528  0.00  0.00    +0.123 HD
BRANCH   5  11
ATOM     11  C   UNL     1      -4.363   1.939  25.252  0.00  0.00    +0.117 C 
BRANCH  11  13
ATOM     13  C   UNL     1      -4.123   0.466  25.060  0.00  0.00    -0.033 A 
ATOM     16  C   UNL     1      -3.446  -0.264  26.037  0.00  0.00    +0.008 A 
ATOM     17  C   UNL     1      -4.578  -0.170  23.904  0.00  0.00    +0.008 A 
ATOM     19  C   UNL     1      -3.225  -1.630  25.859  0.00  0.00    +0.046 A 
ATOM     20  C   UNL     1      -4.357  -1.535  23.726  0.00  0.00    +0.046 A 
ATOM     21  C   UNL     1      -3.680  -2.265  24.703  0.00  0.00    +0.120 A 
BRANCH  21   4
ATOM      4  O   UNL     1      -3.464  -3.597  24.530  0.00  0.00    -0.495 OA
ATOM     27  C   UNL     1      -2.520  -3.978  23.529  0.00  0.00    +0.277 C 
ENDBRANCH  21   4
ENDBRANCH  11  13
ENDBRANCH   5  11
ENDBRANCH   7   5
BRANCH   7  10
ATOM     10  C   UNL     1      -2.286   2.193  23.585  0.00  0.00    +0.085 C 
BRANCH  10  12
ATOM      3  O   UNL     1       0.195  -0.376  23.567  0.00  0.00    -0.354 OA
ATOM      6  N   UNL     1      -1.122   0.059  23.639  0.00  0.00    -0.083 NA
ATOM     12  C   UNL     1      -1.054   1.390  23.544  0.00  0.00    +0.086 A 
ATOM     14  C   UNL     1       0.269   1.847  23.413  0.00  0.00    +0.076 A 
ATOM     15  C   UNL     1       1.015   0.698  23.433  0.00  0.00    +0.167 A 
BRANCH  15  18
ATOM      1  F   UNL     1       6.459  -0.434  23.087  0.00  0.00    -0.205 F 
ATOM     18  C   UNL     1       2.423   0.404  23.343  0.00  0.00    +0.020 A 
ATOM     22  C   UNL     1       2.895  -0.865  23.675  0.00  0.00    +0.014 A 
ATOM     23  C   UNL     1       3.317   1.391  22.922  0.00  0.00    +0.014 A 
ATOM     24  C   UNL     1       4.257  -1.149  23.589  0.00  0.00    +0.039 A 
ATOM     25  C   UNL     1       4.679   1.107  22.837  0.00  0.00    +0.039 A 
ATOM     26  C   UNL     1       5.150  -0.163  23.170  0.00  0.00    +0.123 A 
ENDBRANCH  15  18
ENDBRANCH  10  12
ENDBRANCH   7  10
TORSDOF 7
ENDMDL
MODEL 6
REMARK VINA RESULT:      -1.9     14.936     17.522
REMARK  Name = 56775474
REMARK  8 active torsions:
REMARK  status: ('A' for Active; 'I' for Inactive)
REMARK    1  A    between atoms: O_4  and  C_21
REMARK    2  A    between atoms: O_4  and  C_27
REMARK    3  A    between atoms: N_5  and  C_7
REMARK    4  A    between atoms: N_5  and  C_11
REMARK    5  A    between atoms: C_7  and  C_10
REMARK    6  A    between atoms: C_10  and  C_12
REMARK    7  A    between atoms: C_11  and  C_13
REMARK    8  A    between atoms: C_15  and  C_18
REMARK                            x       y       z     vdW  Elec       q    Type
REMARK                         _______ _______ _______ _____ _____    ______ ____
ROOT
ATOM      2  O   UNL     1      -6.646   4.448  26.069  0.00  0.00    -0.376 OA
ATOM      7  C   UNL     1      -4.642   4.355  25.341  0.00  0.00    +0.072 C 
ATOM      8  C   UNL     1      -5.706   5.423  25.561  0.00  0.00    +0.184 C 
ATOM      9  C   UNL     1      -5.716   3.374  25.797  0.00  0.00    +0.184 C 
ENDROOT
BRANCH   7   5
ATOM      5  N   UNL     1      -3.638   4.471  26.390  0.00  0.00    -0.302 NA
ATOM     28  H   UNL     1      -3.392   3.596  26.853  0.00  0.00    +0.123 HD
BRANCH   5  11
ATOM     11  C   UNL     1      -2.433   5.100  25.854  0.00  0.00    +0.117 C 
BRANCH  11  13
ATOM     13  C   UNL     1      -1.434   4.081  25.378  0.00  0.00    -0.033 A 
ATOM     16  C   UNL     1      -0.634   4.352  24.268  0.00  0.00    +0.008 A 
ATOM     17  C   UNL     1      -1.308   2.863  26.047  0.00  0.00    +0.008 A 
ATOM     19  C   UNL     1       0.293   3.407  23.828  0.00  0.00    +0.046 A 
ATOM     20  C   UNL     1      -0.382   1.917  25.606  0.00  0.00    +0.046 A 
ATOM     21  C   UNL     1       0.418   2.190  24.496  0.00  0.00    +0.120 A 
BRANCH  21   4
ATOM      4  O   UNL     1       1.322   1.267  24.067  0.00  0.00    -0.495 OA
ATOM     27  C   UNL     1       0.822   0.183  23.284  0.00  0.00    +0.277 C 
ENDBRANCH  21   4
ENDBRANCH  11  13
ENDBRANCH   5  11
ENDBRANCH   7   5
BRANCH   7  10
ATOM     10  C   UNL     1      -4.030   4.192  23.943  0.00  0.00    +0.085 C 
BRANCH  10  12
ATOM      3  O   UNL     1      -2.794   1.096  22.662  0.00  0.00    -0.354 OA
ATOM      6  N   UNL     1      -2.928   2.478  22.617  0.00  0.00    -0.083 NA
ATOM     12  C   UNL     1      -3.682   2.788  23.675  0.00  0.00    +0.086 A 
ATOM     14  C   UNL     1      -4.050   1.652  24.418  0.00  0.00    +0.076 A 
ATOM     15  C   UNL     1      -3.467   0.616  23.739  0.00  0.00    +0.167 A 
BRANCH  15  18
ATOM      1  F   UNL     1      -3.282  -4.908  24.440  0.00  0.00    -0.205 F 
ATOM     18  C   UNL     1      -3.419  -0.814  23.922  0.00  0.00    +0.020 A 
ATOM     22  C   UNL     1      -2.247  -1.421  24.372  0.00  0.00    +0.014 A 
ATOM     23  C   UNL     1      -4.546  -1.591  23.647  0.00  0.00    +0.014 A 
ATOM     24  C   UNL     1      -2.200  -2.804  24.548  0.00  0.00    +0.039 A 
ATOM     25  C   UNL     1      -4.498  -2.974  23.822  0.00  0.00    +0.039 A 
ATOM     26  C   UNL     1      -3.326  -3.581  24.272  0.00  0.00    +0.123 A 
ENDBRANCH  15  18
ENDBRANCH  10  12
ENDBRANCH   7  10
TORSDOF 7
ENDMDL
MODEL 7
REMARK VINA RESULT:      -1.7     14.713     17.351
REMARK  Name = 56775474
REMARK  8 active torsions:
REMARK  status: ('A' for Active; 'I' for Inactive)
REMARK    1  A    between atoms: O_4  and  C_21
REMARK    2  A    between atoms: O_4  and  C_27
REMARK    3  A    between atoms: N_5  and  C_7
REMARK    4  A    between atoms: N_5  and  C_11
REMARK    5  A    between atoms: C_7  and  C_10
REMARK    6  A    between atoms: C_10  and  C_12
REMARK    7  A    between atoms: C_11  and  C_13
REMARK    8  A    between atoms: C_15  and  C_18
REMARK                            x       y       z     vdW  Elec       q    Type
REMARK                         _______ _______ _______ _____ _____    ______ ____
ROOT
ATOM      2  O   UNL     1      -0.615   6.175  24.484  0.00  0.00    -0.376 OA
ATOM      7  C   UNL     1      -2.134   4.768  25.001  0.00  0.00    +0.072 C 
ATOM      8  C   UNL     1      -0.965   4.849  24.027  0.00  0.00    +0.184 C 
ATOM      9  C   UNL     1      -1.763   6.202  25.363  0.00  0.00    +0.184 C 
ENDROOT
BRANCH   7   5
ATOM      5  N   UNL     1      -1.764   3.895  26.106  0.00  0.00    -0.302 NA
ATOM     28  H   UNL     1      -2.388   3.104  26.262  0.00  0.00    +0.123 HD
BRANCH   5  11
ATOM     11  C   UNL     1      -0.397   3.412  25.918  0.00  0.00    +0.117 C 
BRANCH  11  13
ATOM     13  C   UNL     1      -0.368   1.989  25.429  0.00  0.00    -0.033 A 
ATOM     16  C   UNL     1       0.032   1.708  24.123  0.00  0.00    +0.008 A 
ATOM     17  C   UNL     1      -0.741   0.951  26.284  0.00  0.00    +0.008 A 
ATOM     19  C   UNL     1       0.059   0.388  23.671  0.00  0.00    +0.046 A 
ATOM     20  C   UNL     1      -0.714  -0.368  25.832  0.00  0.00    +0.046 A 
ATOM     21  C   UNL     1      -0.314  -0.649  24.525  0.00  0.00    +0.120 A 
BRANCH  21   4
ATOM      4  O   UNL     1      -0.288  -1.936  24.084  0.00  0.00    -0.495 OA
ATOM     27  C   UNL     1      -0.264  -2.963  25.076  0.00  0.00    +0.277 C 
ENDBRANCH  21   4
ENDBRANCH  11  13
ENDBRANCH   5  11
ENDBRANCH   7   5
BRANCH   7  10
ATOM     10  C   UNL     1      -3.539   4.478  24.454  0.00  0.00    +0.085 C 
BRANCH  10  12
ATOM      3  O   UNL     1      -5.041   1.399  25.465  0.00  0.00    -0.354 OA
ATOM      6  N   UNL     1      -4.965   2.786  25.463  0.00  0.00    -0.083 NA
ATOM     12  C   UNL     1      -3.919   3.075  24.684  0.00  0.00    +0.086 A 
ATOM     14  C   UNL     1      -3.301   1.920  24.171  0.00  0.00    +0.076 A 
ATOM     15  C   UNL     1      -4.046   0.895  24.692  0.00  0.00    +0.167 A 
BRANCH  15  18
ATOM      1  F   UNL     1      -3.851  -4.660  24.308  0.00  0.00    -0.205 F 
ATOM     18  C   UNL     1      -3.996  -0.543  24.593  0.00  0.00    +0.020 A 
ATOM     22  C   UNL     1      -3.561  -1.303  25.679  0.00  0.00    +0.014 A 
ATOM     23  C   UNL     1      -4.384  -1.175  23.411  0.00  0.00    +0.014 A 
ATOM     24  C   UNL     1      -3.512  -2.693  25.583  0.00  0.00    +0.039 A 
ATOM     25  C   UNL     1      -4.334  -2.566  23.316  0.00  0.00    +0.039 A 
ATOM     26  C   UNL     1      -3.898  -3.325  24.401  0.00  0.00    +0.123 A 
ENDBRANCH  15  18
ENDBRANCH  10  12
ENDBRANCH   7  10
TORSDOF 7
ENDMDL
MODEL 8
REMARK VINA RESULT:      -1.6     14.887     17.504
REMARK  Name = 56775474
REMARK  8 active torsions:
REMARK  status: ('A' for Active; 'I' for Inactive)
REMARK    1  A    between atoms: O_4  and  C_21
REMARK    2  A    between atoms: O_4  and  C_27
REMARK    3  A    between atoms: N_5  and  C_7
REMARK    4  A    between atoms: N_5  and  C_11
REMARK    5  A    between atoms: C_7  and  C_10
REMARK    6  A    between atoms: C_10  and  C_12
REMARK    7  A    between atoms: C_11  and  C_13
REMARK    8  A    between atoms: C_15  and  C_18
REMARK                            x       y       z     vdW  Elec       q    Type
REMARK                         _______ _______ _______ _____ _____    ______ ____
ROOT
ATOM      2  O   UNL     1       0.613  -2.968  25.669  0.00  0.00    -0.376 OA
ATOM      7  C   UNL     1      -1.209  -2.296  24.783  0.00  0.00    +0.072 C 
ATOM      8  C   UNL     1      -0.336  -1.921  25.975  0.00  0.00    +0.184 C 
ATOM      9  C   UNL     1      -0.216  -3.435  24.580  0.00  0.00    +0.184 C 
ENDROOT
BRANCH   7   5
ATOM      5  N   UNL     1      -1.011  -1.310  23.730  0.00  0.00    -0.302 NA
ATOM     28  H   UNL     1      -1.827  -0.738  23.513  0.00  0.00    +0.123 HD
BRANCH   5  11
ATOM     11  C   UNL     1       0.119  -0.446  24.066  0.00  0.00    +0.117 C 
BRANCH  11  13
ATOM     13  C   UNL     1      -0.329   0.937  24.455  0.00  0.00    -0.033 A 
ATOM     16  C   UNL     1      -0.193   1.370  25.773  0.00  0.00    +0.008 A 
ATOM     17  C   UNL     1      -0.881   1.786  23.495  0.00  0.00    +0.008 A 
ATOM     19  C   UNL     1      -0.609   2.653  26.132  0.00  0.00    +0.046 A 
ATOM     20  C   UNL     1      -1.297   3.068  23.854  0.00  0.00    +0.046 A 
ATOM     21  C   UNL     1      -1.161   3.501  25.173  0.00  0.00    +0.120 A 
BRANCH  21   4
ATOM      4  O   UNL     1      -1.566   4.752  25.523  0.00  0.00    -0.495 OA
ATOM     27  C   UNL     1      -1.127   5.832  24.699  0.00  0.00    +0.277 C 
ENDBRANCH  21   4
ENDBRANCH  11  13
ENDBRANCH   5  11
ENDBRANCH   7   5
BRANCH   7  10
ATOM     10  C   UNL     1      -2.688  -2.630  25.020  0.00  0.00    +0.085 C 
BRANCH  10  12
ATOM      3  O   UNL     1      -5.125  -0.223  24.011  0.00  0.00    -0.354 OA
ATOM      6  N   UNL     1      -4.540  -1.481  23.944  0.00  0.00    -0.083 NA
ATOM     12  C   UNL     1      -3.538  -1.445  24.826  0.00  0.00    +0.086 A 
ATOM     14  C   UNL     1      -3.442  -0.200  25.473  0.00  0.00    +0.076 A 
ATOM     15  C   UNL     1      -4.462   0.531  24.926  0.00  0.00    +0.167 A 
BRANCH  15  18
ATOM      1  F   UNL     1      -6.380   5.714  25.633  0.00  0.00    -0.205 F 
ATOM     18  C   UNL     1      -4.958   1.873  25.110  0.00  0.00    +0.020 A 
ATOM     22  C   UNL     1      -6.040   2.107  25.958  0.00  0.00    +0.014 A 
ATOM     23  C   UNL     1      -4.356   2.938  24.439  0.00  0.00    +0.014 A 
ATOM     24  C   UNL     1      -6.520   3.404  26.136  0.00  0.00    +0.039 A 
ATOM     25  C   UNL     1      -4.837   4.235  24.616  0.00  0.00    +0.039 A 
ATOM     26  C   UNL     1      -5.919   4.469  25.464  0.00  0.00    +0.123 A 
ENDBRANCH  15  18
ENDBRANCH  10  12
ENDBRANCH   7  10
TORSDOF 7
ENDMDL
MODEL 9
REMARK VINA RESULT:      -0.7     14.720     17.342
REMARK  Name = 56775474
REMARK  8 active torsions:
REMARK  status: ('A' for Active; 'I' for Inactive)
REMARK    1  A    between atoms: O_4  and  C_21
REMARK    2  A    between atoms: O_4  and  C_27
REMARK    3  A    between atoms: N_5  and  C_7
REMARK    4  A    between atoms: N_5  and  C_11
REMARK    5  A    between atoms: C_7  and  C_10
REMARK    6  A    between atoms: C_10  and  C_12
REMARK    7  A    between atoms: C_11  and  C_13
REMARK    8  A    between atoms: C_15  and  C_18
REMARK                            x       y       z     vdW  Elec       q    Type
REMARK                         _______ _______ _______ _____ _____    ______ ____
ROOT
ATOM      2  O   UNL     1      -5.488   5.220  26.452  0.00  0.00    -0.376 OA
ATOM      7  C   UNL     1      -5.416   3.529  25.152  0.00  0.00    +0.072 C 
ATOM      8  C   UNL     1      -6.189   4.840  25.246  0.00  0.00    +0.184 C 
ATOM      9  C   UNL     1      -4.789   3.955  26.474  0.00  0.00    +0.184 C 
ENDROOT
BRANCH   7   5
ATOM      5  N   UNL     1      -4.417   3.650  24.099  0.00  0.00    -0.302 NA
ATOM     28  H   UNL     1      -4.709   4.190  23.284  0.00  0.00    +0.123 HD
BRANCH   5  11
ATOM     11  C   UNL     1      -3.185   4.215  24.648  0.00  0.00    +0.117 C 
BRANCH  11  13
ATOM     13  C   UNL     1      -2.009   3.298  24.445  0.00  0.00    -0.033 A 
ATOM     16  C   UNL     1      -0.970   3.279  25.374  0.00  0.00    +0.008 A 
ATOM     17  C   UNL     1      -1.960   2.466  23.325  0.00  0.00    +0.008 A 
ATOM     19  C   UNL     1       0.120   2.429  25.185  0.00  0.00    +0.046 A 
ATOM     20  C   UNL     1      -0.870   1.615  23.136  0.00  0.00    +0.046 A 
ATOM     21  C   UNL     1       0.169   1.597  24.066  0.00  0.00    +0.120 A 
BRANCH  21   4
ATOM      4  O   UNL     1       1.232   0.768  23.882  0.00  0.00    -0.495 OA
ATOM     27  C   UNL     1       1.102  -0.242  22.881  0.00  0.00    +0.277 C 
ENDBRANCH  21   4
ENDBRANCH  11  13
ENDBRANCH   5  11
ENDBRANCH   7   5
BRANCH   7  10
ATOM     10  C   UNL     1      -6.196   2.209  25.088  0.00  0.00    +0.085 C 
BRANCH  10  12
ATOM      3  O   UNL     1      -4.600  -0.879  24.267  0.00  0.00    -0.354 OA
ATOM      6  N   UNL     1      -5.675  -0.001  24.218  0.00  0.00    -0.083 NA
ATOM     12  C   UNL     1      -5.287   1.063  24.926  0.00  0.00    +0.086 A 
ATOM     14  C   UNL     1      -3.988   0.914  25.443  0.00  0.00    +0.076 A 
ATOM     15  C   UNL     1      -3.601  -0.323  25.000  0.00  0.00    +0.167 A 
BRANCH  15  18
ATOM      1  F   UNL     1       1.007  -3.406  25.547  0.00  0.00    -0.205 F 
ATOM     18  C   UNL     1      -2.408  -1.121  25.140  0.00  0.00    +0.020 A 
ATOM     22  C   UNL     1      -2.240  -2.268  24.366  0.00  0.00    +0.014 A 
ATOM     23  C   UNL     1      -1.420  -0.744  26.051  0.00  0.00    +0.014 A 
ATOM     24  C   UNL     1      -1.087  -3.041  24.503  0.00  0.00    +0.039 A 
ATOM     25  C   UNL     1      -0.267  -1.517  26.188  0.00  0.00    +0.039 A 
ATOM     26  C   UNL     1      -0.100  -2.665  25.415  0.00  0.00    +0.123 A 
ENDBRANCH  15  18
ENDBRANCH  10  12
ENDBRANCH   7  10
TORSDOF 7
ENDMDL
