MODEL 1
REMARK VINA RESULT:       2.3      0.000      0.000
REMARK  Name = 26761949
REMARK  4 active torsions:
REMARK  status: ('A' for Active; 'I' for Inactive)
REMARK    1  A    between atoms: N_5  and  C_15
REMARK    2  A    between atoms: C_10  and  C_16
REMARK    3  A    between atoms: C_15  and  C_17
REMARK    4  A    between atoms: C_21  and  C_24
REMARK                            x       y       z     vdW  Elec       q    Type
REMARK                         _______ _______ _______ _____ _____    ______ ____
ROOT
ATOM      5  N   UNL     1      -3.219   0.625  23.846  0.00  0.00    -0.281 NA
ATOM      6  N   UNL     1      -4.324  -2.932  23.843  0.00  0.00    -0.347 N 
ATOM      7  N   UNL     1      -3.237  -3.047  25.793  0.00  0.00    -0.240 NA
ATOM     10  C   UNL     1      -2.006   0.415  24.695  0.00  0.00    +0.152 C 
ATOM     11  C   UNL     1      -2.235  -0.713  25.764  0.00  0.00    +0.086 C 
ATOM     12  C   UNL     1      -3.686  -0.565  23.103  0.00  0.00    +0.140 C 
ATOM     13  C   UNL     1      -3.701  -1.733  24.010  0.00  0.00    +0.053 A 
ATOM     14  C   UNL     1      -3.039  -1.828  25.208  0.00  0.00    +0.065 A 
ATOM     18  C   UNL     1      -4.014  -3.691  24.944  0.00  0.00    +0.197 A 
ATOM     31  H   UNL     1      -4.898  -3.215  23.060  0.00  0.00    +0.167 HD
ENDROOT
BRANCH  10  16
ATOM      4  O   UNL     1      -0.791   0.007  22.599  0.00  0.00    -0.336 OA
ATOM      8  N   UNL     1       0.540   0.339  24.370  0.00  0.00    -0.190 NA
ATOM      9  N   UNL     1       0.523  -0.091  22.122  0.00  0.00    -0.056 NA
ATOM     16  C   UNL     1      -0.691   0.262  23.929  0.00  0.00    +0.245 A 
ATOM     21  C   UNL     1       1.249   0.116  23.225  0.00  0.00    +0.202 A 
BRANCH  21  24
ATOM      1 CL   UNL     1       5.623  -2.437  24.153  0.00  0.00    -0.081 Cl
ATOM      3  F   UNL     1       6.814   0.101  23.190  0.00  0.00    -0.204 F 
ATOM     24  C   UNL     1       2.683   0.108  23.217  0.00  0.00    +0.024 A 
ATOM     26  C   UNL     1       3.377  -1.026  23.639  0.00  0.00    +0.034 A 
ATOM     27  C   UNL     1       3.384   1.235  22.788  0.00  0.00    +0.014 A 
ATOM     28  C   UNL     1       4.772  -1.034  23.632  0.00  0.00    +0.077 A 
ATOM     29  C   UNL     1       4.779   1.228  22.782  0.00  0.00    +0.040 A 
ATOM     30  C   UNL     1       5.473   0.093  23.203  0.00  0.00    +0.142 A 
ENDBRANCH  21  24
ENDBRANCH  10  16
BRANCH   5  15
ATOM     15  C   UNL     1      -3.147   1.799  22.984  0.00  0.00    +0.120 C 
BRANCH  15  17
ATOM      2  F   UNL     1      -1.287   6.332  25.767  0.00  0.00    -0.205 F 
ATOM     17  C   UNL     1      -2.650   3.010  23.727  0.00  0.00    -0.033 A 
ATOM     19  C   UNL     1      -1.305   3.372  23.652  0.00  0.00    +0.008 A 
ATOM     20  C   UNL     1      -3.534   3.770  24.493  0.00  0.00    +0.008 A 
ATOM     22  C   UNL     1      -0.844   4.494  24.340  0.00  0.00    +0.038 A 
ATOM     23  C   UNL     1      -3.073   4.892  25.182  0.00  0.00    +0.038 A 
ATOM     25  C   UNL     1      -1.729   5.253  25.106  0.00  0.00    +0.123 A 
ENDBRANCH  15  17
ENDBRANCH   5  15
TORSDOF 4
ENDMDL
MODEL 2
REMARK VINA RESULT:       2.3      2.571      5.048
REMARK  Name = 26761949
REMARK  4 active torsions:
REMARK  status: ('A' for Active; 'I' for Inactive)
REMARK    1  A    between atoms: N_5  and  C_15
REMARK    2  A    between atoms: C_10  and  C_16
REMARK    3  A    between atoms: C_15  and  C_17
REMARK    4  A    between atoms: C_21  and  C_24
REMARK                            x       y       z     vdW  Elec       q    Type
REMARK                         _______ _______ _______ _____ _____    ______ ____
ROOT
ATOM      5  N   UNL     1      -2.098   1.296  25.381  0.00  0.00    -0.281 NA
ATOM      6  N   UNL     1      -1.121   4.849  25.924  0.00  0.00    -0.347 N 
ATOM      7  N   UNL     1      -1.827   5.140  23.822  0.00  0.00    -0.240 NA
ATOM     10  C   UNL     1      -1.921   1.307  23.896  0.00  0.00    +0.152 C 
ATOM     11  C   UNL     1      -2.291   2.703  23.278  0.00  0.00    +0.086 C 
ATOM     12  C   UNL     1      -1.307   2.303  26.120  0.00  0.00    +0.140 C 
ATOM     13  C   UNL     1      -1.427   3.613  25.444  0.00  0.00    +0.053 A 
ATOM     14  C   UNL     1      -1.853   3.815  24.155  0.00  0.00    +0.065 A 
ATOM     18  C   UNL     1      -1.379   5.738  24.909  0.00  0.00    +0.197 A 
ATOM     31  H   UNL     1      -0.767   5.074  26.844  0.00  0.00    +0.167 HD
ENDROOT
BRANCH  10  16
ATOM      4  O   UNL     1      -0.637  -0.093  22.339  0.00  0.00    -0.336 OA
ATOM      8  N   UNL     1       0.628   0.996  23.833  0.00  0.00    -0.190 NA
ATOM      9  N   UNL     1       0.688  -0.454  22.063  0.00  0.00    -0.056 NA
ATOM     16  C   UNL     1      -0.583   0.761  23.393  0.00  0.00    +0.245 A 
ATOM     21  C   UNL     1       1.374   0.228  22.986  0.00  0.00    +0.202 A 
BRANCH  21  24
ATOM      1 CL   UNL     1       5.571  -2.523  24.135  0.00  0.00    -0.081 Cl
ATOM      3  F   UNL     1       6.920   0.006  23.378  0.00  0.00    -0.204 F 
ATOM     24  C   UNL     1       2.803   0.166  23.088  0.00  0.00    +0.024 A 
ATOM     26  C   UNL     1       3.422  -1.009  23.512  0.00  0.00    +0.034 A 
ATOM     27  C   UNL     1       3.574   1.282  22.764  0.00  0.00    +0.014 A 
ATOM     28  C   UNL     1       4.812  -1.069  23.612  0.00  0.00    +0.077 A 
ATOM     29  C   UNL     1       4.964   1.224  22.864  0.00  0.00    +0.040 A 
ATOM     30  C   UNL     1       5.583   0.047  23.287  0.00  0.00    +0.142 A 
ENDBRANCH  21  24
ENDBRANCH  10  16
BRANCH   5  15
ATOM     15  C   UNL     1      -1.980  -0.026  25.985  0.00  0.00    +0.120 C 
BRANCH  15  17
ATOM      2  F   UNL     1      -4.884  -3.910  23.116  0.00  0.00    -0.205 F 
ATOM     17  C   UNL     1      -2.756  -1.063  25.219  0.00  0.00    -0.033 A 
ATOM     19  C   UNL     1      -2.229  -2.344  25.050  0.00  0.00    +0.008 A 
ATOM     20  C   UNL     1      -4.000  -0.744  24.677  0.00  0.00    +0.008 A 
ATOM     22  C   UNL     1      -2.948  -3.305  24.340  0.00  0.00    +0.038 A 
ATOM     23  C   UNL     1      -4.719  -1.706  23.966  0.00  0.00    +0.038 A 
ATOM     25  C   UNL     1      -4.193  -2.985  23.797  0.00  0.00    +0.123 A 
ENDBRANCH  15  17
ENDBRANCH   5  15
TORSDOF 4
ENDMDL
MODEL 3
REMARK VINA RESULT:       2.5      2.509      4.471
REMARK  Name = 26761949
REMARK  4 active torsions:
REMARK  status: ('A' for Active; 'I' for Inactive)
REMARK    1  A    between atoms: N_5  and  C_15
REMARK    2  A    between atoms: C_10  and  C_16
REMARK    3  A    between atoms: C_15  and  C_17
REMARK    4  A    between atoms: C_21  and  C_24
REMARK                            x       y       z     vdW  Elec       q    Type
REMARK                         _______ _______ _______ _____ _____    ______ ____
ROOT
ATOM      5  N   UNL     1      -4.281   0.443  23.764  0.00  0.00    -0.281 NA
ATOM      6  N   UNL     1      -5.568   2.793  26.351  0.00  0.00    -0.347 N 
ATOM      7  N   UNL     1      -5.045   4.378  24.863  0.00  0.00    -0.240 NA
ATOM     10  C   UNL     1      -3.352   1.416  23.112  0.00  0.00    +0.152 C 
ATOM     11  C   UNL     1      -3.926   2.878  23.146  0.00  0.00    +0.086 C 
ATOM     12  C   UNL     1      -4.609   0.730  25.177  0.00  0.00    +0.140 C 
ATOM     13  C   UNL     1      -4.937   2.164  25.321  0.00  0.00    +0.053 A 
ATOM     14  C   UNL     1      -4.624   3.154  24.425  0.00  0.00    +0.065 A 
ATOM     18  C   UNL     1      -5.609   4.127  26.028  0.00  0.00    +0.197 A 
ATOM     31  H   UNL     1      -5.931   2.367  27.193  0.00  0.00    +0.167 HD
ENDROOT
BRANCH  10  16
ATOM      4  O   UNL     1      -1.643   1.641  24.863  0.00  0.00    -0.336 OA
ATOM      8  N   UNL     1      -0.829   1.001  22.877  0.00  0.00    -0.190 NA
ATOM      9  N   UNL     1      -0.261   1.494  25.038  0.00  0.00    -0.056 NA
ATOM     16  C   UNL     1      -1.893   1.331  23.564  0.00  0.00    +0.245 A 
ATOM     21  C   UNL     1       0.148   1.115  23.824  0.00  0.00    +0.202 A 
BRANCH  21  24
ATOM      1 CL   UNL     1       4.064  -2.228  23.858  0.00  0.00    -0.081 Cl
ATOM      3  F   UNL     1       5.487   0.075  22.650  0.00  0.00    -0.204 F 
ATOM     24  C   UNL     1       1.523   0.842  23.523  0.00  0.00    +0.024 A 
ATOM     26  C   UNL     1       2.064  -0.412  23.803  0.00  0.00    +0.034 A 
ATOM     27  C   UNL     1       2.321   1.833  22.950  0.00  0.00    +0.014 A 
ATOM     28  C   UNL     1       3.402  -0.677  23.510  0.00  0.00    +0.077 A 
ATOM     29  C   UNL     1       3.659   1.569  22.657  0.00  0.00    +0.040 A 
ATOM     30  C   UNL     1       4.199   0.314  22.937  0.00  0.00    +0.142 A 
ENDBRANCH  21  24
ENDBRANCH  10  16
BRANCH   5  15
ATOM     15  C   UNL     1      -3.909  -0.954  23.574  0.00  0.00    +0.120 C 
BRANCH  15  17
ATOM      2  F   UNL     1       0.612  -2.354  26.632  0.00  0.00    -0.205 F 
ATOM     17  C   UNL     1      -2.701  -1.328  24.391  0.00  0.00    -0.033 A 
ATOM     19  C   UNL     1      -1.669  -2.068  23.812  0.00  0.00    +0.008 A 
ATOM     20  C   UNL     1      -2.614  -0.936  25.726  0.00  0.00    +0.008 A 
ATOM     22  C   UNL     1      -0.550  -2.414  24.569  0.00  0.00    +0.038 A 
ATOM     23  C   UNL     1      -1.495  -1.283  26.484  0.00  0.00    +0.038 A 
ATOM     25  C   UNL     1      -0.464  -2.022  25.905  0.00  0.00    +0.123 A 
ENDBRANCH  15  17
ENDBRANCH   5  15
TORSDOF 4
ENDMDL
MODEL 4
REMARK VINA RESULT:       2.8      1.382      1.720
REMARK  Name = 26761949
REMARK  4 active torsions:
REMARK  status: ('A' for Active; 'I' for Inactive)
REMARK    1  A    between atoms: N_5  and  C_15
REMARK    2  A    between atoms: C_10  and  C_16
REMARK    3  A    between atoms: C_15  and  C_17
REMARK    4  A    between atoms: C_21  and  C_24
REMARK                            x       y       z     vdW  Elec       q    Type
REMARK                         _______ _______ _______ _____ _____    ______ ____
ROOT
ATOM      5  N   UNL     1      -3.171   0.607  24.185  0.00  0.00    -0.281 NA
ATOM      6  N   UNL     1      -4.450  -2.813  23.448  0.00  0.00    -0.347 N 
ATOM      7  N   UNL     1      -3.325  -3.397  25.290  0.00  0.00    -0.240 NA
ATOM     10  C   UNL     1      -1.950   0.164  24.927  0.00  0.00    +0.152 C 
ATOM     11  C   UNL     1      -2.209  -1.159  25.733  0.00  0.00    +0.086 C 
ATOM     12  C   UNL     1      -3.714  -0.371  23.218  0.00  0.00    +0.140 C 
ATOM     13  C   UNL     1      -3.765  -1.707  23.850  0.00  0.00    +0.053 A 
ATOM     14  C   UNL     1      -3.081  -2.090  24.976  0.00  0.00    +0.065 A 
ATOM     18  C   UNL     1      -4.153  -3.806  24.348  0.00  0.00    +0.197 A 
ATOM     31  H   UNL     1      -5.055  -2.894  22.642  0.00  0.00    +0.167 HD
ENDROOT
BRANCH  10  16
ATOM      4  O   UNL     1      -0.808   0.079  22.753  0.00  0.00    -0.336 OA
ATOM      8  N   UNL     1       0.583   0.128  24.508  0.00  0.00    -0.190 NA
ATOM      9  N   UNL     1       0.488   0.049  22.223  0.00  0.00    -0.056 NA
ATOM     16  C   UNL     1      -0.662   0.125  24.103  0.00  0.00    +0.245 A 
ATOM     21  C   UNL     1       1.252   0.081  23.319  0.00  0.00    +0.202 A 
BRANCH  21  24
ATOM      1 CL   UNL     1       5.648  -2.471  24.140  0.00  0.00    -0.081 Cl
ATOM      3  F   UNL     1       6.812   0.045  23.090  0.00  0.00    -0.204 F 
ATOM     24  C   UNL     1       2.685   0.067  23.262  0.00  0.00    +0.024 A 
ATOM     26  C   UNL     1       3.389  -1.062  23.679  0.00  0.00    +0.034 A 
ATOM     27  C   UNL     1       3.374   1.183  22.788  0.00  0.00    +0.014 A 
ATOM     28  C   UNL     1       4.783  -1.075  23.624  0.00  0.00    +0.077 A 
ATOM     29  C   UNL     1       4.768   1.171  22.733  0.00  0.00    +0.040 A 
ATOM     30  C   UNL     1       5.472   0.042  23.150  0.00  0.00    +0.142 A 
ENDBRANCH  21  24
ENDBRANCH  10  16
BRANCH   5  15
ATOM     15  C   UNL     1      -3.060   1.936  23.596  0.00  0.00    +0.120 C 
BRANCH  15  17
ATOM      2  F   UNL     1      -6.632   5.589  25.974  0.00  0.00    -0.205 F 
ATOM     17  C   UNL     1      -4.014   2.912  24.231  0.00  0.00    -0.033 A 
ATOM     19  C   UNL     1      -3.885   4.278  23.981  0.00  0.00    +0.008 A 
ATOM     20  C   UNL     1      -5.028   2.451  25.071  0.00  0.00    +0.008 A 
ATOM     22  C   UNL     1      -4.768   5.182  24.569  0.00  0.00    +0.038 A 
ATOM     23  C   UNL     1      -5.912   3.355  25.660  0.00  0.00    +0.038 A 
ATOM     25  C   UNL     1      -5.781   4.720  25.410  0.00  0.00    +0.123 A 
ENDBRANCH  15  17
ENDBRANCH   5  15
TORSDOF 4
ENDMDL
MODEL 5
REMARK VINA RESULT:       3.4      4.061      6.032
REMARK  Name = 26761949
REMARK  4 active torsions:
REMARK  status: ('A' for Active; 'I' for Inactive)
REMARK    1  A    between atoms: N_5  and  C_15
REMARK    2  A    between atoms: C_10  and  C_16
REMARK    3  A    between atoms: C_15  and  C_17
REMARK    4  A    between atoms: C_21  and  C_24
REMARK                            x       y       z     vdW  Elec       q    Type
REMARK                         _______ _______ _______ _____ _____    ______ ____
ROOT
ATOM      5  N   UNL     1      -3.705   1.859  23.425  0.00  0.00    -0.281 NA
ATOM      6  N   UNL     1      -6.175   2.585  26.117  0.00  0.00    -0.347 N 
ATOM      7  N   UNL     1      -5.651   4.723  25.724  0.00  0.00    -0.240 NA
ATOM     10  C   UNL     1      -2.889   3.097  23.619  0.00  0.00    +0.152 C 
ATOM     11  C   UNL     1      -3.779   4.315  24.058  0.00  0.00    +0.086 C 
ATOM     12  C   UNL     1      -4.470   1.412  24.610  0.00  0.00    +0.140 C 
ATOM     13  C   UNL     1      -5.154   2.575  25.216  0.00  0.00    +0.053 A 
ATOM     14  C   UNL     1      -4.848   3.893  24.994  0.00  0.00    +0.065 A 
ATOM     18  C   UNL     1      -6.439   3.904  26.393  0.00  0.00    +0.197 A 
ATOM     31  H   UNL     1      -6.645   1.783  26.513  0.00  0.00    +0.167 HD
ENDROOT
BRANCH  10  16
ATOM      4  O   UNL     1      -0.461   2.778  23.813  0.00  0.00    -0.336 OA
ATOM      8  N   UNL     1      -1.520   2.898  25.783  0.00  0.00    -0.190 NA
ATOM      9  N   UNL     1       0.528   2.640  24.796  0.00  0.00    -0.056 NA
ATOM     16  C   UNL     1      -1.636   2.926  24.479  0.00  0.00    +0.245 A 
ATOM     21  C   UNL     1      -0.175   2.721  25.930  0.00  0.00    +0.202 A 
BRANCH  21  24
ATOM      1 CL   UNL     1       4.132   2.650  28.751  0.00  0.00    -0.081 Cl
ATOM      3  F   UNL     1       2.177   2.365  30.961  0.00  0.00    -0.204 F 
ATOM     24  C   UNL     1       0.436   2.630  27.224  0.00  0.00    +0.024 A 
ATOM     26  C   UNL     1       1.824   2.678  27.346  0.00  0.00    +0.034 A 
ATOM     27  C   UNL     1      -0.360   2.493  28.361  0.00  0.00    +0.014 A 
ATOM     28  C   UNL     1       2.417   2.590  28.606  0.00  0.00    +0.077 A 
ATOM     29  C   UNL     1       0.233   2.403  29.621  0.00  0.00    +0.040 A 
ATOM     30  C   UNL     1       1.622   2.452  29.743  0.00  0.00    +0.142 A 
ENDBRANCH  21  24
ENDBRANCH  10  16
BRANCH   5  15
ATOM     15  C   UNL     1      -2.976   0.755  22.812  0.00  0.00    +0.120 C 
BRANCH  15  17
ATOM      2  F   UNL     1      -3.224  -3.921  25.946  0.00  0.00    -0.205 F 
ATOM     17  C   UNL     1      -3.042  -0.494  23.649  0.00  0.00    -0.033 A 
ATOM     19  C   UNL     1      -2.053  -0.751  24.600  0.00  0.00    +0.008 A 
ATOM     20  C   UNL     1      -4.092  -1.396  23.475  0.00  0.00    +0.008 A 
ATOM     22  C   UNL     1      -2.115  -1.907  25.375  0.00  0.00    +0.038 A 
ATOM     23  C   UNL     1      -4.153  -2.554  24.250  0.00  0.00    +0.038 A 
ATOM     25  C   UNL     1      -3.164  -2.810  25.200  0.00  0.00    +0.123 A 
ENDBRANCH  15  17
ENDBRANCH   5  15
TORSDOF 4
ENDMDL
MODEL 6
REMARK VINA RESULT:       4.0      2.620      5.097
REMARK  Name = 26761949
REMARK  4 active torsions:
REMARK  status: ('A' for Active; 'I' for Inactive)
REMARK    1  A    between atoms: N_5  and  C_15
REMARK    2  A    between atoms: C_10  and  C_16
REMARK    3  A    between atoms: C_15  and  C_17
REMARK    4  A    between atoms: C_21  and  C_24
REMARK                            x       y       z     vdW  Elec       q    Type
REMARK                         _______ _______ _______ _____ _____    ______ ____
ROOT
ATOM      5  N   UNL     1      -3.519   1.075  24.997  0.00  0.00    -0.281 NA
ATOM      6  N   UNL     1      -4.441   4.677  25.214  0.00  0.00    -0.347 N 
ATOM      7  N   UNL     1      -4.187   4.654  22.993  0.00  0.00    -0.240 NA
ATOM     10  C   UNL     1      -2.721   1.190  23.738  0.00  0.00    +0.152 C 
ATOM     11  C   UNL     1      -3.314   2.279  22.773  0.00  0.00    +0.086 C 
ATOM     12  C   UNL     1      -3.631   2.318  25.791  0.00  0.00    +0.140 C 
ATOM     13  C   UNL     1      -3.963   3.443  24.891  0.00  0.00    +0.053 A 
ATOM     14  C   UNL     1      -3.812   3.454  23.528  0.00  0.00    +0.065 A 
ATOM     18  C   UNL     1      -4.559   5.371  24.035  0.00  0.00    +0.197 A 
ATOM     31  H   UNL     1      -4.661   5.022  26.139  0.00  0.00    +0.167 HD
ENDROOT
BRANCH  10  16
ATOM      4  O   UNL     1      -0.790   2.172  24.896  0.00  0.00    -0.336 OA
ATOM      8  N   UNL     1      -0.239   0.708  23.292  0.00  0.00    -0.190 NA
ATOM      9  N   UNL     1       0.610   2.116  24.883  0.00  0.00    -0.056 NA
ATOM     16  C   UNL     1      -1.209   1.314  23.930  0.00  0.00    +0.245 A 
ATOM     21  C   UNL     1       0.858   1.233  23.912  0.00  0.00    +0.202 A 
BRANCH  21  24
ATOM      1 CL   UNL     1       4.553  -2.354  23.904  0.00  0.00    -0.081 Cl
ATOM      3  F   UNL     1       6.025  -0.230  22.451  0.00  0.00    -0.204 F 
ATOM     24  C   UNL     1       2.189   0.851  23.538  0.00  0.00    +0.024 A 
ATOM     26  C   UNL     1       2.670  -0.416  23.864  0.00  0.00    +0.034 A 
ATOM     27  C   UNL     1       3.003   1.749  22.847  0.00  0.00    +0.014 A 
ATOM     28  C   UNL     1       3.964  -0.787  23.499  0.00  0.00    +0.077 A 
ATOM     29  C   UNL     1       4.298   1.380  22.483  0.00  0.00    +0.040 A 
ATOM     30  C   UNL     1       4.778   0.111  22.809  0.00  0.00    +0.142 A 
ENDBRANCH  21  24
ENDBRANCH  10  16
BRANCH   5  15
ATOM     15  C   UNL     1      -3.151  -0.062  25.833  0.00  0.00    +0.120 C 
BRANCH  15  17
ATOM      2  F   UNL     1      -2.645  -4.800  22.826  0.00  0.00    -0.205 F 
ATOM     17  C   UNL     1      -3.016  -1.328  25.030  0.00  0.00    -0.033 A 
ATOM     19  C   UNL     1      -1.771  -1.945  24.905  0.00  0.00    +0.008 A 
ATOM     20  C   UNL     1      -4.135  -1.883  24.410  0.00  0.00    +0.008 A 
ATOM     22  C   UNL     1      -1.646  -3.118  24.161  0.00  0.00    +0.038 A 
ATOM     23  C   UNL     1      -4.009  -3.056  23.664  0.00  0.00    +0.038 A 
ATOM     25  C   UNL     1      -2.765  -3.672  23.540  0.00  0.00    +0.123 A 
ENDBRANCH  15  17
ENDBRANCH   5  15
TORSDOF 4
ENDMDL
MODEL 7
REMARK VINA RESULT:       4.5      4.257      6.155
REMARK  Name = 26761949
REMARK  4 active torsions:
REMARK  status: ('A' for Active; 'I' for Inactive)
REMARK    1  A    between atoms: N_5  and  C_15
REMARK    2  A    between atoms: C_10  and  C_16
REMARK    3  A    between atoms: C_15  and  C_17
REMARK    4  A    between atoms: C_21  and  C_24
REMARK                            x       y       z     vdW  Elec       q    Type
REMARK                         _______ _______ _______ _____ _____    ______ ____
ROOT
ATOM      5  N   UNL     1      -3.576   1.840  23.482  0.00  0.00    -0.281 NA
ATOM      6  N   UNL     1      -5.998   2.524  26.229  0.00  0.00    -0.347 N 
ATOM      7  N   UNL     1      -5.374   4.654  25.957  0.00  0.00    -0.240 NA
ATOM     10  C   UNL     1      -2.702   3.025  23.743  0.00  0.00    +0.152 C 
ATOM     11  C   UNL     1      -3.530   4.257  24.257  0.00  0.00    +0.086 C 
ATOM     12  C   UNL     1      -4.356   1.362  24.644  0.00  0.00    +0.140 C 
ATOM     13  C   UNL     1      -4.982   2.518  25.322  0.00  0.00    +0.053 A 
ATOM     14  C   UNL     1      -4.614   3.831  25.175  0.00  0.00    +0.065 A 
ATOM     18  C   UNL     1      -6.198   3.836  26.582  0.00  0.00    +0.197 A 
ATOM     31  H   UNL     1      -6.504   1.723  26.581  0.00  0.00    +0.167 HD
ENDROOT
BRANCH  10  16
ATOM      4  O   UNL     1      -0.417   2.143  23.943  0.00  0.00    -0.336 OA
ATOM      8  N   UNL     1      -1.229   3.002  25.846  0.00  0.00    -0.190 NA
ATOM      9  N   UNL     1       0.594   1.992  24.901  0.00  0.00    -0.056 NA
ATOM     16  C   UNL     1      -1.454   2.746  24.582  0.00  0.00    +0.245 A 
ATOM     21  C   UNL     1       0.040   2.522  25.996  0.00  0.00    +0.202 A 
BRANCH  21  24
ATOM      1 CL   UNL     1      -0.227   2.616  31.137  0.00  0.00    -0.081 Cl
ATOM      3  F   UNL     1       2.720   2.781  30.866  0.00  0.00    -0.204 F 
ATOM     24  C   UNL     1       0.726   2.588  27.253  0.00  0.00    +0.024 A 
ATOM     26  C   UNL     1       0.003   2.572  28.445  0.00  0.00    +0.034 A 
ATOM     27  C   UNL     1       2.119   2.669  27.283  0.00  0.00    +0.014 A 
ATOM     28  C   UNL     1       0.671   2.637  29.668  0.00  0.00    +0.077 A 
ATOM     29  C   UNL     1       2.788   2.735  28.506  0.00  0.00    +0.040 A 
ATOM     30  C   UNL     1       2.064   2.718  29.698  0.00  0.00    +0.142 A 
ENDBRANCH  21  24
ENDBRANCH  10  16
BRANCH   5  15
ATOM     15  C   UNL     1      -2.903   0.741  22.801  0.00  0.00    +0.120 C 
BRANCH  15  17
ATOM      2  F   UNL     1      -3.251  -4.065  25.722  0.00  0.00    -0.205 F 
ATOM     17  C   UNL     1      -2.996  -0.543  23.582  0.00  0.00    -0.033 A 
ATOM     19  C   UNL     1      -4.130  -1.348  23.469  0.00  0.00    +0.008 A 
ATOM     20  C   UNL     1      -1.949  -0.928  24.418  0.00  0.00    +0.008 A 
ATOM     22  C   UNL     1      -4.216  -2.537  24.191  0.00  0.00    +0.038 A 
ATOM     23  C   UNL     1      -2.035  -2.118  25.142  0.00  0.00    +0.038 A 
ATOM     25  C   UNL     1      -3.169  -2.921  25.029  0.00  0.00    +0.123 A 
ENDBRANCH  15  17
ENDBRANCH   5  15
TORSDOF 4
ENDMDL
