MODEL 1
REMARK VINA RESULT:      -3.7      0.000      0.000
REMARK  Name = 75536575
REMARK  9 active torsions:
REMARK  status: ('A' for Active; 'I' for Inactive)
REMARK    1  A    between atoms: O_2  and  C_11
REMARK    2  A    between atoms: O_5  and  C_22
REMARK    3  A    between atoms: O_5  and  C_23
REMARK    4  A    between atoms: N_6  and  C_9
REMARK    5  A    between atoms: N_6  and  C_10
REMARK    6  A    between atoms: N_8  and  C_18
REMARK    7  A    between atoms: C_12  and  C_18
REMARK    8  A    between atoms: C_19  and  C_20
REMARK    9  A    between atoms: C_21  and  C_22
REMARK                            x       y       z     vdW  Elec       q    Type
REMARK                         _______ _______ _______ _____ _____    ______ ____
ROOT
ATOM      1  O   UNL     1      -0.758   3.584  26.538  0.00  0.00    -0.371 OA
ATOM      9  C   UNL     1       0.378   2.288  24.904  0.00  0.00    +0.111 C 
ATOM     11  C   UNL     1      -0.485   3.321  24.204  0.00  0.00    +0.164 C 
ATOM     12  C   UNL     1      -0.685   4.340  25.318  0.00  0.00    +0.165 C 
ATOM     15  C   UNL     1      -0.246   2.262  26.289  0.00  0.00    +0.181 C 
ENDROOT
BRANCH  11   2
ATOM      2  O   UNL     1       0.152   3.890  23.076  0.00  0.00    -0.388 OA
ATOM     25  H   UNL     1       0.496   3.168  22.523  0.00  0.00    +0.210 HD
ENDBRANCH  11   2
BRANCH   9   6
ATOM      6  N   UNL     1       0.372   0.986  24.257  0.00  0.00    -0.306 NA
ATOM     24  H   UNL     1       1.303   0.572  24.292  0.00  0.00    +0.123 HD
BRANCH   6  10
ATOM      3  O   UNL     1      -3.235  -3.974  23.823  0.00  0.00    -0.276 OA
ATOM      7  N   UNL     1      -2.691  -1.891  24.696  0.00  0.00    -0.302 N 
ATOM     10  C   UNL     1      -0.594   0.094  24.893  0.00  0.00    +0.057 C 
ATOM     13  C   UNL     1      -2.018   0.470  24.465  0.00  0.00    +0.037 C 
ATOM     14  C   UNL     1      -0.289  -1.363  24.522  0.00  0.00    +0.037 C 
ATOM     16  C   UNL     1      -3.041  -0.509  25.043  0.00  0.00    +0.109 C 
ATOM     17  C   UNL     1      -1.346  -2.304  25.100  0.00  0.00    +0.109 C 
ATOM     19  C   UNL     1      -3.539  -2.806  24.071  0.00  0.00    +0.212 C 
ATOM     20  C   UNL     1      -4.907  -2.303  23.684  0.00  0.00    +0.109 C 
ENDBRANCH   6  10
ENDBRANCH   9   6
BRANCH  12  18
ATOM     18  C   UNL     1      -1.945   5.170  25.152  0.00  0.00    +0.138 C 
BRANCH  18   8
ATOM      4  O   UNL     1      -3.908   3.528  23.804  0.00  0.00    -0.273 OA
ATOM      8  N   UNL     1      -3.080   4.519  25.740  0.00  0.00    -0.311 N 
ATOM     21  C   UNL     1      -3.977   3.744  25.012  0.00  0.00    +0.239 C 
ATOM     26  H   UNL     1      -3.234   4.645  26.737  0.00  0.00    +0.149 HD
BRANCH  21  22
ATOM     22  C   UNL     1      -5.078   3.178  25.883  0.00  0.00    +0.255 C 
BRANCH  22   5
ATOM      5  O   UNL     1      -5.273   1.807  25.612  0.00  0.00    -0.374 OA
ATOM     23  C   UNL     1      -6.471   1.576  24.874  0.00  0.00    +0.194 C 
ENDBRANCH  22   5
ENDBRANCH  21  22
ENDBRANCH  18   8
ENDBRANCH  12  18
TORSDOF 7
ENDMDL
MODEL 2
REMARK VINA RESULT:      -3.6     14.875     17.679
REMARK  Name = 75536575
REMARK  9 active torsions:
REMARK  status: ('A' for Active; 'I' for Inactive)
REMARK    1  A    between atoms: O_2  and  C_11
REMARK    2  A    between atoms: O_5  and  C_22
REMARK    3  A    between atoms: O_5  and  C_23
REMARK    4  A    between atoms: N_6  and  C_9
REMARK    5  A    between atoms: N_6  and  C_10
REMARK    6  A    between atoms: N_8  and  C_18
REMARK    7  A    between atoms: C_12  and  C_18
REMARK    8  A    between atoms: C_19  and  C_20
REMARK    9  A    between atoms: C_21  and  C_22
REMARK                            x       y       z     vdW  Elec       q    Type
REMARK                         _______ _______ _______ _____ _____    ______ ____
ROOT
ATOM      1  O   UNL     1      -4.941 -10.057  14.503  0.00  0.00    -0.371 OA
ATOM      9  C   UNL     1      -5.483 -10.053  12.191  0.00  0.00    +0.111 C 
ATOM     11  C   UNL     1      -6.682 -10.547  12.980  0.00  0.00    +0.164 C 
ATOM     12  C   UNL     1      -6.370  -9.995  14.364  0.00  0.00    +0.165 C 
ATOM     15  C   UNL     1      -4.362 -10.240  13.198  0.00  0.00    +0.181 C 
ENDROOT
BRANCH  11   2
ATOM      2  O   UNL     1      -7.908 -10.051  12.477  0.00  0.00    -0.388 OA
ATOM     25  H   UNL     1      -8.005  -9.127  12.764  0.00  0.00    +0.210 HD
ENDBRANCH  11   2
BRANCH   9   6
ATOM      6  N   UNL     1      -5.258 -10.781  10.953  0.00  0.00    -0.306 NA
ATOM     24  H   UNL     1      -5.692 -11.702  11.003  0.00  0.00    +0.123 HD
BRANCH   6  10
ATOM      3  O   UNL     1      -9.115  -6.477   8.854  0.00  0.00    -0.276 OA
ATOM      7  N   UNL     1      -7.870  -8.423   8.612  0.00  0.00    -0.302 N 
ATOM     10  C   UNL     1      -5.790 -10.041   9.811  0.00  0.00    +0.057 C 
ATOM     13  C   UNL     1      -7.125 -10.651   9.364  0.00  0.00    +0.037 C 
ATOM     14  C   UNL     1      -5.973  -8.563  10.181  0.00  0.00    +0.037 C 
ATOM     16  C   UNL     1      -7.748  -9.836   8.231  0.00  0.00    +0.109 C 
ATOM     17  C   UNL     1      -6.618  -7.790   9.031  0.00  0.00    +0.109 C 
ATOM     19  C   UNL     1      -9.045  -7.673   8.563  0.00  0.00    +0.212 C 
ATOM     20  C   UNL     1     -10.292  -8.398   8.124  0.00  0.00    +0.109 C 
ENDBRANCH   6  10
ENDBRANCH   9   6
BRANCH  12  18
ATOM     18  C   UNL     1      -7.030 -10.778  15.484  0.00  0.00    +0.138 C 
BRANCH  18   8
ATOM      4  O   UNL     1      -7.574  -9.631  18.083  0.00  0.00    -0.273 OA
ATOM      8  N   UNL     1      -8.245 -10.148  15.915  0.00  0.00    -0.311 N 
ATOM     21  C   UNL     1      -8.420  -9.621  17.191  0.00  0.00    +0.239 C 
ATOM     26  H   UNL     1      -9.013 -10.098  15.253  0.00  0.00    +0.149 HD
BRANCH  21  22
ATOM     22  C   UNL     1      -9.795  -9.017  17.374  0.00  0.00    +0.255 C 
BRANCH  22   5
ATOM      5  O   UNL     1      -9.753  -7.618  17.193  0.00  0.00    -0.374 OA
ATOM     23  C   UNL     1     -10.502  -7.207  16.052  0.00  0.00    +0.194 C 
ENDBRANCH  22   5
ENDBRANCH  21  22
ENDBRANCH  18   8
ENDBRANCH  12  18
TORSDOF 7
ENDMDL
MODEL 3
REMARK VINA RESULT:      -3.5      2.029      4.576
REMARK  Name = 75536575
REMARK  9 active torsions:
REMARK  status: ('A' for Active; 'I' for Inactive)
REMARK    1  A    between atoms: O_2  and  C_11
REMARK    2  A    between atoms: O_5  and  C_22
REMARK    3  A    between atoms: O_5  and  C_23
REMARK    4  A    between atoms: N_6  and  C_9
REMARK    5  A    between atoms: N_6  and  C_10
REMARK    6  A    between atoms: N_8  and  C_18
REMARK    7  A    between atoms: C_12  and  C_18
REMARK    8  A    between atoms: C_19  and  C_20
REMARK    9  A    between atoms: C_21  and  C_22
REMARK                            x       y       z     vdW  Elec       q    Type
REMARK                         _______ _______ _______ _____ _____    ______ ____
ROOT
ATOM      1  O   UNL     1      -4.625   3.333  26.427  0.00  0.00    -0.371 OA
ATOM      9  C   UNL     1      -3.126   4.190  24.797  0.00  0.00    +0.111 C 
ATOM     11  C   UNL     1      -3.963   3.090  24.170  0.00  0.00    +0.164 C 
ATOM     12  C   UNL     1      -5.152   3.049  25.121  0.00  0.00    +0.165 C 
ATOM     15  C   UNL     1      -3.313   3.904  26.277  0.00  0.00    +0.181 C 
ENDROOT
BRANCH  11   2
ATOM      2  O   UNL     1      -4.357   3.392  22.845  0.00  0.00    -0.388 OA
ATOM     25  H   UNL     1      -3.570   3.351  22.276  0.00  0.00    +0.210 HD
ENDBRANCH  11   2
BRANCH   9   6
ATOM      6  N   UNL     1      -1.731   4.167  24.388  0.00  0.00    -0.306 NA
ATOM     24  H   UNL     1      -1.184   4.804  24.967  0.00  0.00    +0.123 HD
BRANCH   6  10
ATOM      3  O   UNL     1       2.755   0.229  22.912  0.00  0.00    -0.276 OA
ATOM      7  N   UNL     1       0.559   0.733  23.481  0.00  0.00    -0.302 N 
ATOM     10  C   UNL     1      -1.185   2.815  24.483  0.00  0.00    +0.057 C 
ATOM     13  C   UNL     1      -1.529   2.019  23.217  0.00  0.00    +0.037 C 
ATOM     14  C   UNL     1       0.336   2.875  24.682  0.00  0.00    +0.037 C 
ATOM     16  C   UNL     1      -0.887   0.632  23.251  0.00  0.00    +0.109 C 
ATOM     17  C   UNL     1       0.939   1.470  24.688  0.00  0.00    +0.109 C 
ATOM     19  C   UNL     1       1.546   0.160  22.678  0.00  0.00    +0.212 C 
ATOM     20  C   UNL     1       1.074  -0.580  21.453  0.00  0.00    +0.109 C 
ENDBRANCH   6  10
ENDBRANCH   9   6
BRANCH  12  18
ATOM     18  C   UNL     1      -5.862   1.708  25.135  0.00  0.00    +0.138 C 
BRANCH  18   8
ATOM      4  O   UNL     1      -4.285  -0.230  23.677  0.00  0.00    -0.273 OA
ATOM      8  N   UNL     1      -5.027   0.680  25.687  0.00  0.00    -0.311 N 
ATOM     21  C   UNL     1      -4.299  -0.213  24.905  0.00  0.00    +0.239 C 
ATOM     26  H   UNL     1      -4.978   0.601  26.698  0.00  0.00    +0.149 HD
BRANCH  21  22
ATOM     22  C   UNL     1      -3.506  -1.189  25.747  0.00  0.00    +0.255 C 
BRANCH  22   5
ATOM      5  O   UNL     1      -3.327  -2.409  25.060  0.00  0.00    -0.374 OA
ATOM     23  C   UNL     1      -1.988  -2.566  24.596  0.00  0.00    +0.194 C 
ENDBRANCH  22   5
ENDBRANCH  21  22
ENDBRANCH  18   8
ENDBRANCH  12  18
TORSDOF 7
ENDMDL
MODEL 4
REMARK VINA RESULT:      -3.4      1.810      4.931
REMARK  Name = 75536575
REMARK  9 active torsions:
REMARK  status: ('A' for Active; 'I' for Inactive)
REMARK    1  A    between atoms: O_2  and  C_11
REMARK    2  A    between atoms: O_5  and  C_22
REMARK    3  A    between atoms: O_5  and  C_23
REMARK    4  A    between atoms: N_6  and  C_9
REMARK    5  A    between atoms: N_6  and  C_10
REMARK    6  A    between atoms: N_8  and  C_18
REMARK    7  A    between atoms: C_12  and  C_18
REMARK    8  A    between atoms: C_19  and  C_20
REMARK    9  A    between atoms: C_21  and  C_22
REMARK                            x       y       z     vdW  Elec       q    Type
REMARK                         _______ _______ _______ _____ _____    ______ ____
ROOT
ATOM      1  O   UNL     1      -1.290   0.859  23.935  0.00  0.00    -0.371 OA
ATOM      9  C   UNL     1      -0.357   2.977  24.464  0.00  0.00    +0.111 C 
ATOM     11  C   UNL     1      -0.334   2.102  25.704  0.00  0.00    +0.164 C 
ATOM     12  C   UNL     1      -0.443   0.715  25.086  0.00  0.00    +0.165 C 
ATOM     15  C   UNL     1      -1.382   2.256  23.606  0.00  0.00    +0.181 C 
ENDROOT
BRANCH  11   2
ATOM      2  O   UNL     1       0.853   2.254  26.458  0.00  0.00    -0.388 OA
ATOM     25  H   UNL     1       0.908   1.520  27.093  0.00  0.00    +0.210 HD
ENDBRANCH  11   2
BRANCH   9   6
ATOM      6  N   UNL     1      -0.716   4.360  24.732  0.00  0.00    -0.306 NA
ATOM     24  H   UNL     1      -0.380   4.962  23.981  0.00  0.00    +0.123 HD
BRANCH   6  10
ATOM      3  O   UNL     1      -5.989   2.130  26.974  0.00  0.00    -0.276 OA
ATOM      7  N   UNL     1      -4.760   3.350  25.425  0.00  0.00    -0.302 N 
ATOM     10  C   UNL     1      -2.162   4.503  24.877  0.00  0.00    +0.057 C 
ATOM     13  C   UNL     1      -2.883   3.623  23.848  0.00  0.00    +0.037 C 
ATOM     14  C   UNL     1      -2.589   4.124  26.301  0.00  0.00    +0.037 C 
ATOM     16  C   UNL     1      -4.399   3.682  24.042  0.00  0.00    +0.109 C 
ATOM     17  C   UNL     1      -4.110   4.174  26.445  0.00  0.00    +0.109 C 
ATOM     19  C   UNL     1      -5.674   2.367  25.806  0.00  0.00    +0.212 C 
ATOM     20  C   UNL     1      -6.299   1.559  24.697  0.00  0.00    +0.109 C 
ENDBRANCH   6  10
ENDBRANCH   9   6
BRANCH  12  18
ATOM     18  C   UNL     1      -1.030  -0.318  26.031  0.00  0.00    +0.138 C 
BRANCH  18   8
ATOM      4  O   UNL     1      -3.735  -1.266  26.418  0.00  0.00    -0.273 OA
ATOM      8  N   UNL     1      -1.691  -1.369  25.310  0.00  0.00    -0.311 N 
ATOM     21  C   UNL     1      -3.002  -1.760  25.564  0.00  0.00    +0.239 C 
ATOM     26  H   UNL     1      -1.165  -1.851  24.587  0.00  0.00    +0.149 HD
BRANCH  21  22
ATOM     22  C   UNL     1      -3.445  -2.888  24.658  0.00  0.00    +0.255 C 
BRANCH  22   5
ATOM      5  O   UNL     1      -4.383  -2.426  23.710  0.00  0.00    -0.374 OA
ATOM     23  C   UNL     1      -4.145  -1.070  23.343  0.00  0.00    +0.194 C 
ENDBRANCH  22   5
ENDBRANCH  21  22
ENDBRANCH  18   8
ENDBRANCH  12  18
TORSDOF 7
ENDMDL
MODEL 5
REMARK VINA RESULT:      -2.8      2.334      6.673
REMARK  Name = 75536575
REMARK  9 active torsions:
REMARK  status: ('A' for Active; 'I' for Inactive)
REMARK    1  A    between atoms: O_2  and  C_11
REMARK    2  A    between atoms: O_5  and  C_22
REMARK    3  A    between atoms: O_5  and  C_23
REMARK    4  A    between atoms: N_6  and  C_9
REMARK    5  A    between atoms: N_6  and  C_10
REMARK    6  A    between atoms: N_8  and  C_18
REMARK    7  A    between atoms: C_12  and  C_18
REMARK    8  A    between atoms: C_19  and  C_20
REMARK    9  A    between atoms: C_21  and  C_22
REMARK                            x       y       z     vdW  Elec       q    Type
REMARK                         _______ _______ _______ _____ _____    ______ ____
ROOT
ATOM      1  O   UNL     1      -3.228  -1.913  26.124  0.00  0.00    -0.371 OA
ATOM      9  C   UNL     1      -4.649  -0.449  24.908  0.00  0.00    +0.111 C 
ATOM     11  C   UNL     1      -3.648  -1.075  23.954  0.00  0.00    +0.164 C 
ATOM     12  C   UNL     1      -3.220  -2.305  24.743  0.00  0.00    +0.165 C 
ATOM     15  C   UNL     1      -3.976  -0.690  26.249  0.00  0.00    +0.181 C 
ENDROOT
BRANCH  11   2
ATOM      2  O   UNL     1      -4.225  -1.419  22.709  0.00  0.00    -0.388 OA
ATOM     25  H   UNL     1      -4.589  -0.612  22.307  0.00  0.00    +0.210 HD
ENDBRANCH  11   2
BRANCH   9   6
ATOM      6  N   UNL     1      -4.902   0.959  24.648  0.00  0.00    -0.306 NA
ATOM     24  H   UNL     1      -5.863   1.195  24.897  0.00  0.00    +0.123 HD
BRANCH   6  10
ATOM      3  O   UNL     1      -1.931   6.321  25.119  0.00  0.00    -0.276 OA
ATOM      7  N   UNL     1      -2.141   4.040  25.507  0.00  0.00    -0.302 N 
ATOM     10  C   UNL     1      -3.972   1.801  25.396  0.00  0.00    +0.057 C 
ATOM     13  C   UNL     1      -2.574   1.726  24.770  0.00  0.00    +0.037 C 
ATOM     14  C   UNL     1      -4.475   3.251  25.416  0.00  0.00    +0.037 C 
ATOM     16  C   UNL     1      -1.605   2.673  25.478  0.00  0.00    +0.109 C 
ATOM     17  C   UNL     1      -3.468   4.166  26.111  0.00  0.00    +0.109 C 
ATOM     19  C   UNL     1      -1.474   5.177  25.051  0.00  0.00    +0.212 C 
ATOM     20  C   UNL     1      -0.113   4.963  24.439  0.00  0.00    +0.109 C 
ENDBRANCH   6  10
ENDBRANCH   9   6
BRANCH  12  18
ATOM     18  C   UNL     1      -1.842  -2.813  24.360  0.00  0.00    +0.138 C 
BRANCH  18   8
ATOM      4  O   UNL     1      -0.352  -0.688  25.635  0.00  0.00    -0.273 OA
ATOM      8  N   UNL     1      -1.069  -1.790  23.715  0.00  0.00    -0.311 N 
ATOM     21  C   UNL     1      -0.381  -0.802  24.412  0.00  0.00    +0.239 C 
ATOM     26  H   UNL     1      -1.038  -1.789  22.700  0.00  0.00    +0.149 HD
BRANCH  21  22
ATOM     22  C   UNL     1       0.349   0.144  23.484  0.00  0.00    +0.255 C 
BRANCH  22   5
ATOM      5  O   UNL     1       1.302  -0.553  22.709  0.00  0.00    -0.374 OA
ATOM     23  C   UNL     1       2.524   0.171  22.593  0.00  0.00    +0.194 C 
ENDBRANCH  22   5
ENDBRANCH  21  22
ENDBRANCH  18   8
ENDBRANCH  12  18
TORSDOF 7
ENDMDL
MODEL 6
REMARK VINA RESULT:      -2.6      2.881      6.231
REMARK  Name = 75536575
REMARK  9 active torsions:
REMARK  status: ('A' for Active; 'I' for Inactive)
REMARK    1  A    between atoms: O_2  and  C_11
REMARK    2  A    between atoms: O_5  and  C_22
REMARK    3  A    between atoms: O_5  and  C_23
REMARK    4  A    between atoms: N_6  and  C_9
REMARK    5  A    between atoms: N_6  and  C_10
REMARK    6  A    between atoms: N_8  and  C_18
REMARK    7  A    between atoms: C_12  and  C_18
REMARK    8  A    between atoms: C_19  and  C_20
REMARK    9  A    between atoms: C_21  and  C_22
REMARK                            x       y       z     vdW  Elec       q    Type
REMARK                         _______ _______ _______ _____ _____    ______ ____
ROOT
ATOM      1  O   UNL     1      -0.397   1.141  25.688  0.00  0.00    -0.371 OA
ATOM      9  C   UNL     1      -1.432  -0.887  25.013  0.00  0.00    +0.111 C 
ATOM     11  C   UNL     1      -0.575  -0.366  23.874  0.00  0.00    +0.164 C 
ATOM     12  C   UNL     1       0.373   0.563  24.622  0.00  0.00    +0.165 C 
ATOM     15  C   UNL     1      -1.593   0.361  25.864  0.00  0.00    +0.181 C 
ENDROOT
BRANCH  11   2
ATOM      2  O   UNL     1       0.119  -1.396  23.197  0.00  0.00    -0.388 OA
ATOM     25  H   UNL     1       0.208  -1.142  22.263  0.00  0.00    +0.210 HD
ENDBRANCH  11   2
BRANCH   9   6
ATOM      6  N   UNL     1      -2.703  -1.445  24.580  0.00  0.00    -0.306 NA
ATOM     24  H   UNL     1      -3.128  -1.979  25.336  0.00  0.00    +0.123 HD
BRANCH   6  10
ATOM      3  O   UNL     1      -3.876   4.573  24.110  0.00  0.00    -0.276 OA
ATOM      7  N   UNL     1      -4.535   2.352  24.290  0.00  0.00    -0.302 N 
ATOM     10  C   UNL     1      -3.612  -0.387  24.144  0.00  0.00    +0.057 C 
ATOM     13  C   UNL     1      -4.439   0.119  25.333  0.00  0.00    +0.037 C 
ATOM     14  C   UNL     1      -2.816   0.764  23.514  0.00  0.00    +0.037 C 
ATOM     16  C   UNL     1      -5.330   1.291  24.921  0.00  0.00    +0.109 C 
ATOM     17  C   UNL     1      -3.740   1.922  23.139  0.00  0.00    +0.109 C 
ATOM     19  C   UNL     1      -4.525   3.692  24.680  0.00  0.00    +0.212 C 
ATOM     20  C   UNL     1      -5.368   4.054  25.875  0.00  0.00    +0.109 C 
ENDBRANCH   6  10
ENDBRANCH   9   6
BRANCH  12  18
ATOM     18  C   UNL     1       0.948   1.662  23.748  0.00  0.00    +0.138 C 
BRANCH  18   8
ATOM      4  O   UNL     1       2.161  -0.096  21.797  0.00  0.00    -0.273 OA
ATOM      8  N   UNL     1       2.351   1.463  23.515  0.00  0.00    -0.311 N 
ATOM     21  C   UNL     1       2.847   0.593  22.549  0.00  0.00    +0.239 C 
ATOM     26  H   UNL     1       3.005   1.980  24.095  0.00  0.00    +0.149 HD
BRANCH  21  22
ATOM     22  C   UNL     1       4.360   0.580  22.519  0.00  0.00    +0.255 C 
BRANCH  22   5
ATOM      5  O   UNL     1       4.885   0.691  23.825  0.00  0.00    -0.374 OA
ATOM     23  C   UNL     1       5.491  -0.524  24.258  0.00  0.00    +0.194 C 
ENDBRANCH  22   5
ENDBRANCH  21  22
ENDBRANCH  18   8
ENDBRANCH  12  18
TORSDOF 7
ENDMDL
MODEL 7
REMARK VINA RESULT:      -2.3      2.358      6.452
REMARK  Name = 75536575
REMARK  9 active torsions:
REMARK  status: ('A' for Active; 'I' for Inactive)
REMARK    1  A    between atoms: O_2  and  C_11
REMARK    2  A    between atoms: O_5  and  C_22
REMARK    3  A    between atoms: O_5  and  C_23
REMARK    4  A    between atoms: N_6  and  C_9
REMARK    5  A    between atoms: N_6  and  C_10
REMARK    6  A    between atoms: N_8  and  C_18
REMARK    7  A    between atoms: C_12  and  C_18
REMARK    8  A    between atoms: C_19  and  C_20
REMARK    9  A    between atoms: C_21  and  C_22
REMARK                            x       y       z     vdW  Elec       q    Type
REMARK                         _______ _______ _______ _____ _____    ______ ____
ROOT
ATOM      1  O   UNL     1      -1.390  -0.709  25.893  0.00  0.00    -0.371 OA
ATOM      9  C   UNL     1      -3.718  -0.848  25.445  0.00  0.00    +0.111 C 
ATOM     11  C   UNL     1      -2.956  -1.523  24.319  0.00  0.00    +0.164 C 
ATOM     12  C   UNL     1      -1.622  -1.808  24.998  0.00  0.00    +0.165 C 
ATOM     15  C   UNL     1      -2.628  -0.001  26.080  0.00  0.00    +0.181 C 
ENDROOT
BRANCH  11   2
ATOM      2  O   UNL     1      -3.584  -2.708  23.869  0.00  0.00    -0.388 OA
ATOM     25  H   UNL     1      -4.504  -2.497  23.639  0.00  0.00    +0.210 HD
ENDBRANCH  11   2
BRANCH   9   6
ATOM      6  N   UNL     1      -4.853  -0.061  24.991  0.00  0.00    -0.306 NA
ATOM     24  H   UNL     1      -5.455   0.175  25.780  0.00  0.00    +0.123 HD
BRANCH   6  10
ATOM      3  O   UNL     1      -0.254   3.816  23.719  0.00  0.00    -0.276 OA
ATOM      7  N   UNL     1      -2.500   3.318  24.043  0.00  0.00    -0.302 N 
ATOM     10  C   UNL     1      -4.407   1.158  24.322  0.00  0.00    +0.057 C 
ATOM     13  C   UNL     1      -4.357   2.319  25.323  0.00  0.00    +0.037 C 
ATOM     14  C   UNL     1      -3.027   0.935  23.689  0.00  0.00    +0.037 C 
ATOM     16  C   UNL     1      -3.802   3.584  24.667  0.00  0.00    +0.109 C 
ATOM     17  C   UNL     1      -2.499   2.227  23.066  0.00  0.00    +0.109 C 
ATOM     19  C   UNL     1      -1.328   4.035  24.284  0.00  0.00    +0.212 C 
ATOM     20  C   UNL     1      -1.410   5.141  25.305  0.00  0.00    +0.109 C 
ENDBRANCH   6  10
ENDBRANCH   9   6
BRANCH  12  18
ATOM     18  C   UNL     1      -0.467  -1.930  24.021  0.00  0.00    +0.138 C 
BRANCH  18   8
ATOM      4  O   UNL     1       0.885  -0.534  21.878  0.00  0.00    -0.273 OA
ATOM      8  N   UNL     1       0.439  -0.823  24.144  0.00  0.00    -0.311 N 
ATOM     21  C   UNL     1       1.046  -0.210  23.053  0.00  0.00    +0.239 C 
ATOM     26  H   UNL     1       0.649  -0.485  25.079  0.00  0.00    +0.149 HD
BRANCH  21  22
ATOM     22  C   UNL     1       1.951   0.929  23.471  0.00  0.00    +0.255 C 
BRANCH  22   5
ATOM      5  O   UNL     1       3.060   1.029  22.604  0.00  0.00    -0.374 OA
ATOM     23  C   UNL     1       4.227   0.431  23.163  0.00  0.00    +0.194 C 
ENDBRANCH  22   5
ENDBRANCH  21  22
ENDBRANCH  18   8
ENDBRANCH  12  18
TORSDOF 7
ENDMDL
MODEL 8
REMARK VINA RESULT:      -2.2      1.948      5.161
REMARK  Name = 75536575
REMARK  9 active torsions:
REMARK  status: ('A' for Active; 'I' for Inactive)
REMARK    1  A    between atoms: O_2  and  C_11
REMARK    2  A    between atoms: O_5  and  C_22
REMARK    3  A    between atoms: O_5  and  C_23
REMARK    4  A    between atoms: N_6  and  C_9
REMARK    5  A    between atoms: N_6  and  C_10
REMARK    6  A    between atoms: N_8  and  C_18
REMARK    7  A    between atoms: C_12  and  C_18
REMARK    8  A    between atoms: C_19  and  C_20
REMARK    9  A    between atoms: C_21  and  C_22
REMARK                            x       y       z     vdW  Elec       q    Type
REMARK                         _______ _______ _______ _____ _____    ______ ____
ROOT
ATOM      1  O   UNL     1       0.814   0.508  23.062  0.00  0.00    -0.371 OA
ATOM      9  C   UNL     1       0.413   1.602  25.131  0.00  0.00    +0.111 C 
ATOM     11  C   UNL     1      -0.486   0.383  25.033  0.00  0.00    +0.164 C 
ATOM     12  C   UNL     1       0.248  -0.439  23.982  0.00  0.00    +0.165 C 
ATOM     15  C   UNL     1       0.800   1.809  23.677  0.00  0.00    +0.181 C 
ENDROOT
BRANCH  11   2
ATOM      2  O   UNL     1      -0.601  -0.310  26.261  0.00  0.00    -0.388 OA
ATOM     25  H   UNL     1       0.043   0.065  26.885  0.00  0.00    +0.210 HD
ENDBRANCH  11   2
BRANCH   9   6
ATOM      6  N   UNL     1      -0.238   2.764  25.714  0.00  0.00    -0.306 NA
ATOM     24  H   UNL     1       0.402   3.557  25.725  0.00  0.00    +0.123 HD
BRANCH   6  10
ATOM      3  O   UNL     1      -6.203   4.252  25.836  0.00  0.00    -0.276 OA
ATOM      7  N   UNL     1      -4.329   3.327  24.819  0.00  0.00    -0.302 N 
ATOM     10  C   UNL     1      -1.447   3.108  24.970  0.00  0.00    +0.057 C 
ATOM     13  C   UNL     1      -2.339   1.871  24.812  0.00  0.00    +0.037 C 
ATOM     14  C   UNL     1      -2.207   4.229  25.692  0.00  0.00    +0.037 C 
ATOM     16  C   UNL     1      -3.655   2.228  24.119  0.00  0.00    +0.109 C 
ATOM     17  C   UNL     1      -3.524   4.539  24.980  0.00  0.00    +0.109 C 
ATOM     19  C   UNL     1      -5.645   3.301  25.282  0.00  0.00    +0.212 C 
ATOM     20  C   UNL     1      -6.407   2.017  25.081  0.00  0.00    +0.109 C 
ENDBRANCH   6  10
ENDBRANCH   9   6
BRANCH  12  18
ATOM     18  C   UNL     1      -0.656  -1.403  23.237  0.00  0.00    +0.138 C 
BRANCH  18   8
ATOM      4  O   UNL     1      -3.546  -1.269  23.244  0.00  0.00    -0.273 OA
ATOM      8  N   UNL     1      -1.552  -2.077  24.133  0.00  0.00    -0.311 N 
ATOM     21  C   UNL     1      -2.937  -1.954  24.062  0.00  0.00    +0.239 C 
ATOM     26  H   UNL     1      -1.146  -2.662  24.858  0.00  0.00    +0.149 HD
BRANCH  21  22
ATOM     22  C   UNL     1      -3.635  -2.772  25.127  0.00  0.00    +0.255 C 
BRANCH  22   5
ATOM      5  O   UNL     1      -3.549  -2.134  26.383  0.00  0.00    -0.374 OA
ATOM     23  C   UNL     1      -3.935  -0.764  26.310  0.00  0.00    +0.194 C 
ENDBRANCH  22   5
ENDBRANCH  21  22
ENDBRANCH  18   8
ENDBRANCH  12  18
TORSDOF 7
ENDMDL
MODEL 9
REMARK VINA RESULT:      -2.1     14.520     17.005
REMARK  Name = 75536575
REMARK  9 active torsions:
REMARK  status: ('A' for Active; 'I' for Inactive)
REMARK    1  A    between atoms: O_2  and  C_11
REMARK    2  A    between atoms: O_5  and  C_22
REMARK    3  A    between atoms: O_5  and  C_23
REMARK    4  A    between atoms: N_6  and  C_9
REMARK    5  A    between atoms: N_6  and  C_10
REMARK    6  A    between atoms: N_8  and  C_18
REMARK    7  A    between atoms: C_12  and  C_18
REMARK    8  A    between atoms: C_19  and  C_20
REMARK    9  A    between atoms: C_21  and  C_22
REMARK                            x       y       z     vdW  Elec       q    Type
REMARK                         _______ _______ _______ _____ _____    ______ ____
ROOT
ATOM      1  O   UNL     1      -1.883  -9.649  14.667  0.00  0.00    -0.371 OA
ATOM      9  C   UNL     1      -2.709 -10.012  12.470  0.00  0.00    +0.111 C 
ATOM     11  C   UNL     1      -3.620 -10.709  13.464  0.00  0.00    +0.164 C 
ATOM     12  C   UNL     1      -3.282  -9.961  14.746  0.00  0.00    +0.165 C 
ATOM     15  C   UNL     1      -1.454  -9.811  13.303  0.00  0.00    +0.181 C 
ENDROOT
BRANCH  11   2
ATOM      2  O   UNL     1      -4.988 -10.590  13.126  0.00  0.00    -0.388 OA
ATOM     25  H   UNL     1      -5.461 -10.221  13.892  0.00  0.00    +0.210 HD
ENDBRANCH  11   2
BRANCH   9   6
ATOM      6  N   UNL     1      -2.467 -10.781  11.260  0.00  0.00    -0.306 NA
ATOM     24  H   UNL     1      -2.649 -11.770  11.430  0.00  0.00    +0.123 HD
BRANCH   6  10
ATOM      3  O   UNL     1      -6.508  -6.628   9.204  0.00  0.00    -0.276 OA
ATOM      7  N   UNL     1      -5.554  -8.747   9.214  0.00  0.00    -0.302 N 
ATOM     10  C   UNL     1      -3.305 -10.301  10.164  0.00  0.00    +0.057 C 
ATOM     13  C   UNL     1      -4.749 -10.779  10.357  0.00  0.00    +0.037 C 
ATOM     14  C   UNL     1      -3.250  -8.769  10.093  0.00  0.00    +0.037 C 
ATOM     16  C   UNL     1      -5.664 -10.209   9.273  0.00  0.00    +0.109 C 
ATOM     17  C   UNL     1      -4.195  -8.241   9.013  0.00  0.00    +0.109 C 
ATOM     19  C   UNL     1      -6.622  -7.853   9.293  0.00  0.00    +0.212 C 
ATOM     20  C   UNL     1      -7.990  -8.452   9.502  0.00  0.00    +0.109 C 
ENDBRANCH   6  10
ENDBRANCH   9   6
BRANCH  12  18
ATOM     18  C   UNL     1      -3.559 -10.768  16.002  0.00  0.00    +0.138 C 
BRANCH  18   8
ATOM      4  O   UNL     1      -4.765 -10.384  18.603  0.00  0.00    -0.273 OA
ATOM      8  N   UNL     1      -4.959 -10.779  16.317  0.00  0.00    -0.311 N 
ATOM     21  C   UNL     1      -5.452 -10.584  17.604  0.00  0.00    +0.239 C 
ATOM     26  H   UNL     1      -5.614 -10.949  15.559  0.00  0.00    +0.149 HD
BRANCH  21  22
ATOM     22  C   UNL     1      -6.964 -10.645  17.648  0.00  0.00    +0.255 C 
BRANCH  22   5
ATOM      5  O   UNL     1      -7.518  -9.350  17.567  0.00  0.00    -0.374 OA
ATOM     23  C   UNL     1      -8.934  -9.386  17.408  0.00  0.00    +0.194 C 
ENDBRANCH  22   5
ENDBRANCH  21  22
ENDBRANCH  18   8
ENDBRANCH  12  18
TORSDOF 7
ENDMDL
MODEL 10
REMARK VINA RESULT:      -1.9      1.852      4.144
REMARK  Name = 75536575
REMARK  9 active torsions:
REMARK  status: ('A' for Active; 'I' for Inactive)
REMARK    1  A    between atoms: O_2  and  C_11
REMARK    2  A    between atoms: O_5  and  C_22
REMARK    3  A    between atoms: O_5  and  C_23
REMARK    4  A    between atoms: N_6  and  C_9
REMARK    5  A    between atoms: N_6  and  C_10
REMARK    6  A    between atoms: N_8  and  C_18
REMARK    7  A    between atoms: C_12  and  C_18
REMARK    8  A    between atoms: C_19  and  C_20
REMARK    9  A    between atoms: C_21  and  C_22
REMARK                            x       y       z     vdW  Elec       q    Type
REMARK                         _______ _______ _______ _____ _____    ______ ____
ROOT
ATOM      1  O   UNL     1      -4.056   3.944  26.637  0.00  0.00    -0.371 OA
ATOM      9  C   UNL     1      -2.798   4.761  24.797  0.00  0.00    +0.111 C 
ATOM     11  C   UNL     1      -3.444   3.443  24.409  0.00  0.00    +0.164 C 
ATOM     12  C   UNL     1      -4.570   3.357  25.431  0.00  0.00    +0.165 C 
ATOM     15  C   UNL     1      -2.876   4.700  26.313  0.00  0.00    +0.181 C 
ENDROOT
BRANCH  11   2
ATOM      2  O   UNL     1      -3.934   3.445  23.082  0.00  0.00    -0.388 OA
ATOM     25  H   UNL     1      -4.737   3.993  23.054  0.00  0.00    +0.210 HD
ENDBRANCH  11   2
BRANCH   9   6
ATOM      6  N   UNL     1      -1.438   4.911  24.306  0.00  0.00    -0.306 NA
ATOM     24  H   UNL     1      -1.031   5.778  24.656  0.00  0.00    +0.123 HD
BRANCH   6  10
ATOM      3  O   UNL     1      -0.474  -1.160  24.158  0.00  0.00    -0.276 OA
ATOM      7  N   UNL     1      -0.292   0.932  25.152  0.00  0.00    -0.302 N 
ATOM     10  C   UNL     1      -0.612   3.774  24.708  0.00  0.00    +0.057 C 
ATOM     13  C   UNL     1      -1.234   3.077  25.924  0.00  0.00    +0.037 C 
ATOM     14  C   UNL     1      -0.467   2.790  23.540  0.00  0.00    +0.037 C 
ATOM     16  C   UNL     1      -0.439   1.827  26.305  0.00  0.00    +0.109 C 
ATOM     17  C   UNL     1       0.313   1.548  23.969  0.00  0.00    +0.109 C 
ATOM     19  C   UNL     1      -0.641  -0.418  25.129  0.00  0.00    +0.212 C 
ATOM     20  C   UNL     1      -1.261  -0.977  26.384  0.00  0.00    +0.109 C 
ENDBRANCH   6  10
ENDBRANCH   9   6
BRANCH  12  18
ATOM     18  C   UNL     1      -5.025   1.935  25.704  0.00  0.00    +0.138 C 
BRANCH  18   8
ATOM      4  O   UNL     1      -4.164  -0.816  25.945  0.00  0.00    -0.273 OA
ATOM      8  N   UNL     1      -4.641   1.051  24.640  0.00  0.00    -0.311 N 
ATOM     21  C   UNL     1      -4.238  -0.264  24.849  0.00  0.00    +0.239 C 
ATOM     26  H   UNL     1      -4.657   1.416  23.692  0.00  0.00    +0.149 HD
BRANCH  21  22
ATOM     22  C   UNL     1      -3.892  -0.965  23.554  0.00  0.00    +0.255 C 
BRANCH  22   5
ATOM      5  O   UNL     1      -4.328  -2.307  23.581  0.00  0.00    -0.374 OA
ATOM     23  C   UNL     1      -3.438  -3.141  24.318  0.00  0.00    +0.194 C 
ENDBRANCH  22   5
ENDBRANCH  21  22
ENDBRANCH  18   8
ENDBRANCH  12  18
TORSDOF 7
ENDMDL
