MODEL 1
REMARK VINA RESULT:      -4.0      0.000      0.000
REMARK  Name = 28961566
REMARK  8 active torsions:
REMARK  status: ('A' for Active; 'I' for Inactive)
REMARK    1  A    between atoms: O_2  and  C_9
REMARK    2  A    between atoms: O_3  and  C_17
REMARK    3  A    between atoms: N_4  and  C_7
REMARK    4  A    between atoms: N_5  and  C_13
REMARK    5  A    between atoms: N_5  and  C_16
REMARK    6  A    between atoms: N_6  and  C_22
REMARK    7  A    between atoms: C_8  and  C_13
REMARK    8  A    between atoms: C_10  and  C_17
REMARK                            x       y       z     vdW  Elec       q    Type
REMARK                         _______ _______ _______ _____ _____    ______ ____
ROOT
ATOM      1  O   UNL     1      -0.267   2.669  25.407  0.00  0.00    -0.366 OA
ATOM      7  C   UNL     1      -1.899   0.939  25.290  0.00  0.00    +0.118 C 
ATOM      8  C   UNL     1      -0.416   1.270  25.078  0.00  0.00    +0.152 C 
ATOM      9  C   UNL     1      -2.581   2.283  25.091  0.00  0.00    +0.165 C 
ATOM     10  C   UNL     1      -1.560   3.215  25.731  0.00  0.00    +0.174 C 
ENDROOT
BRANCH   7   4
ATOM      4  N   UNL     1      -2.434  -0.154  24.492  0.00  0.00    -0.295 NA
ATOM     11  C   UNL     1      -2.116  -1.466  25.057  0.00  0.00    +0.085 C 
ATOM     12  C   UNL     1      -3.894  -0.121  24.409  0.00  0.00    +0.085 C 
ATOM     14  C   UNL     1      -3.071  -2.394  24.321  0.00  0.00    +0.017 C 
ATOM     15  C   UNL     1      -4.237  -1.510  23.892  0.00  0.00    +0.017 C 
ENDBRANCH   7   4
BRANCH   9   2
ATOM      2  O   UNL     1      -2.734   2.590  23.711  0.00  0.00    -0.388 OA
ATOM     24  H   UNL     1      -3.016   1.777  23.258  0.00  0.00    +0.210 HD
ENDBRANCH   9   2
BRANCH   8  13
ATOM     13  C   UNL     1       0.133   1.076  23.669  0.00  0.00    +0.114 C 
BRANCH  13   5
ATOM      5  N   UNL     1       0.552  -0.302  23.458  0.00  0.00    -0.311 NA
ATOM     23  H   UNL     1      -0.049  -0.725  22.752  0.00  0.00    +0.122 HD
BRANCH   5  16
ATOM      6  N   UNL     1       4.786   0.044  23.589  0.00  0.00    -0.305 NA
ATOM     16  C   UNL     1       1.945  -0.365  23.021  0.00  0.00    +0.056 C 
ATOM     18  C   UNL     1       2.742  -1.310  23.925  0.00  0.00    +0.034 C 
ATOM     19  C   UNL     1       2.585   1.027  23.026  0.00  0.00    +0.034 C 
ATOM     20  C   UNL     1       4.225  -1.313  23.543  0.00  0.00    +0.085 C 
ATOM     21  C   UNL     1       4.073   0.947  22.674  0.00  0.00    +0.085 C 
ATOM     22  C   UNL     1       6.214   0.019  23.271  0.00  0.00    +0.104 C 
ENDBRANCH   5  16
ENDBRANCH  13   5
ENDBRANCH   8  13
BRANCH  10  17
ATOM     17  C   UNL     1      -1.620   4.662  25.277  0.00  0.00    +0.190 C 
BRANCH  17   3
ATOM      3  O   UNL     1      -0.499   4.931  24.451  0.00  0.00    -0.392 OA
ATOM     25  H   UNL     1       0.136   5.436  24.986  0.00  0.00    +0.210 HD
ENDBRANCH  17   3
ENDBRANCH  10  17
TORSDOF 7
ENDMDL
MODEL 2
REMARK VINA RESULT:      -3.9      2.379      5.945
REMARK  Name = 28961566
REMARK  8 active torsions:
REMARK  status: ('A' for Active; 'I' for Inactive)
REMARK    1  A    between atoms: O_2  and  C_9
REMARK    2  A    between atoms: O_3  and  C_17
REMARK    3  A    between atoms: N_4  and  C_7
REMARK    4  A    between atoms: N_5  and  C_13
REMARK    5  A    between atoms: N_5  and  C_16
REMARK    6  A    between atoms: N_6  and  C_22
REMARK    7  A    between atoms: C_8  and  C_13
REMARK    8  A    between atoms: C_10  and  C_17
REMARK                            x       y       z     vdW  Elec       q    Type
REMARK                         _______ _______ _______ _____ _____    ______ ____
ROOT
ATOM      1  O   UNL     1       1.030   1.423  23.353  0.00  0.00    -0.366 OA
ATOM      7  C   UNL     1      -0.988   0.190  23.627  0.00  0.00    +0.118 C 
ATOM      8  C   UNL     1      -0.319   1.552  23.853  0.00  0.00    +0.152 C 
ATOM      9  C   UNL     1       0.190  -0.773  23.627  0.00  0.00    +0.165 C 
ATOM     10  C   UNL     1       1.241   0.067  22.912  0.00  0.00    +0.174 C 
ENDROOT
BRANCH   7   4
ATOM      4  N   UNL     1      -2.070  -0.154  24.538  0.00  0.00    -0.295 NA
ATOM     11  C   UNL     1      -3.365   0.348  24.079  0.00  0.00    +0.085 C 
ATOM     12  C   UNL     1      -2.249  -1.599  24.671  0.00  0.00    +0.085 C 
ATOM     14  C   UNL     1      -4.355  -0.436  24.929  0.00  0.00    +0.017 C 
ATOM     15  C   UNL     1      -3.621  -1.714  25.321  0.00  0.00    +0.017 C 
ENDBRANCH   7   4
BRANCH   9   2
ATOM      2  O   UNL     1       0.615  -1.077  24.950  0.00  0.00    -0.388 OA
ATOM     24  H   UNL     1       0.091  -0.530  25.560  0.00  0.00    +0.210 HD
ENDBRANCH   9   2
BRANCH   8  13
ATOM     13  C   UNL     1      -0.224   2.036  25.295  0.00  0.00    +0.114 C 
BRANCH  13   5
ATOM      5  N   UNL     1      -0.231   3.491  25.357  0.00  0.00    -0.311 NA
ATOM     23  H   UNL     1       0.255   3.858  24.539  0.00  0.00    +0.122 HD
BRANCH   5  16
ATOM      6  N   UNL     1      -4.480   3.508  25.452  0.00  0.00    -0.305 NA
ATOM     16  C   UNL     1      -1.597   4.007  25.392  0.00  0.00    +0.056 C 
ATOM     18  C   UNL     1      -2.316   3.520  26.653  0.00  0.00    +0.034 C 
ATOM     19  C   UNL     1      -2.379   3.577  24.146  0.00  0.00    +0.034 C 
ATOM     20  C   UNL     1      -3.779   3.969  26.659  0.00  0.00    +0.085 C 
ATOM     21  C   UNL     1      -3.840   4.025  24.234  0.00  0.00    +0.085 C 
ATOM     22  C   UNL     1      -5.888   3.902  25.496  0.00  0.00    +0.104 C 
ENDBRANCH   5  16
ENDBRANCH  13   5
ENDBRANCH   8  13
BRANCH  10  17
ATOM     17  C   UNL     1       2.683  -0.326  23.175  0.00  0.00    +0.190 C 
BRANCH  17   3
ATOM      3  O   UNL     1       3.471   0.850  23.262  0.00  0.00    -0.392 OA
ATOM     25  H   UNL     1       4.156   0.787  22.575  0.00  0.00    +0.210 HD
ENDBRANCH  17   3
ENDBRANCH  10  17
TORSDOF 7
ENDMDL
MODEL 3
REMARK VINA RESULT:      -3.1      3.171      5.836
REMARK  Name = 28961566
REMARK  8 active torsions:
REMARK  status: ('A' for Active; 'I' for Inactive)
REMARK    1  A    between atoms: O_2  and  C_9
REMARK    2  A    between atoms: O_3  and  C_17
REMARK    3  A    between atoms: N_4  and  C_7
REMARK    4  A    between atoms: N_5  and  C_13
REMARK    5  A    between atoms: N_5  and  C_16
REMARK    6  A    between atoms: N_6  and  C_22
REMARK    7  A    between atoms: C_8  and  C_13
REMARK    8  A    between atoms: C_10  and  C_17
REMARK                            x       y       z     vdW  Elec       q    Type
REMARK                         _______ _______ _______ _____ _____    ______ ____
ROOT
ATOM      1  O   UNL     1       0.042   1.955  23.890  0.00  0.00    -0.366 OA
ATOM      7  C   UNL     1      -0.820  -0.211  24.373  0.00  0.00    +0.118 C 
ATOM      8  C   UNL     1      -0.693   0.866  23.288  0.00  0.00    +0.152 C 
ATOM      9  C   UNL     1      -0.731   0.590  25.663  0.00  0.00    +0.165 C 
ATOM     10  C   UNL     1       0.302   1.640  25.272  0.00  0.00    +0.174 C 
ENDROOT
BRANCH   7   4
ATOM      4  N   UNL     1      -1.971  -1.096  24.270  0.00  0.00    -0.295 NA
ATOM     11  C   UNL     1      -1.586  -2.488  24.040  0.00  0.00    +0.085 C 
ATOM     12  C   UNL     1      -2.768  -1.120  25.496  0.00  0.00    +0.085 C 
ATOM     14  C   UNL     1      -2.864  -3.252  24.356  0.00  0.00    +0.017 C 
ATOM     15  C   UNL     1      -3.642  -2.351  25.310  0.00  0.00    +0.017 C 
ENDBRANCH   7   4
BRANCH   9   2
ATOM      2  O   UNL     1      -1.972   1.210  25.978  0.00  0.00    -0.388 OA
ATOM     24  H   UNL     1      -1.779   2.104  26.307  0.00  0.00    +0.210 HD
ENDBRANCH   9   2
BRANCH   8  13
ATOM     13  C   UNL     1      -1.995   1.444  22.744  0.00  0.00    +0.114 C 
BRANCH  13   5
ATOM      5  N   UNL     1      -2.219   2.790  23.252  0.00  0.00    -0.311 NA
ATOM     23  H   UNL     1      -2.115   3.453  22.484  0.00  0.00    +0.122 HD
BRANCH   5  16
ATOM      6  N   UNL     1      -5.436   2.290  25.985  0.00  0.00    -0.305 NA
ATOM     16  C   UNL     1      -3.554   2.915  23.832  0.00  0.00    +0.056 C 
ATOM     18  C   UNL     1      -3.473   3.583  25.207  0.00  0.00    +0.034 C 
ATOM     19  C   UNL     1      -4.230   1.545  23.956  0.00  0.00    +0.034 C 
ATOM     20  C   UNL     1      -4.851   3.634  25.874  0.00  0.00    +0.085 C 
ATOM     21  C   UNL     1      -5.582   1.663  24.664  0.00  0.00    +0.085 C 
ATOM     22  C   UNL     1      -6.727   2.349  26.668  0.00  0.00    +0.104 C 
ENDBRANCH   5  16
ENDBRANCH  13   5
ENDBRANCH   8  13
BRANCH  10  17
ATOM     17  C   UNL     1       0.277   2.918  26.089  0.00  0.00    +0.190 C 
BRANCH  17   3
ATOM      3  O   UNL     1       1.038   2.723  27.270  0.00  0.00    -0.392 OA
ATOM     25  H   UNL     1       1.505   3.556  27.450  0.00  0.00    +0.210 HD
ENDBRANCH  17   3
ENDBRANCH  10  17
TORSDOF 7
ENDMDL
MODEL 4
REMARK VINA RESULT:      -3.0      2.518      5.317
REMARK  Name = 28961566
REMARK  8 active torsions:
REMARK  status: ('A' for Active; 'I' for Inactive)
REMARK    1  A    between atoms: O_2  and  C_9
REMARK    2  A    between atoms: O_3  and  C_17
REMARK    3  A    between atoms: N_4  and  C_7
REMARK    4  A    between atoms: N_5  and  C_13
REMARK    5  A    between atoms: N_5  and  C_16
REMARK    6  A    between atoms: N_6  and  C_22
REMARK    7  A    between atoms: C_8  and  C_13
REMARK    8  A    between atoms: C_10  and  C_17
REMARK                            x       y       z     vdW  Elec       q    Type
REMARK                         _______ _______ _______ _____ _____    ______ ____
ROOT
ATOM      1  O   UNL     1       0.825   1.978  25.371  0.00  0.00    -0.366 OA
ATOM      7  C   UNL     1      -1.283   2.997  24.938  0.00  0.00    +0.118 C 
ATOM      8  C   UNL     1      -0.424   2.317  26.012  0.00  0.00    +0.152 C 
ATOM      9  C   UNL     1      -0.733   2.416  23.644  0.00  0.00    +0.165 C 
ATOM     10  C   UNL     1       0.751   2.338  23.978  0.00  0.00    +0.174 C 
ENDROOT
BRANCH   7   4
ATOM      4  N   UNL     1      -2.725   2.889  25.104  0.00  0.00    -0.295 NA
ATOM     11  C   UNL     1      -3.258   3.901  26.016  0.00  0.00    +0.085 C 
ATOM     12  C   UNL     1      -3.448   3.091  23.849  0.00  0.00    +0.085 C 
ATOM     14  C   UNL     1      -4.753   3.858  25.735  0.00  0.00    +0.017 C 
ATOM     15  C   UNL     1      -4.878   3.323  24.313  0.00  0.00    +0.017 C 
ENDBRANCH   7   4
BRANCH   9   2
ATOM      2  O   UNL     1      -1.254   1.116  23.394  0.00  0.00    -0.388 OA
ATOM     24  H   UNL     1      -0.672   0.476  23.838  0.00  0.00    +0.210 HD
ENDBRANCH   9   2
BRANCH   8  13
ATOM     13  C   UNL     1      -0.982   1.037  26.624  0.00  0.00    +0.114 C 
BRANCH  13   5
ATOM      5  N   UNL     1      -0.493  -0.136  25.913  0.00  0.00    -0.311 NA
ATOM     23  H   UNL     1       0.247  -0.570  26.465  0.00  0.00    +0.122 HD
BRANCH   5  16
ATOM      6  N   UNL     1      -3.648  -2.195  23.946  0.00  0.00    -0.305 NA
ATOM     16  C   UNL     1      -1.569  -1.099  25.689  0.00  0.00    +0.056 C 
ATOM     18  C   UNL     1      -1.241  -1.988  24.486  0.00  0.00    +0.034 C 
ATOM     19  C   UNL     1      -2.905  -0.386  25.464  0.00  0.00    +0.034 C 
ATOM     20  C   UNL     1      -2.401  -2.938  24.175  0.00  0.00    +0.085 C 
ATOM     21  C   UNL     1      -4.010  -1.389  25.120  0.00  0.00    +0.085 C 
ATOM     22  C   UNL     1      -4.734  -3.112  23.601  0.00  0.00    +0.104 C 
ENDBRANCH   5  16
ENDBRANCH  13   5
ENDBRANCH   8  13
BRANCH  10  17
ATOM     17  C   UNL     1       1.554   1.343  23.160  0.00  0.00    +0.190 C 
BRANCH  17   3
ATOM      3  O   UNL     1       1.220   0.029  23.579  0.00  0.00    -0.392 OA
ATOM     25  H   UNL     1       0.352   0.080  24.012  0.00  0.00    +0.210 HD
ENDBRANCH  17   3
ENDBRANCH  10  17
TORSDOF 7
ENDMDL
MODEL 5
REMARK VINA RESULT:      -2.9      3.569      5.489
REMARK  Name = 28961566
REMARK  8 active torsions:
REMARK  status: ('A' for Active; 'I' for Inactive)
REMARK    1  A    between atoms: O_2  and  C_9
REMARK    2  A    between atoms: O_3  and  C_17
REMARK    3  A    between atoms: N_4  and  C_7
REMARK    4  A    between atoms: N_5  and  C_13
REMARK    5  A    between atoms: N_5  and  C_16
REMARK    6  A    between atoms: N_6  and  C_22
REMARK    7  A    between atoms: C_8  and  C_13
REMARK    8  A    between atoms: C_10  and  C_17
REMARK                            x       y       z     vdW  Elec       q    Type
REMARK                         _______ _______ _______ _____ _____    ______ ____
ROOT
ATOM      1  O   UNL     1      -2.163  -1.691  23.908  0.00  0.00    -0.366 OA
ATOM      7  C   UNL     1      -3.420   0.331  23.882  0.00  0.00    +0.118 C 
ATOM      8  C   UNL     1      -2.008  -0.258  24.005  0.00  0.00    +0.152 C 
ATOM      9  C   UNL     1      -4.307  -0.803  24.374  0.00  0.00    +0.165 C 
ATOM     10  C   UNL     1      -3.565  -2.007  23.808  0.00  0.00    +0.174 C 
ENDROOT
BRANCH   7   4
ATOM      4  N   UNL     1      -3.639   1.616  24.528  0.00  0.00    -0.295 NA
ATOM     11  C   UNL     1      -3.731   2.715  23.567  0.00  0.00    +0.085 C 
ATOM     12  C   UNL     1      -4.896   1.659  25.274  0.00  0.00    +0.085 C 
ATOM     14  C   UNL     1      -4.335   3.841  24.394  0.00  0.00    +0.017 C 
ATOM     15  C   UNL     1      -5.098   3.147  25.517  0.00  0.00    +0.017 C 
ENDBRANCH   7   4
BRANCH   9   2
ATOM      2  O   UNL     1      -4.336  -0.862  25.794  0.00  0.00    -0.388 OA
ATOM     24  H   UNL     1      -5.256  -1.025  26.063  0.00  0.00    +0.210 HD
ENDBRANCH   9   2
BRANCH   8  13
ATOM     13  C   UNL     1      -1.258   0.030  25.300  0.00  0.00    +0.114 C 
BRANCH  13   5
ATOM      5  N   UNL     1       0.068   0.564  25.027  0.00  0.00    -0.311 NA
ATOM     23  H   UNL     1       0.341   0.298  24.081  0.00  0.00    +0.122 HD
BRANCH   5  16
ATOM      6  N   UNL     1      -1.285   4.590  24.860  0.00  0.00    -0.305 NA
ATOM     16  C   UNL     1       0.083   2.020  25.153  0.00  0.00    +0.056 C 
ATOM     18  C   UNL     1      -1.011   2.478  26.122  0.00  0.00    +0.034 C 
ATOM     19  C   UNL     1      -0.111   2.691  23.790  0.00  0.00    +0.034 C 
ATOM     20  C   UNL     1      -1.075   4.006  26.192  0.00  0.00    +0.085 C 
ATOM     21  C   UNL     1      -0.205   4.212  23.937  0.00  0.00    +0.085 C 
ATOM     22  C   UNL     1      -1.395   6.045  24.950  0.00  0.00    +0.104 C 
ENDBRANCH   5  16
ENDBRANCH  13   5
ENDBRANCH   8  13
BRANCH  10  17
ATOM     17  C   UNL     1      -3.832  -3.327  24.507  0.00  0.00    +0.190 C 
BRANCH  17   3
ATOM      3  O   UNL     1      -3.200  -3.310  25.777  0.00  0.00    -0.392 OA
ATOM     25  H   UNL     1      -2.315  -2.929  25.650  0.00  0.00    +0.210 HD
ENDBRANCH  17   3
ENDBRANCH  10  17
TORSDOF 7
ENDMDL
MODEL 6
REMARK VINA RESULT:      -2.8      1.720      2.434
REMARK  Name = 28961566
REMARK  8 active torsions:
REMARK  status: ('A' for Active; 'I' for Inactive)
REMARK    1  A    between atoms: O_2  and  C_9
REMARK    2  A    between atoms: O_3  and  C_17
REMARK    3  A    between atoms: N_4  and  C_7
REMARK    4  A    between atoms: N_5  and  C_13
REMARK    5  A    between atoms: N_5  and  C_16
REMARK    6  A    between atoms: N_6  and  C_22
REMARK    7  A    between atoms: C_8  and  C_13
REMARK    8  A    between atoms: C_10  and  C_17
REMARK                            x       y       z     vdW  Elec       q    Type
REMARK                         _______ _______ _______ _____ _____    ______ ____
ROOT
ATOM      1  O   UNL     1      -2.699   3.304  25.517  0.00  0.00    -0.366 OA
ATOM      7  C   UNL     1      -3.249   0.989  25.422  0.00  0.00    +0.118 C 
ATOM      8  C   UNL     1      -2.131   2.015  25.195  0.00  0.00    +0.152 C 
ATOM      9  C   UNL     1      -4.513   1.812  25.222  0.00  0.00    +0.165 C 
ATOM     10  C   UNL     1      -4.091   3.134  25.849  0.00  0.00    +0.174 C 
ENDROOT
BRANCH   7   4
ATOM      4  N   UNL     1      -3.172  -0.231  24.633  0.00  0.00    -0.295 NA
ATOM     11  C   UNL     1      -2.484  -1.311  25.342  0.00  0.00    +0.085 C 
ATOM     12  C   UNL     1      -4.492  -0.772  24.309  0.00  0.00    +0.085 C 
ATOM     14  C   UNL     1      -2.860  -2.543  24.533  0.00  0.00    +0.017 C 
ATOM     15  C   UNL     1      -4.177  -2.188  23.851  0.00  0.00    +0.017 C 
ENDBRANCH   7   4
BRANCH   9   2
ATOM      2  O   UNL     1      -4.806   1.990  23.841  0.00  0.00    -0.388 OA
ATOM     24  H   UNL     1      -3.990   2.287  23.404  0.00  0.00    +0.210 HD
ENDBRANCH   9   2
BRANCH   8  13
ATOM     13  C   UNL     1      -1.566   2.109  23.782  0.00  0.00    +0.114 C 
BRANCH  13   5
ATOM      5  N   UNL     1      -1.222   0.791  23.270  0.00  0.00    -0.311 NA
ATOM     23  H   UNL     1      -1.428   0.761  22.271  0.00  0.00    +0.122 HD
BRANCH   5  16
ATOM      6  N   UNL     1       2.982   0.751  22.646  0.00  0.00    -0.305 NA
ATOM     16  C   UNL     1       0.192   0.496  23.490  0.00  0.00    +0.056 C 
ATOM     18  C   UNL     1       0.983   1.795  23.665  0.00  0.00    +0.034 C 
ATOM     19  C   UNL     1       0.771  -0.317  22.328  0.00  0.00    +0.034 C 
ATOM     20  C   UNL     1       2.481   1.511  23.800  0.00  0.00    +0.085 C 
ATOM     21  C   UNL     1       2.277  -0.531  22.506  0.00  0.00    +0.085 C 
ATOM     22  C   UNL     1       4.423   0.530  22.764  0.00  0.00    +0.104 C 
ENDBRANCH   5  16
ENDBRANCH  13   5
ENDBRANCH   8  13
BRANCH  10  17
ATOM     17  C   UNL     1      -4.868   4.354  25.389  0.00  0.00    +0.190 C 
BRANCH  17   3
ATOM      3  O   UNL     1      -6.234   4.185  25.733  0.00  0.00    -0.392 OA
ATOM     25  H   UNL     1      -6.751   4.752  25.136  0.00  0.00    +0.210 HD
ENDBRANCH  17   3
ENDBRANCH  10  17
TORSDOF 7
ENDMDL
MODEL 7
REMARK VINA RESULT:      -2.3      2.345      4.198
REMARK  Name = 28961566
REMARK  8 active torsions:
REMARK  status: ('A' for Active; 'I' for Inactive)
REMARK    1  A    between atoms: O_2  and  C_9
REMARK    2  A    between atoms: O_3  and  C_17
REMARK    3  A    between atoms: N_4  and  C_7
REMARK    4  A    between atoms: N_5  and  C_13
REMARK    5  A    between atoms: N_5  and  C_16
REMARK    6  A    between atoms: N_6  and  C_22
REMARK    7  A    between atoms: C_8  and  C_13
REMARK    8  A    between atoms: C_10  and  C_17
REMARK                            x       y       z     vdW  Elec       q    Type
REMARK                         _______ _______ _______ _____ _____    ______ ____
ROOT
ATOM      1  O   UNL     1      -3.318  -0.944  23.233  0.00  0.00    -0.366 OA
ATOM      7  C   UNL     1      -4.586   0.489  24.649  0.00  0.00    +0.118 C 
ATOM      8  C   UNL     1      -3.646   0.448  23.438  0.00  0.00    +0.152 C 
ATOM      9  C   UNL     1      -4.206  -0.766  25.420  0.00  0.00    +0.165 C 
ATOM     10  C   UNL     1      -3.933  -1.730  24.272  0.00  0.00    +0.174 C 
ENDROOT
BRANCH   7   4
ATOM      4  N   UNL     1      -4.582   1.720  25.425  0.00  0.00    -0.295 NA
ATOM     11  C   UNL     1      -3.545   2.653  24.986  0.00  0.00    +0.085 C 
ATOM     12  C   UNL     1      -5.837   2.462  25.303  0.00  0.00    +0.085 C 
ATOM     14  C   UNL     1      -3.969   3.964  25.633  0.00  0.00    +0.017 C 
ATOM     15  C   UNL     1      -5.474   3.837  25.845  0.00  0.00    +0.017 C 
ENDBRANCH   7   4
BRANCH   9   2
ATOM      2  O   UNL     1      -3.027  -0.567  26.190  0.00  0.00    -0.388 OA
ATOM     24  H   UNL     1      -3.154  -1.015  27.044  0.00  0.00    +0.210 HD
ENDBRANCH   9   2
BRANCH   8  13
ATOM     13  C   UNL     1      -2.331   1.209  23.568  0.00  0.00    +0.114 C 
BRANCH  13   5
ATOM      5  N   UNL     1      -1.250   0.317  23.961  0.00  0.00    -0.311 NA
ATOM     23  H   UNL     1      -1.511  -0.641  23.727  0.00  0.00    +0.122 HD
BRANCH   5  16
ATOM      6  N   UNL     1       2.919   0.653  23.201  0.00  0.00    -0.305 NA
ATOM     16  C   UNL     1      -0.006   0.669  23.279  0.00  0.00    +0.056 C 
ATOM     18  C   UNL     1       0.795  -0.595  22.953  0.00  0.00    +0.034 C 
ATOM     19  C   UNL     1       0.839   1.619  24.132  0.00  0.00    +0.034 C 
ATOM     20  C   UNL     1       2.146  -0.240  22.326  0.00  0.00    +0.085 C 
ATOM     21  C   UNL     1       2.188   1.900  23.467  0.00  0.00    +0.085 C 
ATOM     22  C   UNL     1       4.226   0.942  22.612  0.00  0.00    +0.104 C 
ENDBRANCH   5  16
ENDBRANCH  13   5
ENDBRANCH   8  13
BRANCH  10  17
ATOM     17  C   UNL     1      -3.037  -2.908  24.607  0.00  0.00    +0.190 C 
BRANCH  17   3
ATOM      3  O   UNL     1      -1.683  -2.489  24.536  0.00  0.00    -0.392 OA
ATOM     25  H   UNL     1      -1.134  -3.259  24.760  0.00  0.00    +0.210 HD
ENDBRANCH  17   3
ENDBRANCH  10  17
TORSDOF 7
ENDMDL
MODEL 8
REMARK VINA RESULT:      -1.5      1.976      3.890
REMARK  Name = 28961566
REMARK  8 active torsions:
REMARK  status: ('A' for Active; 'I' for Inactive)
REMARK    1  A    between atoms: O_2  and  C_9
REMARK    2  A    between atoms: O_3  and  C_17
REMARK    3  A    between atoms: N_4  and  C_7
REMARK    4  A    between atoms: N_5  and  C_13
REMARK    5  A    between atoms: N_5  and  C_16
REMARK    6  A    between atoms: N_6  and  C_22
REMARK    7  A    between atoms: C_8  and  C_13
REMARK    8  A    between atoms: C_10  and  C_17
REMARK                            x       y       z     vdW  Elec       q    Type
REMARK                         _______ _______ _______ _____ _____    ______ ____
ROOT
ATOM      1  O   UNL     1      -1.348  -1.025  23.485  0.00  0.00    -0.366 OA
ATOM      7  C   UNL     1      -1.942   1.051  24.488  0.00  0.00    +0.118 C 
ATOM      8  C   UNL     1      -1.071   0.391  23.412  0.00  0.00    +0.152 C 
ATOM      9  C   UNL     1      -2.143  -0.068  25.500  0.00  0.00    +0.165 C 
ATOM     10  C   UNL     1      -2.265  -1.269  24.570  0.00  0.00    +0.174 C 
ENDROOT
BRANCH   7   4
ATOM      4  N   UNL     1      -1.447   2.304  25.039  0.00  0.00    -0.295 NA
ATOM     11  C   UNL     1      -0.815   3.148  24.025  0.00  0.00    +0.085 C 
ATOM     12  C   UNL     1      -2.515   3.127  25.605  0.00  0.00    +0.085 C 
ATOM     14  C   UNL     1      -0.741   4.505  24.709  0.00  0.00    +0.017 C 
ATOM     15  C   UNL     1      -1.855   4.490  25.749  0.00  0.00    +0.017 C 
ENDBRANCH   7   4
BRANCH   9   2
ATOM      2  O   UNL     1      -1.011  -0.212  26.348  0.00  0.00    -0.388 OA
ATOM     24  H   UNL     1      -0.227  -0.307  25.780  0.00  0.00    +0.210 HD
ENDBRANCH   9   2
BRANCH   8  13
ATOM     13  C   UNL     1       0.437   0.565  23.553  0.00  0.00    +0.114 C 
BRANCH  13   5
ATOM      5  N   UNL     1       1.094   0.486  22.256  0.00  0.00    -0.311 NA
ATOM     23  H   UNL     1       1.086   1.411  21.826  0.00  0.00    +0.122 HD
BRANCH   5  16
ATOM      6  N   UNL     1       4.870  -0.308  24.040  0.00  0.00    -0.305 NA
ATOM     16  C   UNL     1       2.472   0.020  22.394  0.00  0.00    +0.056 C 
ATOM     18  C   UNL     1       2.566  -1.035  23.500  0.00  0.00    +0.034 C 
ATOM     19  C   UNL     1       3.418   1.185  22.701  0.00  0.00    +0.034 C 
ATOM     20  C   UNL     1       4.018  -1.464  23.727  0.00  0.00    +0.085 C 
ATOM     21  C   UNL     1       4.842   0.683  22.954  0.00  0.00    +0.085 C 
ATOM     22  C   UNL     1       6.242  -0.740  24.302  0.00  0.00    +0.104 C 
ENDBRANCH   5  16
ENDBRANCH  13   5
ENDBRANCH   8  13
BRANCH  10  17
ATOM     17  C   UNL     1      -1.952  -2.615  25.197  0.00  0.00    +0.190 C 
BRANCH  17   3
ATOM      3  O   UNL     1      -0.544  -2.779  25.253  0.00  0.00    -0.392 OA
ATOM     25  H   UNL     1      -0.171  -2.311  24.487  0.00  0.00    +0.210 HD
ENDBRANCH  17   3
ENDBRANCH  10  17
TORSDOF 7
ENDMDL
MODEL 9
REMARK VINA RESULT:      -1.1      3.233      4.800
REMARK  Name = 28961566
REMARK  8 active torsions:
REMARK  status: ('A' for Active; 'I' for Inactive)
REMARK    1  A    between atoms: O_2  and  C_9
REMARK    2  A    between atoms: O_3  and  C_17
REMARK    3  A    between atoms: N_4  and  C_7
REMARK    4  A    between atoms: N_5  and  C_13
REMARK    5  A    between atoms: N_5  and  C_16
REMARK    6  A    between atoms: N_6  and  C_22
REMARK    7  A    between atoms: C_8  and  C_13
REMARK    8  A    between atoms: C_10  and  C_17
REMARK                            x       y       z     vdW  Elec       q    Type
REMARK                         _______ _______ _______ _____ _____    ______ ____
ROOT
ATOM      1  O   UNL     1      -0.570   3.869  25.714  0.00  0.00    -0.366 OA
ATOM      7  C   UNL     1      -2.939   3.637  25.674  0.00  0.00    +0.118 C 
ATOM      8  C   UNL     1      -1.645   3.112  26.312  0.00  0.00    +0.152 C 
ATOM      9  C   UNL     1      -2.466   4.167  24.329  0.00  0.00    +0.165 C 
ATOM     10  C   UNL     1      -1.115   4.755  24.717  0.00  0.00    +0.174 C 
ENDROOT
BRANCH   7   4
ATOM      4  N   UNL     1      -4.052   2.702  25.616  0.00  0.00    -0.295 NA
ATOM     11  C   UNL     1      -5.073   2.986  26.625  0.00  0.00    +0.085 C 
ATOM     12  C   UNL     1      -4.759   2.753  24.337  0.00  0.00    +0.085 C 
ATOM     14  C   UNL     1      -6.267   2.178  26.138  0.00  0.00    +0.017 C 
ATOM     15  C   UNL     1      -6.059   2.022  24.635  0.00  0.00    +0.017 C 
ENDBRANCH   7   4
BRANCH   9   2
ATOM      2  O   UNL     1      -2.297   3.117  23.385  0.00  0.00    -0.388 OA
ATOM     24  H   UNL     1      -3.153   2.974  22.947  0.00  0.00    +0.210 HD
ENDBRANCH   9   2
BRANCH   8  13
ATOM     13  C   UNL     1      -1.331   1.636  26.103  0.00  0.00    +0.114 C 
BRANCH  13   5
ATOM      5  N   UNL     1      -0.911   1.381  24.733  0.00  0.00    -0.311 NA
ATOM     23  H   UNL     1       0.108   1.349  24.701  0.00  0.00    +0.122 HD
BRANCH   5  16
ATOM      6  N   UNL     1      -3.018  -2.311  24.729  0.00  0.00    -0.305 NA
ATOM     16  C   UNL     1      -1.458   0.117  24.244  0.00  0.00    +0.056 C 
ATOM     18  C   UNL     1      -2.986   0.132  24.331  0.00  0.00    +0.034 C 
ATOM     19  C   UNL     1      -0.900  -1.067  25.040  0.00  0.00    +0.034 C 
ATOM     20  C   UNL     1      -3.573  -1.219  23.915  0.00  0.00    +0.085 C 
ATOM     21  C   UNL     1      -1.556  -2.380  24.601  0.00  0.00    +0.085 C 
ATOM     22  C   UNL     1      -3.624  -3.588  24.354  0.00  0.00    +0.104 C 
ENDBRANCH   5  16
ENDBRANCH  13   5
ENDBRANCH   8  13
BRANCH  10  17
ATOM     17  C   UNL     1      -0.118   4.907  23.583  0.00  0.00    +0.190 C 
BRANCH  17   3
ATOM      3  O   UNL     1       0.471   3.644  23.317  0.00  0.00    -0.392 OA
ATOM     25  H   UNL     1       1.200   3.530  23.950  0.00  0.00    +0.210 HD
ENDBRANCH  17   3
ENDBRANCH  10  17
TORSDOF 7
ENDMDL
MODEL 10
REMARK VINA RESULT:      -0.6      1.628      5.556
REMARK  Name = 28961566
REMARK  8 active torsions:
REMARK  status: ('A' for Active; 'I' for Inactive)
REMARK    1  A    between atoms: O_2  and  C_9
REMARK    2  A    between atoms: O_3  and  C_17
REMARK    3  A    between atoms: N_4  and  C_7
REMARK    4  A    between atoms: N_5  and  C_13
REMARK    5  A    between atoms: N_5  and  C_16
REMARK    6  A    between atoms: N_6  and  C_22
REMARK    7  A    between atoms: C_8  and  C_13
REMARK    8  A    between atoms: C_10  and  C_17
REMARK                            x       y       z     vdW  Elec       q    Type
REMARK                         _______ _______ _______ _____ _____    ______ ____
ROOT
ATOM      1  O   UNL     1      -2.237   2.317  25.228  0.00  0.00    -0.366 OA
ATOM      7  C   UNL     1      -0.353   1.786  23.873  0.00  0.00    +0.118 C 
ATOM      8  C   UNL     1      -1.371   1.218  24.870  0.00  0.00    +0.152 C 
ATOM      9  C   UNL     1      -0.308   3.263  24.236  0.00  0.00    +0.165 C 
ATOM     10  C   UNL     1      -1.771   3.514  24.576  0.00  0.00    +0.174 C 
ENDROOT
BRANCH   7   4
ATOM      4  N   UNL     1       0.940   1.120  23.823  0.00  0.00    -0.295 NA
ATOM     11  C   UNL     1       0.903  -0.112  23.035  0.00  0.00    +0.085 C 
ATOM     12  C   UNL     1       1.969   1.944  23.190  0.00  0.00    +0.085 C 
ATOM     14  C   UNL     1       2.376  -0.408  22.795  0.00  0.00    +0.017 C 
ATOM     15  C   UNL     1       3.077   0.942  22.900  0.00  0.00    +0.017 C 
ENDBRANCH   7   4
BRANCH   9   2
ATOM      2  O   UNL     1       0.512   3.495  25.375  0.00  0.00    -0.388 OA
ATOM     24  H   UNL     1       1.438   3.486  25.077  0.00  0.00    +0.210 HD
ENDBRANCH   9   2
BRANCH   8  13
ATOM     13  C   UNL     1      -0.811   0.642  26.166  0.00  0.00    +0.114 C 
BRANCH  13   5
ATOM      5  N   UNL     1      -1.171  -0.760  26.312  0.00  0.00    -0.311 NA
ATOM     23  H   UNL     1      -1.695  -0.877  27.180  0.00  0.00    +0.122 HD
BRANCH   5  16
ATOM      6  N   UNL     1      -4.085  -2.950  24.126  0.00  0.00    -0.305 NA
ATOM     16  C   UNL     1      -1.981  -1.213  25.183  0.00  0.00    +0.056 C 
ATOM     18  C   UNL     1      -3.465  -0.959  25.460  0.00  0.00    +0.034 C 
ATOM     19  C   UNL     1      -1.748  -2.701  24.903  0.00  0.00    +0.034 C 
ATOM     20  C   UNL     1      -4.336  -1.516  24.331  0.00  0.00    +0.085 C 
ATOM     21  C   UNL     1      -2.676  -3.201  23.793  0.00  0.00    +0.085 C 
ATOM     22  C   UNL     1      -4.960  -3.478  23.079  0.00  0.00    +0.104 C 
ENDBRANCH   5  16
ENDBRANCH  13   5
ENDBRANCH   8  13
BRANCH  10  17
ATOM     17  C   UNL     1      -2.039   4.709  25.473  0.00  0.00    +0.190 C 
BRANCH  17   3
ATOM      3  O   UNL     1      -1.234   5.795  25.043  0.00  0.00    -0.392 OA
ATOM     25  H   UNL     1      -0.908   6.243  25.842  0.00  0.00    +0.210 HD
ENDBRANCH  17   3
ENDBRANCH  10  17
TORSDOF 7
ENDMDL
