MODEL 1
REMARK VINA RESULT:      -5.7      0.000      0.000
REMARK  Name = 75536927
REMARK  4 active torsions:
REMARK  status: ('A' for Active; 'I' for Inactive)
REMARK    1  A    between atoms: O_3  and  C_8
REMARK    2  A    between atoms: O_3  and  C_16
REMARK    3  A    between atoms: N_4  and  C_11
REMARK    4  A    between atoms: C_11  and  C_13
REMARK                            x       y       z     vdW  Elec       q    Type
REMARK                         _______ _______ _______ _____ _____    ______ ____
ROOT
ATOM      2  O   UNL     1      -3.011  -2.965  24.729  0.00  0.00    -0.375 OA
ATOM      4  N   UNL     1      -1.727  -0.648  25.856  0.00  0.00    -0.292 NA
ATOM      7  C   UNL     1      -2.665   0.013  24.949  0.00  0.00    +0.131 C 
ATOM      8  C   UNL     1      -4.013  -0.720  24.924  0.00  0.00    +0.215 C 
ATOM      9  C   UNL     1      -0.962  -1.742  25.247  0.00  0.00    +0.113 C 
ATOM     10  C   UNL     1      -4.008  -2.080  24.232  0.00  0.00    +0.205 C 
ATOM     12  C   UNL     1      -1.711  -2.632  24.258  0.00  0.00    +0.175 C 
ENDROOT
BRANCH   8   3
ATOM      3  O   UNL     1      -4.958   0.121  24.261  0.00  0.00    -0.468 OA
BRANCH   3  16
ATOM      5  N   UNL     1      -4.302   2.329  23.943  0.00  0.00    -0.219 NA
ATOM      6  N   UNL     1      -5.803   3.069  26.193  0.00  0.00    -0.256 NA
ATOM     16  C   UNL     1      -5.000   1.428  24.662  0.00  0.00    +0.234 A 
ATOM     20  C   UNL     1      -5.738   1.791  25.768  0.00  0.00    +0.177 A 
ATOM     21  C   UNL     1      -4.367   3.606  24.369  0.00  0.00    +0.134 A 
ATOM     22  C   UNL     1      -5.105   3.969  25.474  0.00  0.00    +0.130 A 
ENDBRANCH   3  16
ENDBRANCH   8   3
BRANCH   4  11
ATOM     11  C   UNL     1      -0.817   0.313  26.480  0.00  0.00    +0.119 C 
BRANCH  11  13
ATOM      1 CL   UNL     1      -1.626   5.344  25.384  0.00  0.00    -0.084 Cl
ATOM     13  C   UNL     1      -0.553   1.495  25.588  0.00  0.00    -0.032 A 
ATOM     14  C   UNL     1      -1.143   2.728  25.867  0.00  0.00    +0.025 A 
ATOM     15  C   UNL     1       0.285   1.359  24.480  0.00  0.00    +0.005 A 
ATOM     17  C   UNL     1      -0.896   3.824  25.040  0.00  0.00    +0.041 A 
ATOM     18  C   UNL     1       0.532   2.454  23.653  0.00  0.00    +0.002 A 
ATOM     19  C   UNL     1      -0.059   3.686  23.933  0.00  0.00    +0.020 A 
ENDBRANCH  11  13
ENDBRANCH   4  11
TORSDOF 4
ENDMDL
MODEL 2
REMARK VINA RESULT:      -5.6      1.994      4.108
REMARK  Name = 75536927
REMARK  4 active torsions:
REMARK  status: ('A' for Active; 'I' for Inactive)
REMARK    1  A    between atoms: O_3  and  C_8
REMARK    2  A    between atoms: O_3  and  C_16
REMARK    3  A    between atoms: N_4  and  C_11
REMARK    4  A    between atoms: C_11  and  C_13
REMARK                            x       y       z     vdW  Elec       q    Type
REMARK                         _______ _______ _______ _____ _____    ______ ____
ROOT
ATOM      2  O   UNL     1      -0.951  -2.240  23.951  0.00  0.00    -0.375 OA
ATOM      4  N   UNL     1      -3.448  -0.850  24.308  0.00  0.00    -0.292 NA
ATOM      7  C   UNL     1      -2.642  -0.158  25.312  0.00  0.00    +0.131 C 
ATOM      8  C   UNL     1      -1.207   0.058  24.811  0.00  0.00    +0.215 C 
ATOM      9  C   UNL     1      -3.358  -2.314  24.359  0.00  0.00    +0.113 C 
ATOM     10  C   UNL     1      -0.348  -1.200  24.712  0.00  0.00    +0.205 C 
ATOM     12  C   UNL     1      -1.984  -2.903  24.669  0.00  0.00    +0.175 C 
ENDROOT
BRANCH   8   3
ATOM      3  O   UNL     1      -0.566   0.975  25.697  0.00  0.00    -0.468 OA
BRANCH   3  16
ATOM      5  N   UNL     1      -0.017   2.779  24.338  0.00  0.00    -0.219 NA
ATOM      6  N   UNL     1      -1.647   4.428  25.916  0.00  0.00    -0.256 NA
ATOM     16  C   UNL     1      -0.695   2.305  25.401  0.00  0.00    +0.234 A 
ATOM     20  C   UNL     1      -1.496   3.114  26.177  0.00  0.00    +0.177 A 
ATOM     21  C   UNL     1      -0.169   4.094  24.077  0.00  0.00    +0.134 A 
ATOM     22  C   UNL     1      -0.970   4.903  24.853  0.00  0.00    +0.130 A 
ENDBRANCH   3  16
ENDBRANCH   8   3
BRANCH   4  11
ATOM     11  C   UNL     1      -4.849  -0.432  24.364  0.00  0.00    +0.119 C 
BRANCH  11  13
ATOM      1 CL   UNL     1      -3.770   4.547  23.263  0.00  0.00    -0.084 Cl
ATOM     13  C   UNL     1      -4.985   1.024  24.719  0.00  0.00    -0.032 A 
ATOM     14  C   UNL     1      -4.385   1.998  23.920  0.00  0.00    +0.025 A 
ATOM     15  C   UNL     1      -5.713   1.402  25.848  0.00  0.00    +0.005 A 
ATOM     17  C   UNL     1      -4.512   3.347  24.249  0.00  0.00    +0.041 A 
ATOM     18  C   UNL     1      -5.840   2.751  26.177  0.00  0.00    +0.002 A 
ATOM     19  C   UNL     1      -5.240   3.724  25.378  0.00  0.00    +0.020 A 
ENDBRANCH  11  13
ENDBRANCH   4  11
TORSDOF 4
ENDMDL
MODEL 3
REMARK VINA RESULT:      -5.6      2.680      5.868
REMARK  Name = 75536927
REMARK  4 active torsions:
REMARK  status: ('A' for Active; 'I' for Inactive)
REMARK    1  A    between atoms: O_3  and  C_8
REMARK    2  A    between atoms: O_3  and  C_16
REMARK    3  A    between atoms: N_4  and  C_11
REMARK    4  A    between atoms: C_11  and  C_13
REMARK                            x       y       z     vdW  Elec       q    Type
REMARK                         _______ _______ _______ _____ _____    ______ ____
ROOT
ATOM      2  O   UNL     1      -3.766   4.117  26.462  0.00  0.00    -0.375 OA
ATOM      4  N   UNL     1      -4.458   1.636  25.175  0.00  0.00    -0.292 NA
ATOM      7  C   UNL     1      -3.519   2.166  24.187  0.00  0.00    +0.131 C 
ATOM      8  C   UNL     1      -2.344   2.877  24.873  0.00  0.00    +0.215 C 
ATOM      9  C   UNL     1      -5.478   2.592  25.618  0.00  0.00    +0.113 C 
ATOM     10  C   UNL     1      -2.682   4.205  25.545  0.00  0.00    +0.205 C 
ATOM     12  C   UNL     1      -5.024   4.038  25.803  0.00  0.00    +0.175 C 
ENDROOT
BRANCH   8   3
ATOM      3  O   UNL     1      -1.338   3.111  23.888  0.00  0.00    -0.468 OA
BRANCH   3  16
ATOM      5  N   UNL     1      -0.939   0.998  23.005  0.00  0.00    -0.219 NA
ATOM      6  N   UNL     1       1.733   1.187  23.836  0.00  0.00    -0.256 NA
ATOM     16  C   UNL     1      -0.466   2.085  23.647  0.00  0.00    +0.234 A 
ATOM     20  C   UNL     1       0.846   2.178  24.055  0.00  0.00    +0.177 A 
ATOM     21  C   UNL     1      -0.051   0.007  22.786  0.00  0.00    +0.134 A 
ATOM     22  C   UNL     1       1.261   0.100  23.194  0.00  0.00    +0.130 A 
ENDBRANCH   3  16
ENDBRANCH   8   3
BRANCH   4  11
ATOM     11  C   UNL     1      -5.096   0.406  24.702  0.00  0.00    +0.119 C 
BRANCH  11  13
ATOM      1 CL   UNL     1      -0.427  -1.564  25.921  0.00  0.00    -0.084 Cl
ATOM     13  C   UNL     1      -4.120  -0.736  24.623  0.00  0.00    -0.032 A 
ATOM     14  C   UNL     1      -2.871  -0.633  25.237  0.00  0.00    +0.025 A 
ATOM     15  C   UNL     1      -4.464  -1.900  23.935  0.00  0.00    +0.005 A 
ATOM     17  C   UNL     1      -1.968  -1.693  25.164  0.00  0.00    +0.041 A 
ATOM     18  C   UNL     1      -3.560  -2.960  23.862  0.00  0.00    +0.002 A 
ATOM     19  C   UNL     1      -2.312  -2.856  24.476  0.00  0.00    +0.020 A 
ENDBRANCH  11  13
ENDBRANCH   4  11
TORSDOF 4
ENDMDL
MODEL 4
REMARK VINA RESULT:      -4.6      3.018      6.182
REMARK  Name = 75536927
REMARK  4 active torsions:
REMARK  status: ('A' for Active; 'I' for Inactive)
REMARK    1  A    between atoms: O_3  and  C_8
REMARK    2  A    between atoms: O_3  and  C_16
REMARK    3  A    between atoms: N_4  and  C_11
REMARK    4  A    between atoms: C_11  and  C_13
REMARK                            x       y       z     vdW  Elec       q    Type
REMARK                         _______ _______ _______ _____ _____    ______ ____
ROOT
ATOM      2  O   UNL     1      -3.143   4.555  26.384  0.00  0.00    -0.375 OA
ATOM      4  N   UNL     1      -4.127   2.190  25.070  0.00  0.00    -0.292 NA
ATOM      7  C   UNL     1      -2.884   2.379  24.325  0.00  0.00    +0.131 C 
ATOM      8  C   UNL     1      -1.757   2.859  25.250  0.00  0.00    +0.215 C 
ATOM      9  C   UNL     1      -4.945   3.400  25.206  0.00  0.00    +0.113 C 
ATOM     10  C   UNL     1      -1.891   4.290  25.762  0.00  0.00    +0.205 C 
ATOM     12  C   UNL     1      -4.193   4.709  25.438  0.00  0.00    +0.175 C 
ENDROOT
BRANCH   8   3
ATOM      3  O   UNL     1      -0.525   2.747  24.536  0.00  0.00    -0.468 OA
BRANCH   3  16
ATOM      5  N   UNL     1       0.868   1.346  23.312  0.00  0.00    -0.219 NA
ATOM      6  N   UNL     1      -0.296  -0.870  24.576  0.00  0.00    -0.256 NA
ATOM     16  C   UNL     1      -0.108   1.480  24.230  0.00  0.00    +0.234 A 
ATOM     20  C   UNL     1      -0.680   0.392  24.852  0.00  0.00    +0.177 A 
ATOM     21  C   UNL     1       1.253   0.084  23.036  0.00  0.00    +0.134 A 
ATOM     22  C   UNL     1       0.681  -1.005  23.657  0.00  0.00    +0.130 A 
ENDBRANCH   3  16
ENDBRANCH   8   3
BRANCH   4  11
ATOM     11  C   UNL     1      -4.930   1.104  24.505  0.00  0.00    +0.119 C 
BRANCH  11  13
ATOM      1 CL   UNL     1      -3.943  -3.787  23.000  0.00  0.00    -0.084 Cl
ATOM     13  C   UNL     1      -4.346  -0.246  24.819  0.00  0.00    -0.032 A 
ATOM     14  C   UNL     1      -4.408  -1.272  23.875  0.00  0.00    +0.025 A 
ATOM     15  C   UNL     1      -3.739  -0.474  26.055  0.00  0.00    +0.005 A 
ATOM     17  C   UNL     1      -3.864  -2.522  24.165  0.00  0.00    +0.041 A 
ATOM     18  C   UNL     1      -3.196  -1.725  26.346  0.00  0.00    +0.002 A 
ATOM     19  C   UNL     1      -3.259  -2.749  25.402  0.00  0.00    +0.020 A 
ENDBRANCH  11  13
ENDBRANCH   4  11
TORSDOF 4
ENDMDL
MODEL 5
REMARK VINA RESULT:      -4.2      2.647      5.283
REMARK  Name = 75536927
REMARK  4 active torsions:
REMARK  status: ('A' for Active; 'I' for Inactive)
REMARK    1  A    between atoms: O_3  and  C_8
REMARK    2  A    between atoms: O_3  and  C_16
REMARK    3  A    between atoms: N_4  and  C_11
REMARK    4  A    between atoms: C_11  and  C_13
REMARK                            x       y       z     vdW  Elec       q    Type
REMARK                         _______ _______ _______ _____ _____    ______ ____
ROOT
ATOM      2  O   UNL     1      -1.999  -2.483  24.514  0.00  0.00    -0.375 OA
ATOM      4  N   UNL     1      -3.263   0.047  23.972  0.00  0.00    -0.292 NA
ATOM      7  C   UNL     1      -2.001   0.524  24.537  0.00  0.00    +0.131 C 
ATOM      8  C   UNL     1      -0.829  -0.355  24.081  0.00  0.00    +0.215 C 
ATOM      9  C   UNL     1      -3.924  -1.000  24.760  0.00  0.00    +0.113 C 
ATOM     10  C   UNL     1      -0.787  -1.758  24.681  0.00  0.00    +0.205 C 
ATOM     12  C   UNL     1      -3.017  -2.045  25.405  0.00  0.00    +0.175 C 
ENDROOT
BRANCH   8   3
ATOM      3  O   UNL     1       0.383   0.319  24.420  0.00  0.00    -0.468 OA
BRANCH   3  16
ATOM      5  N   UNL     1       2.509   0.981  23.753  0.00  0.00    -0.219 NA
ATOM      6  N   UNL     1       2.134  -0.366  21.321  0.00  0.00    -0.256 NA
ATOM     16  C   UNL     1       1.370   0.318  23.473  0.00  0.00    +0.234 A 
ATOM     20  C   UNL     1       1.185  -0.344  22.279  0.00  0.00    +0.177 A 
ATOM     21  C   UNL     1       3.458   0.958  22.795  0.00  0.00    +0.134 A 
ATOM     22  C   UNL     1       3.274   0.297  21.601  0.00  0.00    +0.130 A 
ENDBRANCH   3  16
ENDBRANCH   8   3
BRANCH   4  11
ATOM     11  C   UNL     1      -4.192   1.151  23.726  0.00  0.00    +0.119 C 
BRANCH  11  13
ATOM      1 CL   UNL     1      -0.863   5.003  24.840  0.00  0.00    -0.084 Cl
ATOM     13  C   UNL     1      -3.854   2.362  24.553  0.00  0.00    -0.032 A 
ATOM     14  C   UNL     1      -2.655   3.042  24.339  0.00  0.00    +0.025 A 
ATOM     15  C   UNL     1      -4.740   2.805  25.535  0.00  0.00    +0.005 A 
ATOM     17  C   UNL     1      -2.343   4.166  25.105  0.00  0.00    +0.041 A 
ATOM     18  C   UNL     1      -4.428   3.928  26.301  0.00  0.00    +0.002 A 
ATOM     19  C   UNL     1      -3.230   4.608  26.086  0.00  0.00    +0.020 A 
ENDBRANCH  11  13
ENDBRANCH   4  11
TORSDOF 4
ENDMDL
MODEL 6
REMARK VINA RESULT:      -4.0      3.555      6.314
REMARK  Name = 75536927
REMARK  4 active torsions:
REMARK  status: ('A' for Active; 'I' for Inactive)
REMARK    1  A    between atoms: O_3  and  C_8
REMARK    2  A    between atoms: O_3  and  C_16
REMARK    3  A    between atoms: N_4  and  C_11
REMARK    4  A    between atoms: C_11  and  C_13
REMARK                            x       y       z     vdW  Elec       q    Type
REMARK                         _______ _______ _______ _____ _____    ______ ____
ROOT
ATOM      2  O   UNL     1      -0.733  -1.468  24.193  0.00  0.00    -0.375 OA
ATOM      4  N   UNL     1      -0.557   1.397  24.415  0.00  0.00    -0.292 NA
ATOM      7  C   UNL     1       0.737   1.124  23.792  0.00  0.00    +0.131 C 
ATOM      8  C   UNL     1       0.619   0.005  22.748  0.00  0.00    +0.215 C 
ATOM      9  C   UNL     1      -0.868   0.546  25.568  0.00  0.00    +0.113 C 
ATOM     10  C   UNL     1       0.379  -1.394  23.308  0.00  0.00    +0.205 C 
ATOM     12  C   UNL     1      -0.443  -0.918  25.471  0.00  0.00    +0.175 C 
ENDROOT
BRANCH   8   3
ATOM      3  O   UNL     1       1.826  -0.014  21.985  0.00  0.00    -0.468 OA
BRANCH   3  16
ATOM      5  N   UNL     1       3.307  -1.289  23.244  0.00  0.00    -0.219 NA
ATOM      6  N   UNL     1       4.968   0.955  23.510  0.00  0.00    -0.256 NA
ATOM     16  C   UNL     1       2.994  -0.101  22.692  0.00  0.00    +0.234 A 
ATOM     20  C   UNL     1       3.810   1.002  22.822  0.00  0.00    +0.177 A 
ATOM     21  C   UNL     1       4.465  -1.336  23.932  0.00  0.00    +0.134 A 
ATOM     22  C   UNL     1       5.281  -0.234  24.063  0.00  0.00    +0.130 A 
ENDBRANCH   3  16
ENDBRANCH   8   3
BRANCH   4  11
ATOM     11  C   UNL     1      -0.687   2.807  24.784  0.00  0.00    +0.119 C 
BRANCH  11  13
ATOM      1 CL   UNL     1      -5.766   1.647  24.646  0.00  0.00    -0.084 Cl
ATOM     13  C   UNL     1      -2.099   3.157  25.170  0.00  0.00    -0.032 A 
ATOM     14  C   UNL     1      -3.156   2.336  24.775  0.00  0.00    +0.025 A 
ATOM     15  C   UNL     1      -2.352   4.303  25.924  0.00  0.00    +0.005 A 
ATOM     17  C   UNL     1      -4.463   2.660  25.135  0.00  0.00    +0.041 A 
ATOM     18  C   UNL     1      -3.660   4.628  26.283  0.00  0.00    +0.002 A 
ATOM     19  C   UNL     1      -4.716   3.806  25.888  0.00  0.00    +0.020 A 
ENDBRANCH  11  13
ENDBRANCH   4  11
TORSDOF 4
ENDMDL
MODEL 7
REMARK VINA RESULT:      -3.9      2.213      4.036
REMARK  Name = 75536927
REMARK  4 active torsions:
REMARK  status: ('A' for Active; 'I' for Inactive)
REMARK    1  A    between atoms: O_3  and  C_8
REMARK    2  A    between atoms: O_3  and  C_16
REMARK    3  A    between atoms: N_4  and  C_11
REMARK    4  A    between atoms: C_11  and  C_13
REMARK                            x       y       z     vdW  Elec       q    Type
REMARK                         _______ _______ _______ _____ _____    ______ ____
ROOT
ATOM      2  O   UNL     1       0.856  -0.645  23.819  0.00  0.00    -0.375 OA
ATOM      4  N   UNL     1       0.159   1.650  25.413  0.00  0.00    -0.292 NA
ATOM      7  C   UNL     1      -1.036   0.835  25.628  0.00  0.00    +0.131 C 
ATOM      8  C   UNL     1      -0.671  -0.651  25.756  0.00  0.00    +0.215 C 
ATOM      9  C   UNL     1       0.566   1.773  24.008  0.00  0.00    +0.113 C 
ATOM     10  C   UNL     1      -0.210  -1.328  24.468  0.00  0.00    +0.205 C 
ATOM     12  C   UNL     1       0.415   0.524  23.142  0.00  0.00    +0.175 C 
ENDROOT
BRANCH   8   3
ATOM      3  O   UNL     1      -1.820  -1.344  26.245  0.00  0.00    -0.468 OA
BRANCH   3  16
ATOM      5  N   UNL     1      -3.581  -0.515  24.974  0.00  0.00    -0.219 NA
ATOM      6  N   UNL     1      -4.033  -3.094  23.969  0.00  0.00    -0.256 NA
ATOM     16  C   UNL     1      -2.828  -1.568  25.347  0.00  0.00    +0.234 A 
ATOM     20  C   UNL     1      -3.049  -2.835  24.854  0.00  0.00    +0.177 A 
ATOM     21  C   UNL     1      -4.565  -0.774  24.089  0.00  0.00    +0.134 A 
ATOM     22  C   UNL     1      -4.786  -2.041  23.596  0.00  0.00    +0.130 A 
ENDBRANCH   3  16
ENDBRANCH   8   3
BRANCH   4  11
ATOM     11  C   UNL     1       0.018   2.977  26.011  0.00  0.00    +0.119 C 
BRANCH  11  13
ATOM      1 CL   UNL     1      -5.153   2.805  25.381  0.00  0.00    -0.084 Cl
ATOM     13  C   UNL     1      -1.249   3.659  25.569  0.00  0.00    -0.032 A 
ATOM     14  C   UNL     1      -2.472   2.994  25.668  0.00  0.00    +0.025 A 
ATOM     15  C   UNL     1      -1.201   4.957  25.062  0.00  0.00    +0.005 A 
ATOM     17  C   UNL     1      -3.645   3.627  25.260  0.00  0.00    +0.041 A 
ATOM     18  C   UNL     1      -2.375   5.590  24.653  0.00  0.00    +0.002 A 
ATOM     19  C   UNL     1      -3.597   4.925  24.751  0.00  0.00    +0.020 A 
ENDBRANCH  11  13
ENDBRANCH   4  11
TORSDOF 4
ENDMDL
MODEL 8
REMARK VINA RESULT:      -3.6      2.794      4.354
REMARK  Name = 75536927
REMARK  4 active torsions:
REMARK  status: ('A' for Active; 'I' for Inactive)
REMARK    1  A    between atoms: O_3  and  C_8
REMARK    2  A    between atoms: O_3  and  C_16
REMARK    3  A    between atoms: N_4  and  C_11
REMARK    4  A    between atoms: C_11  and  C_13
REMARK                            x       y       z     vdW  Elec       q    Type
REMARK                         _______ _______ _______ _____ _____    ______ ____
ROOT
ATOM      2  O   UNL     1       1.144  -0.210  22.988  0.00  0.00    -0.375 OA
ATOM      4  N   UNL     1      -1.516  -0.352  24.080  0.00  0.00    -0.292 NA
ATOM      7  C   UNL     1      -0.929   0.619  25.002  0.00  0.00    +0.131 C 
ATOM      8  C   UNL     1       0.017   1.576  24.263  0.00  0.00    +0.215 C 
ATOM      9  C   UNL     1      -0.701  -1.552  23.860  0.00  0.00    +0.113 C 
ATOM     10  C   UNL     1       1.326   0.961  23.777  0.00  0.00    +0.205 C 
ATOM     12  C   UNL     1       0.810  -1.345  23.777  0.00  0.00    +0.175 C 
ENDROOT
BRANCH   8   3
ATOM      3  O   UNL     1       0.324   2.657  25.144  0.00  0.00    -0.468 OA
BRANCH   3  16
ATOM      5  N   UNL     1      -0.539   4.774  24.725  0.00  0.00    -0.219 NA
ATOM      6  N   UNL     1      -2.728   4.177  26.373  0.00  0.00    -0.256 NA
ATOM     16  C   UNL     1      -0.663   3.583  25.343  0.00  0.00    +0.234 A 
ATOM     20  C   UNL     1      -1.738   3.289  26.152  0.00  0.00    +0.177 A 
ATOM     21  C   UNL     1      -1.530   5.662  24.945  0.00  0.00    +0.134 A 
ATOM     22  C   UNL     1      -2.605   5.368  25.755  0.00  0.00    +0.130 A 
ENDBRANCH   3  16
ENDBRANCH   8   3
BRANCH   4  11
ATOM     11  C   UNL     1      -2.868  -0.733  24.491  0.00  0.00    +0.119 C 
BRANCH  11  13
ATOM      1 CL   UNL     1      -6.824   1.674  26.882  0.00  0.00    -0.084 Cl
ATOM     13  C   UNL     1      -3.781   0.459  24.586  0.00  0.00    -0.032 A 
ATOM     14  C   UNL     1      -4.765   0.509  25.575  0.00  0.00    +0.025 A 
ATOM     15  C   UNL     1      -3.644   1.516  23.686  0.00  0.00    +0.005 A 
ATOM     17  C   UNL     1      -5.610   1.615  25.663  0.00  0.00    +0.041 A 
ATOM     18  C   UNL     1      -4.490   2.621  23.774  0.00  0.00    +0.002 A 
ATOM     19  C   UNL     1      -5.473   2.670  24.762  0.00  0.00    +0.020 A 
ENDBRANCH  11  13
ENDBRANCH   4  11
TORSDOF 4
ENDMDL
MODEL 9
REMARK VINA RESULT:      -3.0      3.059      6.376
REMARK  Name = 75536927
REMARK  4 active torsions:
REMARK  status: ('A' for Active; 'I' for Inactive)
REMARK    1  A    between atoms: O_3  and  C_8
REMARK    2  A    between atoms: O_3  and  C_16
REMARK    3  A    between atoms: N_4  and  C_11
REMARK    4  A    between atoms: C_11  and  C_13
REMARK                            x       y       z     vdW  Elec       q    Type
REMARK                         _______ _______ _______ _____ _____    ______ ____
ROOT
ATOM      2  O   UNL     1      -2.074   4.485  26.089  0.00  0.00    -0.375 OA
ATOM      4  N   UNL     1      -3.119   2.403  24.397  0.00  0.00    -0.292 NA
ATOM      7  C   UNL     1      -1.875   2.690  23.685  0.00  0.00    +0.131 C 
ATOM      8  C   UNL     1      -0.733   2.979  24.669  0.00  0.00    +0.215 C 
ATOM      9  C   UNL     1      -3.908   3.590  24.747  0.00  0.00    +0.113 C 
ATOM     10  C   UNL     1      -0.832   4.303  25.421  0.00  0.00    +0.205 C 
ATOM     12  C   UNL     1      -3.125   4.822  25.193  0.00  0.00    +0.175 C 
ENDROOT
BRANCH   8   3
ATOM      3  O   UNL     1       0.492   2.964  23.937  0.00  0.00    -0.468 OA
BRANCH   3  16
ATOM      5  N   UNL     1       0.108   0.699  23.580  0.00  0.00    -0.219 NA
ATOM      6  N   UNL     1       2.787   0.394  22.811  0.00  0.00    -0.256 NA
ATOM     16  C   UNL     1       0.967   1.737  23.563  0.00  0.00    +0.234 A 
ATOM     20  C   UNL     1       2.283   1.588  23.185  0.00  0.00    +0.177 A 
ATOM     21  C   UNL     1       0.612  -0.494  23.207  0.00  0.00    +0.134 A 
ATOM     22  C   UNL     1       1.928  -0.643  22.829  0.00  0.00    +0.130 A 
ENDBRANCH   3  16
ENDBRANCH   8   3
BRANCH   4  11
ATOM     11  C   UNL     1      -3.950   1.448  23.662  0.00  0.00    +0.119 C 
BRANCH  11  13
ATOM      1 CL   UNL     1      -2.785  -1.690  27.656  0.00  0.00    -0.084 Cl
ATOM     13  C   UNL     1      -3.812   0.052  24.204  0.00  0.00    -0.032 A 
ATOM     14  C   UNL     1      -3.409  -0.149  25.525  0.00  0.00    +0.025 A 
ATOM     15  C   UNL     1      -4.090  -1.044  23.387  0.00  0.00    +0.005 A 
ATOM     17  C   UNL     1      -3.284  -1.444  26.027  0.00  0.00    +0.041 A 
ATOM     18  C   UNL     1      -3.963  -2.339  23.889  0.00  0.00    +0.002 A 
ATOM     19  C   UNL     1      -3.560  -2.539  25.209  0.00  0.00    +0.020 A 
ENDBRANCH  11  13
ENDBRANCH   4  11
TORSDOF 4
ENDMDL
