MODEL 1
REMARK VINA RESULT:       2.3      0.000      0.000
REMARK  Name = 38030912
REMARK  15 active torsions:
REMARK  status: ('A' for Active; 'I' for Inactive)
REMARK    1  A    between atoms: O_2  and  C_26
REMARK    2  A    between atoms: O_2  and  C_29
REMARK    3  A    between atoms: O_3  and  C_34
REMARK    4  A    between atoms: O_3  and  C_35
REMARK    5  A    between atoms: N_4  and  C_13
REMARK    6  A    between atoms: N_5  and  C_25
REMARK    7  A    between atoms: C_8  and  C_12
REMARK    8  A    between atoms: C_9  and  C_13
REMARK    9  A    between atoms: C_11  and  C_16
REMARK   10  A    between atoms: C_12  and  C_19
REMARK   11  A    between atoms: C_12  and  C_20
REMARK   12  A    between atoms: C_15  and  C_23
REMARK   13  A    between atoms: C_16  and  C_24
REMARK   14  A    between atoms: C_25  and  C_26
REMARK   15  A    between atoms: C_27  and  C_28
REMARK                            x       y       z     vdW  Elec       q    Type
REMARK                         _______ _______ _______ _____ _____    ______ ____
ROOT
ATOM      8  C   UNL     1      -1.405   3.864  24.412  0.00  0.00    +0.000 C 
ATOM      9  C   UNL     1      -1.029   2.922  25.578  0.00  0.00    +0.029 C 
ATOM     10  C   UNL     1      -2.926   4.066  24.351  0.00  0.00    +0.012 C 
ATOM     11  C   UNL     1      -3.524   4.611  25.666  0.00  0.00    +0.024 C 
ATOM     14  C   UNL     1      -1.782   3.238  26.844  0.00  0.00    -0.023 C 
ATOM     15  C   UNL     1      -2.890   4.000  26.906  0.00  0.00    -0.073 C 
ATOM     23  C   UNL     1      -3.513   4.325  28.237  0.00  0.00    +0.039 C 
ENDROOT
BRANCH   8  12
ATOM     12  C   UNL     1      -0.671   5.208  24.520  0.00  0.00    -0.013 C 
ATOM     19  C   UNL     1       0.256   5.406  23.326  0.00  0.00    +0.007 C 
ATOM     20  C   UNL     1      -1.673   6.354  24.624  0.00  0.00    +0.007 C 
ENDBRANCH   8  12
BRANCH   9  13
ATOM     13  C   UNL     1      -1.255   1.451  25.213  0.00  0.00    +0.092 C 
BRANCH  13   4
ATOM      4  N   UNL     1      -0.035   0.861  24.665  0.00  0.00    -0.299 NA
ATOM      5  N   UNL     1       1.867   0.389  22.539  0.00  0.00    -0.298 NA
ATOM     17  C   UNL     1      -0.347  -0.039  23.549  0.00  0.00    +0.100 C 
ATOM     18  C   UNL     1       0.902   1.907  24.234  0.00  0.00    +0.100 C 
ATOM     21  C   UNL     1       0.931  -0.656  22.971  0.00  0.00    +0.100 C 
ATOM     22  C   UNL     1       2.180   1.288  23.657  0.00  0.00    +0.100 C 
BRANCH   5  25
ATOM     25  C   UNL     1       3.087  -0.200  21.991  0.00  0.00    +0.112 C 
BRANCH  25  26
ATOM     26  C   UNL     1       4.304   0.621  22.385  0.00  0.00    +0.174 C 
BRANCH  26   2
ATOM      2  O   UNL     1       5.313  -0.257  22.867  0.00  0.00    -0.382 OA
ATOM     29  C   UNL     1       5.458  -0.161  24.277  0.00  0.00    +0.194 C 
ENDBRANCH  26   2
ENDBRANCH  25  26
ENDBRANCH   5  25
ENDBRANCH  13   4
ENDBRANCH   9  13
BRANCH  11  16
ATOM     16  C   UNL     1      -5.046   4.432  25.623  0.00  0.00    +0.105 C 
BRANCH  16  24
ATOM      1  O   UNL     1      -4.534   2.071  25.276  0.00  0.00    -0.420 OA
ATOM      6  N   UNL     1      -6.524   2.446  26.226  0.00  0.00    -0.112 NA
ATOM      7  N   UNL     1      -6.366   1.080  26.090  0.00  0.00    -0.107 NA
ATOM     24  C   UNL     1      -5.430   2.984  25.738  0.00  0.00    +0.218 A 
ATOM     27  C   UNL     1      -5.191   0.907  25.531  0.00  0.00    +0.248 A 
BRANCH  27  28
ATOM     28  C   UNL     1      -4.507  -0.296  25.156  0.00  0.00    +0.039 A 
ATOM     30  C   UNL     1      -3.622  -0.904  26.048  0.00  0.00    +0.017 A 
ATOM     31  C   UNL     1      -4.726  -0.861  23.899  0.00  0.00    +0.017 A 
ATOM     32  C   UNL     1      -2.958  -2.074  25.684  0.00  0.00    +0.046 A 
ATOM     33  C   UNL     1      -4.061  -2.031  23.535  0.00  0.00    +0.046 A 
ATOM     34  C   UNL     1      -3.177  -2.638  24.427  0.00  0.00    +0.120 A 
BRANCH  34   3
ATOM      3  O   UNL     1      -2.530  -3.782  24.072  0.00  0.00    -0.495 OA
ATOM     35  C   UNL     1      -1.353  -3.642  23.277  0.00  0.00    +0.277 C 
ENDBRANCH  34   3
ENDBRANCH  27  28
ENDBRANCH  16  24
ENDBRANCH  11  16
TORSDOF 10
ENDMDL
MODEL 2
REMARK VINA RESULT:       4.8      2.026      7.706
REMARK  Name = 38030912
REMARK  15 active torsions:
REMARK  status: ('A' for Active; 'I' for Inactive)
REMARK    1  A    between atoms: O_2  and  C_26
REMARK    2  A    between atoms: O_2  and  C_29
REMARK    3  A    between atoms: O_3  and  C_34
REMARK    4  A    between atoms: O_3  and  C_35
REMARK    5  A    between atoms: N_4  and  C_13
REMARK    6  A    between atoms: N_5  and  C_25
REMARK    7  A    between atoms: C_8  and  C_12
REMARK    8  A    between atoms: C_9  and  C_13
REMARK    9  A    between atoms: C_11  and  C_16
REMARK   10  A    between atoms: C_12  and  C_19
REMARK   11  A    between atoms: C_12  and  C_20
REMARK   12  A    between atoms: C_15  and  C_23
REMARK   13  A    between atoms: C_16  and  C_24
REMARK   14  A    between atoms: C_25  and  C_26
REMARK   15  A    between atoms: C_27  and  C_28
REMARK                            x       y       z     vdW  Elec       q    Type
REMARK                         _______ _______ _______ _____ _____    ______ ____
ROOT
ATOM      8  C   UNL     1      -4.290  -1.069  23.815  0.00  0.00    +0.000 C 
ATOM      9  C   UNL     1      -4.555  -0.695  25.292  0.00  0.00    +0.029 C 
ATOM     10  C   UNL     1      -3.140  -0.226  23.244  0.00  0.00    +0.012 C 
ATOM     11  C   UNL     1      -1.829  -0.355  24.050  0.00  0.00    +0.024 C 
ATOM     14  C   UNL     1      -3.284  -0.546  26.088  0.00  0.00    -0.023 C 
ATOM     15  C   UNL     1      -2.057  -0.406  25.553  0.00  0.00    -0.073 C 
ATOM     23  C   UNL     1      -0.844  -0.351  26.442  0.00  0.00    +0.039 C 
ENDROOT
BRANCH   8  12
ATOM     12  C   UNL     1      -4.008  -2.570  23.660  0.00  0.00    -0.013 C 
ATOM     19  C   UNL     1      -3.521  -3.159  24.979  0.00  0.00    +0.007 C 
ATOM     20  C   UNL     1      -5.257  -3.297  23.170  0.00  0.00    +0.007 C 
ENDBRANCH   8  12
BRANCH   9  13
ATOM     13  C   UNL     1      -5.377   0.591  25.412  0.00  0.00    +0.092 C 
BRANCH  13   4
ATOM      4  N   UNL     1      -4.522   1.768  25.263  0.00  0.00    -0.299 NA
ATOM      5  N   UNL     1      -4.032   4.519  24.522  0.00  0.00    -0.298 NA
ATOM     17  C   UNL     1      -4.432   2.173  23.856  0.00  0.00    +0.100 C 
ATOM     18  C   UNL     1      -5.014   2.878  26.087  0.00  0.00    +0.100 C 
ATOM     21  C   UNL     1      -3.539   3.408  23.698  0.00  0.00    +0.100 C 
ATOM     22  C   UNL     1      -4.118   4.112  25.930  0.00  0.00    +0.100 C 
BRANCH   5  25
ATOM     25  C   UNL     1      -3.177   5.694  24.372  0.00  0.00    +0.112 C 
BRANCH  25  26
ATOM     26  C   UNL     1      -2.022   5.646  25.360  0.00  0.00    +0.174 C 
BRANCH  26   2
ATOM      2  O   UNL     1      -0.856   5.200  24.679  0.00  0.00    -0.382 OA
ATOM     29  C   UNL     1      -0.436   3.926  25.146  0.00  0.00    +0.194 C 
ENDBRANCH  26   2
ENDBRANCH  25  26
ENDBRANCH   5  25
ENDBRANCH  13   4
ENDBRANCH   9  13
BRANCH  11  16
ATOM     16  C   UNL     1      -0.883   0.775  23.628  0.00  0.00    +0.105 C 
BRANCH  16  24
ATOM      1  O   UNL     1       1.524   0.377  23.584  0.00  0.00    -0.420 OA
ATOM      6  N   UNL     1       0.441  -0.358  21.769  0.00  0.00    -0.112 NA
ATOM      7  N   UNL     1       1.784  -0.647  21.612  0.00  0.00    -0.107 NA
ATOM     24  C   UNL     1       0.336   0.239  22.934  0.00  0.00    +0.218 A 
ATOM     27  C   UNL     1       2.378  -0.199  22.693  0.00  0.00    +0.248 A 
BRANCH  27  28
ATOM     28  C   UNL     1       3.760  -0.226  23.075  0.00  0.00    +0.039 A 
ATOM     30  C   UNL     1       4.310  -1.382  23.629  0.00  0.00    +0.017 A 
ATOM     31  C   UNL     1       4.555   0.906  22.890  0.00  0.00    +0.017 A 
ATOM     32  C   UNL     1       5.653  -1.407  23.999  0.00  0.00    +0.046 A 
ATOM     33  C   UNL     1       5.900   0.880  23.261  0.00  0.00    +0.046 A 
ATOM     34  C   UNL     1       6.449  -0.277  23.815  0.00  0.00    +0.120 A 
BRANCH  34   3
ATOM      3  O   UNL     1       7.762  -0.302  24.174  0.00  0.00    -0.495 OA
ATOM     35  C   UNL     1       8.723  -0.243  23.121  0.00  0.00    +0.277 C 
ENDBRANCH  34   3
ENDBRANCH  27  28
ENDBRANCH  16  24
ENDBRANCH  11  16
TORSDOF 10
ENDMDL
MODEL 3
REMARK VINA RESULT:       4.8      2.684      5.538
REMARK  Name = 38030912
REMARK  15 active torsions:
REMARK  status: ('A' for Active; 'I' for Inactive)
REMARK    1  A    between atoms: O_2  and  C_26
REMARK    2  A    between atoms: O_2  and  C_29
REMARK    3  A    between atoms: O_3  and  C_34
REMARK    4  A    between atoms: O_3  and  C_35
REMARK    5  A    between atoms: N_4  and  C_13
REMARK    6  A    between atoms: N_5  and  C_25
REMARK    7  A    between atoms: C_8  and  C_12
REMARK    8  A    between atoms: C_9  and  C_13
REMARK    9  A    between atoms: C_11  and  C_16
REMARK   10  A    between atoms: C_12  and  C_19
REMARK   11  A    between atoms: C_12  and  C_20
REMARK   12  A    between atoms: C_15  and  C_23
REMARK   13  A    between atoms: C_16  and  C_24
REMARK   14  A    between atoms: C_25  and  C_26
REMARK   15  A    between atoms: C_27  and  C_28
REMARK                            x       y       z     vdW  Elec       q    Type
REMARK                         _______ _______ _______ _____ _____    ______ ____
ROOT
ATOM      8  C   UNL     1      -3.135   2.962  23.122  0.00  0.00    +0.000 C 
ATOM      9  C   UNL     1      -3.984   3.939  23.968  0.00  0.00    +0.029 C 
ATOM     10  C   UNL     1      -2.937   1.636  23.869  0.00  0.00    +0.012 C 
ATOM     11  C   UNL     1      -4.264   0.953  24.266  0.00  0.00    +0.024 C 
ATOM     14  C   UNL     1      -5.173   3.269  24.608  0.00  0.00    -0.023 C 
ATOM     15  C   UNL     1      -5.322   1.938  24.740  0.00  0.00    -0.073 C 
ATOM     23  C   UNL     1      -6.590   1.370  25.318  0.00  0.00    +0.039 C 
ENDROOT
BRANCH   8  12
ATOM     12  C   UNL     1      -3.760   2.732  21.739  0.00  0.00    -0.013 C 
ATOM     19  C   UNL     1      -4.247   4.051  21.149  0.00  0.00    +0.007 C 
ATOM     20  C   UNL     1      -2.755   2.060  20.808  0.00  0.00    +0.007 C 
ENDBRANCH   8  12
BRANCH   9  13
ATOM     13  C   UNL     1      -3.147   4.623  25.053  0.00  0.00    +0.092 C 
BRANCH  13   4
ATOM      4  N   UNL     1      -2.023   3.776  25.449  0.00  0.00    -0.299 NA
ATOM      5  N   UNL     1       0.345   3.202  27.005  0.00  0.00    -0.298 NA
ATOM     17  C   UNL     1      -0.746   4.439  25.165  0.00  0.00    +0.100 C 
ATOM     18  C   UNL     1      -2.112   3.422  26.872  0.00  0.00    +0.100 C 
ATOM     21  C   UNL     1       0.434   3.555  25.583  0.00  0.00    +0.100 C 
ATOM     22  C   UNL     1      -0.933   2.537  27.287  0.00  0.00    +0.100 C 
BRANCH   5  25
ATOM     25  C   UNL     1       1.469   2.356  27.401  0.00  0.00    +0.112 C 
BRANCH  25  26
ATOM     26  C   UNL     1       2.321   3.053  28.450  0.00  0.00    +0.174 C 
BRANCH  26   2
ATOM      2  O   UNL     1       2.327   2.264  29.632  0.00  0.00    -0.382 OA
ATOM     29  C   UNL     1       1.110   2.396  30.353  0.00  0.00    +0.194 C 
ENDBRANCH  26   2
ENDBRANCH  25  26
ENDBRANCH   5  25
ENDBRANCH  13   4
ENDBRANCH   9  13
BRANCH  11  16
ATOM     16  C   UNL     1      -3.962  -0.141  25.298  0.00  0.00    +0.105 C 
BRANCH  16  24
ATOM      1  O   UNL     1      -1.635  -0.105  24.563  0.00  0.00    -0.420 OA
ATOM      6  N   UNL     1      -2.421  -2.150  25.019  0.00  0.00    -0.112 NA
ATOM      7  N   UNL     1      -1.104  -2.277  24.619  0.00  0.00    -0.107 NA
ATOM     24  C   UNL     1      -2.688  -0.865  24.972  0.00  0.00    +0.218 A 
ATOM     27  C   UNL     1      -0.686  -1.060  24.362  0.00  0.00    +0.248 A 
BRANCH  27  28
ATOM     28  C   UNL     1       0.592  -0.590  23.912  0.00  0.00    +0.039 A 
ATOM     30  C   UNL     1       0.759   0.749  23.556  0.00  0.00    +0.017 A 
ATOM     31  C   UNL     1       1.670  -1.472  23.833  0.00  0.00    +0.017 A 
ATOM     32  C   UNL     1       2.002   1.205  23.121  0.00  0.00    +0.046 A 
ATOM     33  C   UNL     1       2.914  -1.015  23.397  0.00  0.00    +0.046 A 
ATOM     34  C   UNL     1       3.080   0.324  23.040  0.00  0.00    +0.120 A 
BRANCH  34   3
ATOM      3  O   UNL     1       4.294   0.770  22.617  0.00  0.00    -0.495 OA
ATOM     35  C   UNL     1       5.427   0.415  23.409  0.00  0.00    +0.277 C 
ENDBRANCH  34   3
ENDBRANCH  27  28
ENDBRANCH  16  24
ENDBRANCH  11  16
TORSDOF 10
ENDMDL
MODEL 4
REMARK VINA RESULT:       5.4      1.917      6.210
REMARK  Name = 38030912
REMARK  15 active torsions:
REMARK  status: ('A' for Active; 'I' for Inactive)
REMARK    1  A    between atoms: O_2  and  C_26
REMARK    2  A    between atoms: O_2  and  C_29
REMARK    3  A    between atoms: O_3  and  C_34
REMARK    4  A    between atoms: O_3  and  C_35
REMARK    5  A    between atoms: N_4  and  C_13
REMARK    6  A    between atoms: N_5  and  C_25
REMARK    7  A    between atoms: C_8  and  C_12
REMARK    8  A    between atoms: C_9  and  C_13
REMARK    9  A    between atoms: C_11  and  C_16
REMARK   10  A    between atoms: C_12  and  C_19
REMARK   11  A    between atoms: C_12  and  C_20
REMARK   12  A    between atoms: C_15  and  C_23
REMARK   13  A    between atoms: C_16  and  C_24
REMARK   14  A    between atoms: C_25  and  C_26
REMARK   15  A    between atoms: C_27  and  C_28
REMARK                            x       y       z     vdW  Elec       q    Type
REMARK                         _______ _______ _______ _____ _____    ______ ____
ROOT
ATOM      8  C   UNL     1      -2.972   2.881  25.888  0.00  0.00    +0.000 C 
ATOM      9  C   UNL     1      -4.474   2.939  25.528  0.00  0.00    +0.029 C 
ATOM     10  C   UNL     1      -2.178   2.182  24.774  0.00  0.00    +0.012 C 
ATOM     11  C   UNL     1      -2.351   2.847  23.391  0.00  0.00    +0.024 C 
ATOM     14  C   UNL     1      -4.712   3.335  24.094  0.00  0.00    -0.023 C 
ATOM     15  C   UNL     1      -3.775   3.313  23.128  0.00  0.00    -0.073 C 
ATOM     23  C   UNL     1      -4.098   3.813  21.746  0.00  0.00    +0.039 C 
ENDROOT
BRANCH   8  12
ATOM     12  C   UNL     1      -2.411   4.281  26.174  0.00  0.00    -0.013 C 
ATOM     19  C   UNL     1      -1.291   4.616  25.195  0.00  0.00    +0.007 C 
ATOM     20  C   UNL     1      -3.523   5.323  26.104  0.00  0.00    +0.007 C 
ENDBRANCH   8  12
BRANCH   9  13
ATOM     13  C   UNL     1      -5.174   1.604  25.804  0.00  0.00    +0.092 C 
BRANCH  13   4
ATOM      4  N   UNL     1      -4.361   0.486  25.329  0.00  0.00    -0.299 NA
ATOM      5  N   UNL     1      -3.888  -2.319  24.817  0.00  0.00    -0.298 NA
ATOM     17  C   UNL     1      -4.071  -0.449  26.421  0.00  0.00    +0.100 C 
ATOM     18  C   UNL     1      -5.027  -0.209  24.220  0.00  0.00    +0.100 C 
ATOM     21  C   UNL     1      -3.222  -1.624  25.924  0.00  0.00    +0.100 C 
ATOM     22  C   UNL     1      -4.175  -1.383  23.723  0.00  0.00    +0.100 C 
BRANCH   5  25
ATOM     25  C   UNL     1      -3.075  -3.438  24.342  0.00  0.00    +0.112 C 
BRANCH  25  26
ATOM     26  C   UNL     1      -1.612  -3.036  24.251  0.00  0.00    +0.174 C 
BRANCH  26   2
ATOM      2  O   UNL     1      -0.973  -3.350  25.481  0.00  0.00    -0.382 OA
ATOM     29  C   UNL     1       0.319  -2.765  25.563  0.00  0.00    +0.194 C 
ENDBRANCH  26   2
ENDBRANCH  25  26
ENDBRANCH   5  25
ENDBRANCH  13   4
ENDBRANCH   9  13
BRANCH  11  16
ATOM     16  C   UNL     1      -1.831   1.884  22.317  0.00  0.00    +0.105 C 
BRANCH  16  24
ATOM      1  O   UNL     1       0.471   1.166  22.693  0.00  0.00    -0.420 OA
ATOM      6  N   UNL     1      -1.069  -0.201  23.567  0.00  0.00    -0.112 NA
ATOM      7  N   UNL     1       0.178  -0.724  23.853  0.00  0.00    -0.107 NA
ATOM     24  C   UNL     1      -0.849   0.902  22.890  0.00  0.00    +0.218 A 
ATOM     27  C   UNL     1       1.046   0.106  23.323  0.00  0.00    +0.248 A 
BRANCH  27  28
ATOM     28  C   UNL     1       2.480   0.068  23.309  0.00  0.00    +0.039 A 
ATOM     30  C   UNL     1       3.154  -1.073  23.746  0.00  0.00    +0.017 A 
ATOM     31  C   UNL     1       3.201   1.174  22.856  0.00  0.00    +0.017 A 
ATOM     32  C   UNL     1       4.547  -1.109  23.730  0.00  0.00    +0.046 A 
ATOM     33  C   UNL     1       4.596   1.137  22.841  0.00  0.00    +0.046 A 
ATOM     34  C   UNL     1       5.269  -0.004  23.278  0.00  0.00    +0.120 A 
BRANCH  34   3
ATOM      3  O   UNL     1       6.629  -0.040  23.260  0.00  0.00    -0.495 OA
ATOM     35  C   UNL     1       7.241  -1.101  22.529  0.00  0.00    +0.277 C 
ENDBRANCH  34   3
ENDBRANCH  27  28
ENDBRANCH  16  24
ENDBRANCH  11  16
TORSDOF 10
ENDMDL
MODEL 5
REMARK VINA RESULT:       5.4      2.308      5.150
REMARK  Name = 38030912
REMARK  15 active torsions:
REMARK  status: ('A' for Active; 'I' for Inactive)
REMARK    1  A    between atoms: O_2  and  C_26
REMARK    2  A    between atoms: O_2  and  C_29
REMARK    3  A    between atoms: O_3  and  C_34
REMARK    4  A    between atoms: O_3  and  C_35
REMARK    5  A    between atoms: N_4  and  C_13
REMARK    6  A    between atoms: N_5  and  C_25
REMARK    7  A    between atoms: C_8  and  C_12
REMARK    8  A    between atoms: C_9  and  C_13
REMARK    9  A    between atoms: C_11  and  C_16
REMARK   10  A    between atoms: C_12  and  C_19
REMARK   11  A    between atoms: C_12  and  C_20
REMARK   12  A    between atoms: C_15  and  C_23
REMARK   13  A    between atoms: C_16  and  C_24
REMARK   14  A    between atoms: C_25  and  C_26
REMARK   15  A    between atoms: C_27  and  C_28
REMARK                            x       y       z     vdW  Elec       q    Type
REMARK                         _______ _______ _______ _____ _____    ______ ____
ROOT
ATOM      8  C   UNL     1      -3.281  -1.159  24.800  0.00  0.00    +0.000 C 
ATOM      9  C   UNL     1      -1.985  -0.584  24.183  0.00  0.00    +0.029 C 
ATOM     10  C   UNL     1      -4.213  -0.025  25.249  0.00  0.00    +0.012 C 
ATOM     11  C   UNL     1      -4.575   0.955  24.112  0.00  0.00    +0.024 C 
ATOM     14  C   UNL     1      -2.250   0.566  23.247  0.00  0.00    -0.023 C 
ATOM     15  C   UNL     1      -3.403   1.258  23.191  0.00  0.00    -0.073 C 
ATOM     23  C   UNL     1      -3.592   2.334  22.157  0.00  0.00    +0.039 C 
ENDROOT
BRANCH   8  12
ATOM     12  C   UNL     1      -3.991  -2.108  23.824  0.00  0.00    -0.013 C 
ATOM     19  C   UNL     1      -3.593  -3.553  24.102  0.00  0.00    +0.007 C 
ATOM     20  C   UNL     1      -5.504  -1.934  23.920  0.00  0.00    +0.007 C 
ENDBRANCH   8  12
BRANCH   9  13
ATOM     13  C   UNL     1      -0.995  -0.137  25.263  0.00  0.00    +0.092 C 
BRANCH  13   4
ATOM      4  N   UNL     1       0.344   0.031  24.699  0.00  0.00    -0.299 NA
ATOM      5  N   UNL     1       2.195   0.284  22.493  0.00  0.00    -0.298 NA
ATOM     17  C   UNL     1       0.712  -1.127  23.877  0.00  0.00    +0.100 C 
ATOM     18  C   UNL     1       0.426   1.267  23.910  0.00  0.00    +0.100 C 
ATOM     21  C   UNL     1       2.113  -0.951  23.281  0.00  0.00    +0.100 C 
ATOM     22  C   UNL     1       1.828   1.442  23.317  0.00  0.00    +0.100 C 
BRANCH   5  25
ATOM     25  C   UNL     1       3.532   0.451  21.928  0.00  0.00    +0.112 C 
BRANCH  25  26
ATOM     26  C   UNL     1       4.517   0.888  23.002  0.00  0.00    +0.174 C 
BRANCH  26   2
ATOM      2  O   UNL     1       5.571  -0.063  23.071  0.00  0.00    -0.382 OA
ATOM     29  C   UNL     1       5.581  -0.740  24.320  0.00  0.00    +0.194 C 
ENDBRANCH  26   2
ENDBRANCH  25  26
ENDBRANCH   5  25
ENDBRANCH  13   4
ENDBRANCH   9  13
BRANCH  11  16
ATOM     16  C   UNL     1      -5.190   2.217  24.731  0.00  0.00    +0.105 C 
BRANCH  16  24
ATOM      1  O   UNL     1      -3.043   2.495  25.857  0.00  0.00    -0.420 OA
ATOM      6  N   UNL     1      -4.098   4.416  25.409  0.00  0.00    -0.112 NA
ATOM      7  N   UNL     1      -2.907   4.720  26.042  0.00  0.00    -0.107 NA
ATOM     24  C   UNL     1      -4.135   3.107  25.322  0.00  0.00    +0.218 A 
ATOM     27  C   UNL     1      -2.325   3.569  26.285  0.00  0.00    +0.248 A 
BRANCH  27  28
ATOM     28  C   UNL     1      -1.072   3.275  26.918  0.00  0.00    +0.039 A 
ATOM     30  C   UNL     1      -1.027   3.004  28.286  0.00  0.00    +0.017 A 
ATOM     31  C   UNL     1       0.103   3.260  26.165  0.00  0.00    +0.017 A 
ATOM     32  C   UNL     1       0.191   2.717  28.900  0.00  0.00    +0.046 A 
ATOM     33  C   UNL     1       1.321   2.974  26.780  0.00  0.00    +0.046 A 
ATOM     34  C   UNL     1       1.366   2.702  28.148  0.00  0.00    +0.120 A 
BRANCH  34   3
ATOM      3  O   UNL     1       2.555   2.420  28.747  0.00  0.00    -0.495 OA
ATOM     35  C   UNL     1       2.504   1.894  30.073  0.00  0.00    +0.277 C 
ENDBRANCH  34   3
ENDBRANCH  27  28
ENDBRANCH  16  24
ENDBRANCH  11  16
TORSDOF 10
ENDMDL
MODEL 6
REMARK VINA RESULT:       5.4      1.704      6.763
REMARK  Name = 38030912
REMARK  15 active torsions:
REMARK  status: ('A' for Active; 'I' for Inactive)
REMARK    1  A    between atoms: O_2  and  C_26
REMARK    2  A    between atoms: O_2  and  C_29
REMARK    3  A    between atoms: O_3  and  C_34
REMARK    4  A    between atoms: O_3  and  C_35
REMARK    5  A    between atoms: N_4  and  C_13
REMARK    6  A    between atoms: N_5  and  C_25
REMARK    7  A    between atoms: C_8  and  C_12
REMARK    8  A    between atoms: C_9  and  C_13
REMARK    9  A    between atoms: C_11  and  C_16
REMARK   10  A    between atoms: C_12  and  C_19
REMARK   11  A    between atoms: C_12  and  C_20
REMARK   12  A    between atoms: C_15  and  C_23
REMARK   13  A    between atoms: C_16  and  C_24
REMARK   14  A    between atoms: C_25  and  C_26
REMARK   15  A    between atoms: C_27  and  C_28
REMARK                            x       y       z     vdW  Elec       q    Type
REMARK                         _______ _______ _______ _____ _____    ______ ____
ROOT
ATOM      8  C   UNL     1      -2.292   3.870  25.864  0.00  0.00    +0.000 C 
ATOM      9  C   UNL     1      -3.675   3.955  25.178  0.00  0.00    +0.029 C 
ATOM     10  C   UNL     1      -1.692   2.467  25.696  0.00  0.00    +0.012 C 
ATOM     11  C   UNL     1      -1.561   2.031  24.221  0.00  0.00    +0.024 C 
ATOM     14  C   UNL     1      -3.687   3.306  23.818  0.00  0.00    -0.023 C 
ATOM     15  C   UNL     1      -2.747   2.455  23.367  0.00  0.00    -0.073 C 
ATOM     23  C   UNL     1      -2.810   1.932  21.958  0.00  0.00    +0.039 C 
ENDROOT
BRANCH   8  12
ATOM     12  C   UNL     1      -1.338   4.950  25.334  0.00  0.00    -0.013 C 
ATOM     19  C   UNL     1      -0.231   4.316  24.497  0.00  0.00    +0.007 C 
ATOM     20  C   UNL     1      -2.107   5.986  24.520  0.00  0.00    +0.007 C 
ENDBRANCH   8  12
BRANCH   9  13
ATOM     13  C   UNL     1      -4.775   3.331  26.042  0.00  0.00    +0.092 C 
BRANCH  13   4
ATOM      4  N   UNL     1      -4.963   1.922  25.701  0.00  0.00    -0.299 NA
ATOM      5  N   UNL     1      -4.291  -0.490  24.256  0.00  0.00    -0.298 NA
ATOM     17  C   UNL     1      -5.293   1.768  24.280  0.00  0.00    +0.100 C 
ATOM     18  C   UNL     1      -3.767   1.139  26.038  0.00  0.00    +0.100 C 
ATOM     21  C   UNL     1      -5.487   0.291  23.920  0.00  0.00    +0.100 C 
ATOM     22  C   UNL     1      -3.963  -0.338  25.679  0.00  0.00    +0.100 C 
BRANCH   5  25
ATOM     25  C   UNL     1      -4.479  -1.898  23.914  0.00  0.00    +0.112 C 
BRANCH  25  26
ATOM     26  C   UNL     1      -3.550  -2.778  24.737  0.00  0.00    +0.174 C 
BRANCH  26   2
ATOM      2  O   UNL     1      -2.303  -2.883  24.063  0.00  0.00    -0.382 OA
ATOM     29  C   UNL     1      -1.217  -2.575  24.925  0.00  0.00    +0.194 C 
ENDBRANCH  26   2
ENDBRANCH  25  26
ENDBRANCH   5  25
ENDBRANCH  13   4
ENDBRANCH   9  13
BRANCH  11  16
ATOM     16  C   UNL     1      -1.305   0.520  24.178  0.00  0.00    +0.105 C 
BRANCH  16  24
ATOM      1  O   UNL     1       1.106   0.271  23.901  0.00  0.00    -0.420 OA
ATOM      6  N   UNL     1      -0.079  -0.176  22.056  0.00  0.00    -0.112 NA
ATOM      7  N   UNL     1       1.259  -0.356  21.759  0.00  0.00    -0.107 NA
ATOM     24  C   UNL     1      -0.120   0.189  23.317  0.00  0.00    +0.218 A 
ATOM     27  C   UNL     1       1.914  -0.083  22.863  0.00  0.00    +0.248 A 
BRANCH  27  28
ATOM     28  C   UNL     1       3.320  -0.103  23.141  0.00  0.00    +0.039 A 
ATOM     30  C   UNL     1       4.095   1.034  22.907  0.00  0.00    +0.017 A 
ATOM     31  C   UNL     1       3.915  -1.260  23.646  0.00  0.00    +0.017 A 
ATOM     32  C   UNL     1       5.462   1.014  23.179  0.00  0.00    +0.046 A 
ATOM     33  C   UNL     1       5.284  -1.279  23.916  0.00  0.00    +0.046 A 
ATOM     34  C   UNL     1       6.057  -0.142  23.682  0.00  0.00    +0.120 A 
BRANCH  34   3
ATOM      3  O   UNL     1       7.392  -0.161  23.949  0.00  0.00    -0.495 OA
ATOM     35  C   UNL     1       8.261  -0.539  22.883  0.00  0.00    +0.277 C 
ENDBRANCH  34   3
ENDBRANCH  27  28
ENDBRANCH  16  24
ENDBRANCH  11  16
TORSDOF 10
ENDMDL
