MODEL 1
REMARK VINA RESULT:      -6.1      0.000      0.000
REMARK  Name = 75536693
REMARK  8 active torsions:
REMARK  status: ('A' for Active; 'I' for Inactive)
REMARK    1  A    between atoms: S_1  and  N_8
REMARK    2  A    between atoms: S_1  and  C_16
REMARK    3  A    between atoms: O_4  and  C_10
REMARK    4  A    between atoms: N_7  and  C_9
REMARK    5  A    between atoms: N_7  and  C_14
REMARK    6  A    between atoms: N_8  and  C_13
REMARK    7  A    between atoms: C_11  and  C_13
REMARK    8  A    between atoms: C_14  and  C_15
REMARK                            x       y       z     vdW  Elec       q    Type
REMARK                         _______ _______ _______ _____ _____    ______ ____
ROOT
ATOM      3  O   UNL     1      -0.331   3.408  25.616  0.00  0.00    -0.371 OA
ATOM      9  C   UNL     1       0.217   1.728  24.030  0.00  0.00    +0.111 C 
ATOM     10  C   UNL     1      -1.275   1.998  23.970  0.00  0.00    +0.164 C 
ATOM     11  C   UNL     1      -1.349   3.382  24.602  0.00  0.00    +0.164 C 
ATOM     12  C   UNL     1       0.574   2.314  25.385  0.00  0.00    +0.181 C 
ENDROOT
BRANCH  10   4
ATOM      4  O   UNL     1      -1.778   1.995  22.647  0.00  0.00    -0.388 OA
ATOM     28  H   UNL     1      -1.535   2.837  22.226  0.00  0.00    +0.210 HD
ENDBRANCH  10   4
BRANCH   9   7
ATOM      7  N   UNL     1       0.559   0.320  23.914  0.00  0.00    -0.305 NA
ATOM     27  H   UNL     1      -0.299  -0.226  23.826  0.00  0.00    +0.123 HD
BRANCH   7  14
ATOM     14  C   UNL     1       1.394   0.077  22.743  0.00  0.00    +0.119 C 
BRANCH  14  15
ATOM      2  F   UNL     1       3.324   2.144  22.602  0.00  0.00    -0.205 F 
ATOM     15  C   UNL     1       2.839  -0.122  23.116  0.00  0.00    +0.002 A 
ATOM     17  C   UNL     1       3.737   0.940  23.023  0.00  0.00    +0.128 A 
ATOM     18  C   UNL     1       3.278  -1.371  23.556  0.00  0.00    +0.008 A 
ATOM     21  C   UNL     1       5.076   0.754  23.369  0.00  0.00    +0.038 A 
ATOM     22  C   UNL     1       4.617  -1.557  23.902  0.00  0.00    +0.000 A 
ATOM     23  C   UNL     1       5.515  -0.495  23.809  0.00  0.00    +0.003 A 
ENDBRANCH  14  15
ENDBRANCH   7  14
ENDBRANCH   9   7
BRANCH  11  13
ATOM     13  C   UNL     1      -2.700   3.687  25.222  0.00  0.00    +0.140 C 
BRANCH  13   8
ATOM      8  N   UNL     1      -3.296   2.442  25.745  0.00  0.00    -0.187 NA
ATOM     29  H   UNL     1      -2.664   1.834  26.280  0.00  0.00    +0.148 HD
BRANCH   8   1
ATOM      1  S   UNL     1      -4.620   1.730  24.947  0.00  0.00    +0.058 S 
ATOM      5  O   UNL     1      -4.683   2.227  23.586  0.00  0.00    -0.153 OA
ATOM      6  O   UNL     1      -5.785   1.805  25.807  0.00  0.00    -0.153 OA
BRANCH   1  16
ATOM     16  C   UNL     1      -4.133   0.031  24.885  0.00  0.00    +0.105 A 
ATOM     19  C   UNL     1      -3.283  -0.486  25.862  0.00  0.00    +0.028 A 
ATOM     20  C   UNL     1      -4.597  -0.790  23.857  0.00  0.00    +0.028 A 
ATOM     24  C   UNL     1      -2.896  -1.826  25.812  0.00  0.00    +0.002 A 
ATOM     25  C   UNL     1      -4.209  -2.129  23.807  0.00  0.00    +0.002 A 
ATOM     26  C   UNL     1      -3.359  -2.647  24.784  0.00  0.00    +0.000 A 
ENDBRANCH   1  16
ENDBRANCH   8   1
ENDBRANCH  13   8
ENDBRANCH  11  13
TORSDOF 8
ENDMDL
MODEL 2
REMARK VINA RESULT:      -5.4      2.903      5.939
REMARK  Name = 75536693
REMARK  8 active torsions:
REMARK  status: ('A' for Active; 'I' for Inactive)
REMARK    1  A    between atoms: S_1  and  N_8
REMARK    2  A    between atoms: S_1  and  C_16
REMARK    3  A    between atoms: O_4  and  C_10
REMARK    4  A    between atoms: N_7  and  C_9
REMARK    5  A    between atoms: N_7  and  C_14
REMARK    6  A    between atoms: N_8  and  C_13
REMARK    7  A    between atoms: C_11  and  C_13
REMARK    8  A    between atoms: C_14  and  C_15
REMARK                            x       y       z     vdW  Elec       q    Type
REMARK                         _______ _______ _______ _____ _____    ______ ____
ROOT
ATOM      3  O   UNL     1      -2.497   3.350  23.496  0.00  0.00    -0.371 OA
ATOM      9  C   UNL     1      -4.628   2.554  24.175  0.00  0.00    +0.111 C 
ATOM     10  C   UNL     1      -4.039   3.402  25.287  0.00  0.00    +0.164 C 
ATOM     11  C   UNL     1      -3.010   4.220  24.518  0.00  0.00    +0.164 C 
ATOM     12  C   UNL     1      -3.391   2.232  23.354  0.00  0.00    +0.181 C 
ENDROOT
BRANCH  10   4
ATOM      4  O   UNL     1      -5.004   4.224  25.915  0.00  0.00    -0.388 OA
ATOM     28  H   UNL     1      -5.759   3.668  26.173  0.00  0.00    +0.210 HD
ENDBRANCH  10   4
BRANCH   9   7
ATOM      7  N   UNL     1      -5.317   1.365  24.651  0.00  0.00    -0.305 NA
ATOM     27  H   UNL     1      -5.492   0.743  23.861  0.00  0.00    +0.123 HD
BRANCH   7  14
ATOM     14  C   UNL     1      -4.514   0.654  25.640  0.00  0.00    +0.119 C 
BRANCH  14  15
ATOM      2  F   UNL     1      -3.132  -1.208  27.265  0.00  0.00    -0.205 F 
ATOM     15  C   UNL     1      -4.140  -0.727  25.171  0.00  0.00    +0.002 A 
ATOM     17  C   UNL     1      -3.459  -1.594  26.024  0.00  0.00    +0.128 A 
ATOM     18  C   UNL     1      -4.477  -1.138  23.881  0.00  0.00    +0.008 A 
ATOM     21  C   UNL     1      -3.114  -2.874  25.588  0.00  0.00    +0.038 A 
ATOM     22  C   UNL     1      -4.132  -2.418  23.445  0.00  0.00    +0.000 A 
ATOM     23  C   UNL     1      -3.450  -3.285  24.298  0.00  0.00    +0.003 A 
ENDBRANCH  14  15
ENDBRANCH   7  14
ENDBRANCH   9   7
BRANCH  11  13
ATOM     13  C   UNL     1      -1.870   4.719  25.388  0.00  0.00    +0.140 C 
BRANCH  13   8
ATOM      8  N   UNL     1      -0.650   3.940  25.099  0.00  0.00    -0.187 NA
ATOM     29  H   UNL     1      -0.349   3.930  24.117  0.00  0.00    +0.148 HD
BRANCH   8   1
ATOM      1  S   UNL     1      -0.226   2.622  26.088  0.00  0.00    +0.058 S 
ATOM      5  O   UNL     1      -1.370   2.240  26.895  0.00  0.00    -0.153 OA
ATOM      6  O   UNL     1       1.052   2.897  26.717  0.00  0.00    -0.153 OA
BRANCH   1  16
ATOM     16  C   UNL     1       0.050   1.347  24.894  0.00  0.00    +0.105 A 
ATOM     19  C   UNL     1      -0.693   0.168  24.950  0.00  0.00    +0.028 A 
ATOM     20  C   UNL     1       1.012   1.520  23.900  0.00  0.00    +0.028 A 
ATOM     24  C   UNL     1      -0.474  -0.840  24.011  0.00  0.00    +0.002 A 
ATOM     25  C   UNL     1       1.231   0.512  22.960  0.00  0.00    +0.002 A 
ATOM     26  C   UNL     1       0.488  -0.667  23.016  0.00  0.00    +0.000 A 
ENDBRANCH   1  16
ENDBRANCH   8   1
ENDBRANCH  13   8
ENDBRANCH  11  13
TORSDOF 8
ENDMDL
MODEL 3
REMARK VINA RESULT:      -5.2      1.649      3.685
REMARK  Name = 75536693
REMARK  8 active torsions:
REMARK  status: ('A' for Active; 'I' for Inactive)
REMARK    1  A    between atoms: S_1  and  N_8
REMARK    2  A    between atoms: S_1  and  C_16
REMARK    3  A    between atoms: O_4  and  C_10
REMARK    4  A    between atoms: N_7  and  C_9
REMARK    5  A    between atoms: N_7  and  C_14
REMARK    6  A    between atoms: N_8  and  C_13
REMARK    7  A    between atoms: C_11  and  C_13
REMARK    8  A    between atoms: C_14  and  C_15
REMARK                            x       y       z     vdW  Elec       q    Type
REMARK                         _______ _______ _______ _____ _____    ______ ____
ROOT
ATOM      3  O   UNL     1      -1.861  -2.238  24.035  0.00  0.00    -0.371 OA
ATOM      9  C   UNL     1      -0.027  -0.776  24.401  0.00  0.00    +0.111 C 
ATOM     10  C   UNL     1      -1.210  -0.301  25.223  0.00  0.00    +0.164 C 
ATOM     11  C   UNL     1      -2.047  -1.571  25.294  0.00  0.00    +0.164 C 
ATOM     12  C   UNL     1      -0.709  -1.675  23.384  0.00  0.00    +0.181 C 
ENDROOT
BRANCH  10   4
ATOM      4  O   UNL     1      -0.834   0.156  26.509  0.00  0.00    -0.388 OA
ATOM     28  H   UNL     1       0.017   0.621  26.431  0.00  0.00    +0.210 HD
ENDBRANCH  10   4
BRANCH   9   7
ATOM      7  N   UNL     1       0.727   0.305  23.785  0.00  0.00    -0.305 NA
ATOM     27  H   UNL     1       1.318   0.743  24.492  0.00  0.00    +0.123 HD
BRANCH   7  14
ATOM     14  C   UNL     1       1.573  -0.193  22.707  0.00  0.00    +0.119 C 
BRANCH  14  15
ATOM      2  F   UNL     1       3.327   2.026  22.575  0.00  0.00    -0.205 F 
ATOM     15  C   UNL     1       3.020  -0.265  23.117  0.00  0.00    +0.002 A 
ATOM     17  C   UNL     1       3.829   0.868  23.026  0.00  0.00    +0.128 A 
ATOM     18  C   UNL     1       3.551  -1.466  23.588  0.00  0.00    +0.008 A 
ATOM     21  C   UNL     1       5.169   0.800  23.406  0.00  0.00    +0.038 A 
ATOM     22  C   UNL     1       4.891  -1.534  23.968  0.00  0.00    +0.000 A 
ATOM     23  C   UNL     1       5.700  -0.402  23.877  0.00  0.00    +0.003 A 
ENDBRANCH  14  15
ENDBRANCH   7  14
ENDBRANCH   9   7
BRANCH  11  13
ATOM     13  C   UNL     1      -3.524  -1.304  25.521  0.00  0.00    +0.140 C 
BRANCH  13   8
ATOM      8  N   UNL     1      -3.732   0.133  25.790  0.00  0.00    -0.187 NA
ATOM     29  H   UNL     1      -4.011   0.371  26.749  0.00  0.00    +0.148 HD
BRANCH   8   1
ATOM      1  S   UNL     1      -4.193   1.178  24.529  0.00  0.00    +0.058 S 
ATOM      5  O   UNL     1      -5.570   1.590  24.726  0.00  0.00    -0.153 OA
ATOM      6  O   UNL     1      -3.776   0.604  23.265  0.00  0.00    -0.153 OA
BRANCH   1  16
ATOM     16  C   UNL     1      -3.157   2.580  24.826  0.00  0.00    +0.105 A 
ATOM     19  C   UNL     1      -3.570   3.576  25.711  0.00  0.00    +0.028 A 
ATOM     20  C   UNL     1      -1.931   2.692  24.172  0.00  0.00    +0.028 A 
ATOM     24  C   UNL     1      -2.755   4.685  25.943  0.00  0.00    +0.002 A 
ATOM     25  C   UNL     1      -1.116   3.801  24.403  0.00  0.00    +0.002 A 
ATOM     26  C   UNL     1      -1.528   4.797  25.289  0.00  0.00    +0.000 A 
ENDBRANCH   1  16
ENDBRANCH   8   1
ENDBRANCH  13   8
ENDBRANCH  11  13
TORSDOF 8
ENDMDL
MODEL 4
REMARK VINA RESULT:      -5.1      3.410      6.819
REMARK  Name = 75536693
REMARK  8 active torsions:
REMARK  status: ('A' for Active; 'I' for Inactive)
REMARK    1  A    between atoms: S_1  and  N_8
REMARK    2  A    between atoms: S_1  and  C_16
REMARK    3  A    between atoms: O_4  and  C_10
REMARK    4  A    between atoms: N_7  and  C_9
REMARK    5  A    between atoms: N_7  and  C_14
REMARK    6  A    between atoms: N_8  and  C_13
REMARK    7  A    between atoms: C_11  and  C_13
REMARK    8  A    between atoms: C_14  and  C_15
REMARK                            x       y       z     vdW  Elec       q    Type
REMARK                         _______ _______ _______ _____ _____    ______ ____
ROOT
ATOM      3  O   UNL     1      -1.520  -1.070  26.449  0.00  0.00    -0.371 OA
ATOM      9  C   UNL     1      -3.459  -1.708  25.236  0.00  0.00    +0.111 C 
ATOM     10  C   UNL     1      -2.243  -1.860  24.341  0.00  0.00    +0.164 C 
ATOM     11  C   UNL     1      -1.126  -1.939  25.374  0.00  0.00    +0.164 C 
ATOM     12  C   UNL     1      -2.923  -0.784  26.317  0.00  0.00    +0.181 C 
ENDROOT
BRANCH  10   4
ATOM      4  O   UNL     1      -2.300  -3.022  23.536  0.00  0.00    -0.388 OA
ATOM     28  H   UNL     1      -3.050  -2.934  22.924  0.00  0.00    +0.210 HD
ENDBRANCH  10   4
BRANCH   9   7
ATOM      7  N   UNL     1      -4.621  -1.165  24.552  0.00  0.00    -0.305 NA
ATOM     27  H   UNL     1      -5.285  -0.819  25.247  0.00  0.00    +0.123 HD
BRANCH   7  14
ATOM     14  C   UNL     1      -4.246  -0.065  23.671  0.00  0.00    +0.119 C 
BRANCH  14  15
ATOM      2  F   UNL     1      -3.204   2.377  22.686  0.00  0.00    -0.205 F 
ATOM     15  C   UNL     1      -4.584   1.274  24.271  0.00  0.00    +0.002 A 
ATOM     17  C   UNL     1      -4.035   2.439  23.736  0.00  0.00    +0.128 A 
ATOM     18  C   UNL     1      -5.448   1.348  25.364  0.00  0.00    +0.008 A 
ATOM     21  C   UNL     1      -4.349   3.678  24.293  0.00  0.00    +0.038 A 
ATOM     22  C   UNL     1      -5.763   2.588  25.921  0.00  0.00    +0.000 A 
ATOM     23  C   UNL     1      -5.213   3.753  25.386  0.00  0.00    +0.003 A 
ENDBRANCH  14  15
ENDBRANCH   7  14
ENDBRANCH   9   7
BRANCH  11  13
ATOM     13  C   UNL     1       0.224  -1.506  24.831  0.00  0.00    +0.140 C 
BRANCH  13   8
ATOM      8  N   UNL     1       0.426  -0.068  25.098  0.00  0.00    -0.187 NA
ATOM     29  H   UNL     1       0.111   0.264  26.017  0.00  0.00    +0.148 HD
BRANCH   8   1
ATOM      1  S   UNL     1       0.467   1.040  23.807  0.00  0.00    +0.058 S 
ATOM      5  O   UNL     1      -0.382   0.559  22.733  0.00  0.00    -0.153 OA
ATOM      6  O   UNL     1       1.846   1.402  23.540  0.00  0.00    -0.153 OA
BRANCH   1  16
ATOM     16  C   UNL     1      -0.310   2.458  24.522  0.00  0.00    +0.105 A 
ATOM     19  C   UNL     1      -1.023   2.334  25.715  0.00  0.00    +0.028 A 
ATOM     20  C   UNL     1      -0.213   3.698  23.893  0.00  0.00    +0.028 A 
ATOM     24  C   UNL     1      -1.639   3.451  26.278  0.00  0.00    +0.002 A 
ATOM     25  C   UNL     1      -0.829   4.816  24.457  0.00  0.00    +0.002 A 
ATOM     26  C   UNL     1      -1.542   4.692  25.649  0.00  0.00    +0.000 A 
ENDBRANCH   1  16
ENDBRANCH   8   1
ENDBRANCH  13   8
ENDBRANCH  11  13
TORSDOF 8
ENDMDL
MODEL 5
REMARK VINA RESULT:      -4.7      3.149      6.109
REMARK  Name = 75536693
REMARK  8 active torsions:
REMARK  status: ('A' for Active; 'I' for Inactive)
REMARK    1  A    between atoms: S_1  and  N_8
REMARK    2  A    between atoms: S_1  and  C_16
REMARK    3  A    between atoms: O_4  and  C_10
REMARK    4  A    between atoms: N_7  and  C_9
REMARK    5  A    between atoms: N_7  and  C_14
REMARK    6  A    between atoms: N_8  and  C_13
REMARK    7  A    between atoms: C_11  and  C_13
REMARK    8  A    between atoms: C_14  and  C_15
REMARK                            x       y       z     vdW  Elec       q    Type
REMARK                         _______ _______ _______ _____ _____    ______ ____
ROOT
ATOM      3  O   UNL     1       0.217   3.427  23.504  0.00  0.00    -0.371 OA
ATOM      9  C   UNL     1      -0.842   4.135  25.508  0.00  0.00    +0.111 C 
ATOM     10  C   UNL     1      -0.494   2.662  25.625  0.00  0.00    +0.164 C 
ATOM     11  C   UNL     1       0.591   2.531  24.564  0.00  0.00    +0.164 C 
ATOM     12  C   UNL     1      -0.775   4.341  24.004  0.00  0.00    +0.181 C 
ENDROOT
BRANCH  10   4
ATOM      4  O   UNL     1      -0.018   2.315  26.911  0.00  0.00    -0.388 OA
ATOM     28  H   UNL     1      -0.234   3.039  27.523  0.00  0.00    +0.210 HD
ENDBRANCH  10   4
BRANCH   9   7
ATOM      7  N   UNL     1      -2.140   4.474  26.068  0.00  0.00    -0.305 NA
ATOM     27  H   UNL     1      -2.057   5.341  26.600  0.00  0.00    +0.123 HD
BRANCH   7  14
ATOM     14  C   UNL     1      -3.133   4.659  25.017  0.00  0.00    +0.119 C 
BRANCH  14  15
ATOM      2  F   UNL     1      -3.550   2.785  22.935  0.00  0.00    -0.205 F 
ATOM     15  C   UNL     1      -4.204   3.602  25.065  0.00  0.00    +0.002 A 
ATOM     17  C   UNL     1      -4.355   2.711  24.004  0.00  0.00    +0.128 A 
ATOM     18  C   UNL     1      -5.047   3.516  26.174  0.00  0.00    +0.008 A 
ATOM     21  C   UNL     1      -5.348   1.732  24.050  0.00  0.00    +0.038 A 
ATOM     22  C   UNL     1      -6.040   2.537  26.221  0.00  0.00    +0.000 A 
ATOM     23  C   UNL     1      -6.191   1.646  25.159  0.00  0.00    +0.003 A 
ENDBRANCH  14  15
ENDBRANCH   7  14
ENDBRANCH   9   7
BRANCH  11  13
ATOM     13  C   UNL     1       0.730   1.121  24.020  0.00  0.00    +0.140 C 
BRANCH  13   8
ATOM      8  N   UNL     1      -0.562   0.416  24.136  0.00  0.00    -0.187 NA
ATOM     29  H   UNL     1      -1.397   0.979  23.933  0.00  0.00    +0.148 HD
BRANCH   8   1
ATOM      1  S   UNL     1      -0.718  -0.912  25.188  0.00  0.00    +0.058 S 
ATOM      5  O   UNL     1      -0.915  -0.431  26.543  0.00  0.00    -0.153 OA
ATOM      6  O   UNL     1       0.334  -1.868  24.899  0.00  0.00    -0.153 OA
BRANCH   1  16
ATOM     16  C   UNL     1      -2.236  -1.632  24.639  0.00  0.00    +0.105 A 
ATOM     19  C   UNL     1      -3.314  -0.814  24.303  0.00  0.00    +0.028 A 
ATOM     20  C   UNL     1      -2.357  -3.019  24.546  0.00  0.00    +0.028 A 
ATOM     24  C   UNL     1      -4.514  -1.382  23.873  0.00  0.00    +0.002 A 
ATOM     25  C   UNL     1      -3.556  -3.587  24.117  0.00  0.00    +0.002 A 
ATOM     26  C   UNL     1      -4.634  -2.768  23.780  0.00  0.00    +0.000 A 
ENDBRANCH   1  16
ENDBRANCH   8   1
ENDBRANCH  13   8
ENDBRANCH  11  13
TORSDOF 8
ENDMDL
MODEL 6
REMARK VINA RESULT:      -4.6      3.694      6.035
REMARK  Name = 75536693
REMARK  8 active torsions:
REMARK  status: ('A' for Active; 'I' for Inactive)
REMARK    1  A    between atoms: S_1  and  N_8
REMARK    2  A    between atoms: S_1  and  C_16
REMARK    3  A    between atoms: O_4  and  C_10
REMARK    4  A    between atoms: N_7  and  C_9
REMARK    5  A    between atoms: N_7  and  C_14
REMARK    6  A    between atoms: N_8  and  C_13
REMARK    7  A    between atoms: C_11  and  C_13
REMARK    8  A    between atoms: C_14  and  C_15
REMARK                            x       y       z     vdW  Elec       q    Type
REMARK                         _______ _______ _______ _____ _____    ______ ____
ROOT
ATOM      3  O   UNL     1      -0.404   4.621  24.244  0.00  0.00    -0.371 OA
ATOM      9  C   UNL     1      -1.871   4.395  26.097  0.00  0.00    +0.111 C 
ATOM     10  C   UNL     1      -1.141   3.083  25.882  0.00  0.00    +0.164 C 
ATOM     11  C   UNL     1       0.066   3.548  25.076  0.00  0.00    +0.164 C 
ATOM     12  C   UNL     1      -1.670   5.076  24.754  0.00  0.00    +0.181 C 
ENDROOT
BRANCH  10   4
ATOM      4  O   UNL     1      -0.757   2.466  27.097  0.00  0.00    -0.388 OA
ATOM     28  H   UNL     1      -1.300   2.837  27.813  0.00  0.00    +0.210 HD
ENDBRANCH  10   4
BRANCH   9   7
ATOM      7  N   UNL     1      -3.273   4.232  26.444  0.00  0.00    -0.305 NA
ATOM     27  H   UNL     1      -3.578   5.038  26.992  0.00  0.00    +0.123 HD
BRANCH   7  14
ATOM     14  C   UNL     1      -4.103   4.136  25.248  0.00  0.00    +0.119 C 
BRANCH  14  15
ATOM      2  F   UNL     1      -5.979   2.394  26.460  0.00  0.00    -0.205 F 
ATOM     15  C   UNL     1      -4.297   2.707  24.814  0.00  0.00    +0.002 A 
ATOM     17  C   UNL     1      -5.239   1.904  25.456  0.00  0.00    +0.128 A 
ATOM     18  C   UNL     1      -3.532   2.188  23.769  0.00  0.00    +0.008 A 
ATOM     21  C   UNL     1      -5.418   0.580  25.051  0.00  0.00    +0.038 A 
ATOM     22  C   UNL     1      -3.711   0.864  23.365  0.00  0.00    +0.000 A 
ATOM     23  C   UNL     1      -4.653   0.061  24.006  0.00  0.00    +0.003 A 
ENDBRANCH  14  15
ENDBRANCH   7  14
ENDBRANCH   9   7
BRANCH  11  13
ATOM     13  C   UNL     1       0.667   2.453  24.213  0.00  0.00    +0.140 C 
BRANCH  13   8
ATOM      8  N   UNL     1       0.362   1.134  24.802  0.00  0.00    -0.187 NA
ATOM     29  H   UNL     1       0.682   0.992  25.767  0.00  0.00    +0.148 HD
BRANCH   8   1
ATOM      1  S   UNL     1       0.188  -0.228  23.798  0.00  0.00    +0.058 S 
ATOM      5  O   UNL     1       1.380  -1.050  23.893  0.00  0.00    -0.153 OA
ATOM      6  O   UNL     1      -0.300   0.201  22.502  0.00  0.00    -0.153 OA
BRANCH   1  16
ATOM     16  C   UNL     1      -1.135  -1.093  24.588  0.00  0.00    +0.105 A 
ATOM     19  C   UNL     1      -1.696  -2.216  23.979  0.00  0.00    +0.028 A 
ATOM     20  C   UNL     1      -1.621  -0.651  25.818  0.00  0.00    +0.028 A 
ATOM     24  C   UNL     1      -2.743  -2.897  24.600  0.00  0.00    +0.002 A 
ATOM     25  C   UNL     1      -2.669  -1.332  26.439  0.00  0.00    +0.002 A 
ATOM     26  C   UNL     1      -3.229  -2.455  25.830  0.00  0.00    +0.000 A 
ENDBRANCH   1  16
ENDBRANCH   8   1
ENDBRANCH  13   8
ENDBRANCH  11  13
TORSDOF 8
ENDMDL
MODEL 7
REMARK VINA RESULT:      -3.7      2.260      6.545
REMARK  Name = 75536693
REMARK  8 active torsions:
REMARK  status: ('A' for Active; 'I' for Inactive)
REMARK    1  A    between atoms: S_1  and  N_8
REMARK    2  A    between atoms: S_1  and  C_16
REMARK    3  A    between atoms: O_4  and  C_10
REMARK    4  A    between atoms: N_7  and  C_9
REMARK    5  A    between atoms: N_7  and  C_14
REMARK    6  A    between atoms: N_8  and  C_13
REMARK    7  A    between atoms: C_11  and  C_13
REMARK    8  A    between atoms: C_14  and  C_15
REMARK                            x       y       z     vdW  Elec       q    Type
REMARK                         _______ _______ _______ _____ _____    ______ ____
ROOT
ATOM      3  O   UNL     1      -1.424   2.535  22.546  0.00  0.00    -0.371 OA
ATOM      9  C   UNL     1      -3.235   2.730  24.070  0.00  0.00    +0.111 C 
ATOM     10  C   UNL     1      -1.939   2.624  24.851  0.00  0.00    +0.164 C 
ATOM     11  C   UNL     1      -0.923   3.039  23.795  0.00  0.00    +0.164 C 
ATOM     12  C   UNL     1      -2.812   2.195  22.712  0.00  0.00    +0.181 C 
ENDROOT
BRANCH  10   4
ATOM      4  O   UNL     1      -1.908   3.481  25.977  0.00  0.00    -0.388 OA
ATOM     28  H   UNL     1      -1.125   4.052  25.905  0.00  0.00    +0.210 HD
ENDBRANCH  10   4
BRANCH   9   7
ATOM      7  N   UNL     1      -4.333   1.981  24.657  0.00  0.00    -0.305 NA
ATOM     27  H   UNL     1      -4.802   1.447  23.924  0.00  0.00    +0.123 HD
BRANCH   7  14
ATOM     14  C   UNL     1      -3.852   1.057  25.677  0.00  0.00    +0.119 C 
BRANCH  14  15
ATOM      2  F   UNL     1      -1.796  -0.700  26.517  0.00  0.00    -0.205 F 
ATOM     15  C   UNL     1      -3.695  -0.340  25.140  0.00  0.00    +0.002 A 
ATOM     17  C   UNL     1      -2.659  -1.154  25.597  0.00  0.00    +0.128 A 
ATOM     18  C   UNL     1      -4.589  -0.821  24.182  0.00  0.00    +0.008 A 
ATOM     21  C   UNL     1      -2.516  -2.448  25.098  0.00  0.00    +0.038 A 
ATOM     22  C   UNL     1      -4.446  -2.116  23.683  0.00  0.00    +0.000 A 
ATOM     23  C   UNL     1      -3.410  -2.929  24.141  0.00  0.00    +0.003 A 
ENDBRANCH  14  15
ENDBRANCH   7  14
ENDBRANCH   9   7
BRANCH  11  13
ATOM     13  C   UNL     1       0.468   2.487  24.050  0.00  0.00    +0.140 C 
BRANCH  13   8
ATOM      8  N   UNL     1       0.368   1.084  24.500  0.00  0.00    -0.187 NA
ATOM     29  H   UNL     1       0.515   0.926  25.505  0.00  0.00    +0.148 HD
BRANCH   8   1
ATOM      1  S   UNL     1       0.720  -0.184  23.422  0.00  0.00    +0.058 S 
ATOM      5  O   UNL     1       0.223   0.157  22.102  0.00  0.00    -0.153 OA
ATOM      6  O   UNL     1       0.349  -1.443  24.038  0.00  0.00    -0.153 OA
BRANCH   1  16
ATOM     16  C   UNL     1       2.486  -0.134  23.369  0.00  0.00    +0.105 A 
ATOM     19  C   UNL     1       3.137   0.991  22.865  0.00  0.00    +0.028 A 
ATOM     20  C   UNL     1       3.228  -1.222  23.829  0.00  0.00    +0.028 A 
ATOM     24  C   UNL     1       4.531   1.029  22.820  0.00  0.00    +0.002 A 
ATOM     25  C   UNL     1       4.622  -1.184  23.784  0.00  0.00    +0.002 A 
ATOM     26  C   UNL     1       5.273  -0.058  23.279  0.00  0.00    +0.000 A 
ENDBRANCH   1  16
ENDBRANCH   8   1
ENDBRANCH  13   8
ENDBRANCH  11  13
TORSDOF 8
ENDMDL
MODEL 8
REMARK VINA RESULT:      -3.2      2.516      3.215
REMARK  Name = 75536693
REMARK  8 active torsions:
REMARK  status: ('A' for Active; 'I' for Inactive)
REMARK    1  A    between atoms: S_1  and  N_8
REMARK    2  A    between atoms: S_1  and  C_16
REMARK    3  A    between atoms: O_4  and  C_10
REMARK    4  A    between atoms: N_7  and  C_9
REMARK    5  A    between atoms: N_7  and  C_14
REMARK    6  A    between atoms: N_8  and  C_13
REMARK    7  A    between atoms: C_11  and  C_13
REMARK    8  A    between atoms: C_14  and  C_15
REMARK                            x       y       z     vdW  Elec       q    Type
REMARK                         _______ _______ _______ _____ _____    ______ ____
ROOT
ATOM      3  O   UNL     1      -2.100   5.194  25.688  0.00  0.00    -0.371 OA
ATOM      9  C   UNL     1      -1.245   4.234  23.691  0.00  0.00    +0.111 C 
ATOM     10  C   UNL     1      -2.454   3.438  24.144  0.00  0.00    +0.164 C 
ATOM     11  C   UNL     1      -3.149   4.449  25.048  0.00  0.00    +0.164 C 
ATOM     12  C   UNL     1      -0.875   4.972  24.967  0.00  0.00    +0.181 C 
ENDROOT
BRANCH  10   4
ATOM      4  O   UNL     1      -3.281   3.039  23.067  0.00  0.00    -0.388 OA
ATOM     28  H   UNL     1      -3.294   3.756  22.410  0.00  0.00    +0.210 HD
ENDBRANCH  10   4
BRANCH   9   7
ATOM      7  N   UNL     1      -0.162   3.409  23.180  0.00  0.00    -0.305 NA
ATOM     27  H   UNL     1       0.462   3.989  22.618  0.00  0.00    +0.123 HD
BRANCH   7  14
ATOM     14  C   UNL     1       0.603   2.813  24.269  0.00  0.00    +0.119 C 
BRANCH  14  15
ATOM      2  F   UNL     1      -0.692   1.993  26.650  0.00  0.00    -0.205 F 
ATOM     15  C   UNL     1       0.190   1.389  24.531  0.00  0.00    +0.002 A 
ATOM     17  C   UNL     1      -0.444   1.054  25.726  0.00  0.00    +0.128 A 
ATOM     18  C   UNL     1       0.443   0.405  23.575  0.00  0.00    +0.008 A 
ATOM     21  C   UNL     1      -0.827  -0.266  25.967  0.00  0.00    +0.038 A 
ATOM     22  C   UNL     1       0.061  -0.915  23.815  0.00  0.00    +0.000 A 
ATOM     23  C   UNL     1      -0.574  -1.251  25.011  0.00  0.00    +0.003 A 
ENDBRANCH  14  15
ENDBRANCH   7  14
ENDBRANCH   9   7
BRANCH  11  13
ATOM     13  C   UNL     1      -4.035   3.804  26.099  0.00  0.00    +0.140 C 
BRANCH  13   8
ATOM      8  N   UNL     1      -3.958   2.334  25.976  0.00  0.00    -0.187 NA
ATOM     29  H   UNL     1      -3.018   1.947  25.832  0.00  0.00    +0.148 HD
BRANCH   8   1
ATOM      1  S   UNL     1      -5.294   1.458  25.390  0.00  0.00    +0.058 S 
ATOM      5  O   UNL     1      -5.712   2.015  24.117  0.00  0.00    -0.153 OA
ATOM      6  O   UNL     1      -6.254   1.288  26.463  0.00  0.00    -0.153 OA
BRANCH   1  16
ATOM     16  C   UNL     1      -4.578  -0.129  25.081  0.00  0.00    +0.105 A 
ATOM     19  C   UNL     1      -4.564  -0.648  23.787  0.00  0.00    +0.028 A 
ATOM     20  C   UNL     1      -4.030  -0.863  26.133  0.00  0.00    +0.028 A 
ATOM     24  C   UNL     1      -4.003  -1.901  23.543  0.00  0.00    +0.002 A 
ATOM     25  C   UNL     1      -3.468  -2.116  25.889  0.00  0.00    +0.002 A 
ATOM     26  C   UNL     1      -3.454  -2.635  24.595  0.00  0.00    +0.000 A 
ENDBRANCH   1  16
ENDBRANCH   8   1
ENDBRANCH  13   8
ENDBRANCH  11  13
TORSDOF 8
ENDMDL
MODEL 9
REMARK VINA RESULT:      -3.0      1.971      4.225
REMARK  Name = 75536693
REMARK  8 active torsions:
REMARK  status: ('A' for Active; 'I' for Inactive)
REMARK    1  A    between atoms: S_1  and  N_8
REMARK    2  A    between atoms: S_1  and  C_16
REMARK    3  A    between atoms: O_4  and  C_10
REMARK    4  A    between atoms: N_7  and  C_9
REMARK    5  A    between atoms: N_7  and  C_14
REMARK    6  A    between atoms: N_8  and  C_13
REMARK    7  A    between atoms: C_11  and  C_13
REMARK    8  A    between atoms: C_14  and  C_15
REMARK                            x       y       z     vdW  Elec       q    Type
REMARK                         _______ _______ _______ _____ _____    ______ ____
ROOT
ATOM      3  O   UNL     1      -3.315  -2.236  25.088  0.00  0.00    -0.371 OA
ATOM      9  C   UNL     1      -0.996  -1.727  25.153  0.00  0.00    +0.111 C 
ATOM     10  C   UNL     1      -1.789  -0.452  25.370  0.00  0.00    +0.164 C 
ATOM     11  C   UNL     1      -3.131  -1.013  25.821  0.00  0.00    +0.164 C 
ATOM     12  C   UNL     1      -2.048  -2.633  24.535  0.00  0.00    +0.181 C 
ENDROOT
BRANCH  10   4
ATOM      4  O   UNL     1      -1.213   0.389  26.352  0.00  0.00    -0.388 OA
ATOM     28  H   UNL     1      -1.370   1.313  26.093  0.00  0.00    +0.210 HD
ENDBRANCH  10   4
BRANCH   9   7
ATOM      7  N   UNL     1       0.170  -1.551  24.303  0.00  0.00    -0.305 NA
ATOM     27  H   UNL     1       0.212  -2.319  23.632  0.00  0.00    +0.123 HD
BRANCH   7  14
ATOM     14  C   UNL     1       0.100  -0.291  23.571  0.00  0.00    +0.119 C 
BRANCH  14  15
ATOM      2  F   UNL     1       1.006  -1.108  21.015  0.00  0.00    -0.205 F 
ATOM     15  C   UNL     1       1.440   0.105  23.009  0.00  0.00    +0.002 A 
ATOM     17  C   UNL     1       1.824  -0.334  21.742  0.00  0.00    +0.128 A 
ATOM     18  C   UNL     1       2.297   0.912  23.758  0.00  0.00    +0.008 A 
ATOM     21  C   UNL     1       3.065   0.035  21.223  0.00  0.00    +0.038 A 
ATOM     22  C   UNL     1       3.539   1.280  23.238  0.00  0.00    +0.000 A 
ATOM     23  C   UNL     1       3.922   0.842  21.971  0.00  0.00    +0.003 A 
ENDBRANCH  14  15
ENDBRANCH   7  14
ENDBRANCH   9   7
BRANCH  11  13
ATOM     13  C   UNL     1      -4.294  -0.075  25.555  0.00  0.00    +0.140 C 
BRANCH  13   8
ATOM      8  N   UNL     1      -3.916   0.896  24.509  0.00  0.00    -0.187 NA
ATOM     29  H   UNL     1      -3.062   0.676  23.983  0.00  0.00    +0.148 HD
BRANCH   8   1
ATOM      1  S   UNL     1      -4.381   2.527  24.652  0.00  0.00    +0.058 S 
ATOM      5  O   UNL     1      -5.009   2.736  25.943  0.00  0.00    -0.153 OA
ATOM      6  O   UNL     1      -5.060   2.932  23.437  0.00  0.00    -0.153 OA
BRANCH   1  16
ATOM     16  C   UNL     1      -2.816   3.349  24.667  0.00  0.00    +0.105 A 
ATOM     19  C   UNL     1      -1.700   2.732  24.103  0.00  0.00    +0.028 A 
ATOM     20  C   UNL     1      -2.697   4.612  25.247  0.00  0.00    +0.028 A 
ATOM     24  C   UNL     1      -0.463   3.378  24.118  0.00  0.00    +0.002 A 
ATOM     25  C   UNL     1      -1.461   5.258  25.262  0.00  0.00    +0.002 A 
ATOM     26  C   UNL     1      -0.344   4.641  24.697  0.00  0.00    +0.000 A 
ENDBRANCH   1  16
ENDBRANCH   8   1
ENDBRANCH  13   8
ENDBRANCH  11  13
TORSDOF 8
ENDMDL
MODEL 10
REMARK VINA RESULT:      -2.8      3.164      5.928
REMARK  Name = 75536693
REMARK  8 active torsions:
REMARK  status: ('A' for Active; 'I' for Inactive)
REMARK    1  A    between atoms: S_1  and  N_8
REMARK    2  A    between atoms: S_1  and  C_16
REMARK    3  A    between atoms: O_4  and  C_10
REMARK    4  A    between atoms: N_7  and  C_9
REMARK    5  A    between atoms: N_7  and  C_14
REMARK    6  A    between atoms: N_8  and  C_13
REMARK    7  A    between atoms: C_11  and  C_13
REMARK    8  A    between atoms: C_14  and  C_15
REMARK                            x       y       z     vdW  Elec       q    Type
REMARK                         _______ _______ _______ _____ _____    ______ ____
ROOT
ATOM      3  O   UNL     1      -1.295   1.032  22.507  0.00  0.00    -0.371 OA
ATOM      9  C   UNL     1      -0.701   2.946  23.781  0.00  0.00    +0.111 C 
ATOM     10  C   UNL     1      -0.007   1.728  24.363  0.00  0.00    +0.164 C 
ATOM     11  C   UNL     1      -0.052   0.771  23.180  0.00  0.00    +0.164 C 
ATOM     12  C   UNL     1      -1.803   2.299  22.960  0.00  0.00    +0.181 C 
ENDROOT
BRANCH  10   4
ATOM      4  O   UNL     1       1.321   1.999  24.771  0.00  0.00    -0.388 OA
ATOM     28  H   UNL     1       1.665   2.728  24.227  0.00  0.00    +0.210 HD
ENDBRANCH  10   4
BRANCH   9   7
ATOM      7  N   UNL     1      -1.209   3.864  24.788  0.00  0.00    -0.305 NA
ATOM     27  H   UNL     1      -0.519   4.599  24.946  0.00  0.00    +0.123 HD
BRANCH   7  14
ATOM     14  C   UNL     1      -2.459   4.476  24.356  0.00  0.00    +0.119 C 
BRANCH  14  15
ATOM      2  F   UNL     1      -3.198   4.321  27.085  0.00  0.00    -0.205 F 
ATOM     15  C   UNL     1      -3.658   3.705  24.840  0.00  0.00    +0.002 A 
ATOM     17  C   UNL     1      -3.964   3.670  26.200  0.00  0.00    +0.128 A 
ATOM     18  C   UNL     1      -4.463   3.024  23.926  0.00  0.00    +0.008 A 
ATOM     21  C   UNL     1      -5.076   2.954  26.647  0.00  0.00    +0.038 A 
ATOM     22  C   UNL     1      -5.574   2.308  24.372  0.00  0.00    +0.000 A 
ATOM     23  C   UNL     1      -5.880   2.273  25.732  0.00  0.00    +0.003 A 
ENDBRANCH  14  15
ENDBRANCH   7  14
ENDBRANCH   9   7
BRANCH  11  13
ATOM     13  C   UNL     1       0.013  -0.690  23.588  0.00  0.00    +0.140 C 
BRANCH  13   8
ATOM      8  N   UNL     1       0.126  -0.789  25.056  0.00  0.00    -0.187 NA
ATOM     29  H   UNL     1       0.842  -1.436  25.406  0.00  0.00    +0.148 HD
BRANCH   8   1
ATOM      1  S   UNL     1      -1.227  -0.471  26.038  0.00  0.00    +0.058 S 
ATOM      5  O   UNL     1      -1.488   0.956  26.049  0.00  0.00    -0.153 OA
ATOM      6  O   UNL     1      -1.085  -1.197  27.285  0.00  0.00    -0.153 OA
BRANCH   1  16
ATOM     16  C   UNL     1      -2.525  -1.256  25.129  0.00  0.00    +0.105 A 
ATOM     19  C   UNL     1      -2.502  -2.637  24.933  0.00  0.00    +0.028 A 
ATOM     20  C   UNL     1      -3.570  -0.494  24.607  0.00  0.00    +0.028 A 
ATOM     24  C   UNL     1      -3.524  -3.256  24.213  0.00  0.00    +0.002 A 
ATOM     25  C   UNL     1      -4.591  -1.113  23.886  0.00  0.00    +0.002 A 
ATOM     26  C   UNL     1      -4.568  -2.494  23.690  0.00  0.00    +0.000 A 
ENDBRANCH   1  16
ENDBRANCH   8   1
ENDBRANCH  13   8
ENDBRANCH  11  13
TORSDOF 8
ENDMDL
