MODEL 1
REMARK VINA RESULT:      -3.9      0.000      0.000
REMARK  Name = 71693650
REMARK  6 active torsions:
REMARK  status: ('A' for Active; 'I' for Inactive)
REMARK    1  A    between atoms: O_3  and  C_16
REMARK    2  A    between atoms: N_5  and  C_22
REMARK    3  A    between atoms: N_6  and  C_19
REMARK    4  A    between atoms: C_7  and  C_14
REMARK    5  A    between atoms: C_12  and  C_16
REMARK    6  A    between atoms: C_13  and  C_15
REMARK                            x       y       z     vdW  Elec       q    Type
REMARK                         _______ _______ _______ _____ _____    ______ ____
ROOT
ATOM     15  C   UNL     1      -1.634   1.909  25.031  0.00  0.00    -0.017 A 
ATOM     19  C   UNL     1       0.848   1.005  24.134  0.00  0.00    +0.033 A 
ATOM     20  C   UNL     1      -0.670   2.824  24.608  0.00  0.00    +0.008 A 
ATOM     21  C   UNL     1      -1.357   0.543  25.006  0.00  0.00    +0.008 A 
ATOM     23  C   UNL     1       0.571   2.373  24.159  0.00  0.00    +0.023 A 
ATOM     24  C   UNL     1      -0.116   0.090  24.557  0.00  0.00    +0.023 A 
ENDROOT
BRANCH  15  13
ATOM      1  O   UNL     1      -3.038   3.802  25.246  0.00  0.00    -0.361 OA
ATOM      4  O   UNL     1      -6.511   4.428  25.734  0.00  0.00    -0.273 OA
ATOM      5  N   UNL     1      -5.451   2.433  25.157  0.00  0.00    -0.295 N 
ATOM     12  C   UNL     1      -4.186   1.734  24.823  0.00  0.00    +0.134 C 
ATOM     13  C   UNL     1      -2.981   2.401  25.517  0.00  0.00    +0.171 C 
ATOM     17  C   UNL     1      -4.141   4.392  25.890  0.00  0.00    +0.256 C 
ATOM     18  C   UNL     1      -5.483   3.767  25.567  0.00  0.00    +0.242 C 
ATOM     22  C   UNL     1      -6.710   1.777  24.814  0.00  0.00    +0.132 C 
BRANCH  12  16
ATOM     16  C   UNL     1      -4.238   0.236  25.152  0.00  0.00    +0.181 C 
BRANCH  16   3
ATOM      3  O   UNL     1      -4.245  -0.483  23.935  0.00  0.00    -0.393 OA
ATOM     26  H   UNL     1      -3.318  -0.655  23.696  0.00  0.00    +0.209 HD
ENDBRANCH  16   3
ENDBRANCH  12  16
ENDBRANCH  15  13
BRANCH  19   6
ATOM      2  O   UNL     1       1.633  -0.284  21.529  0.00  0.00    -0.275 OA
ATOM      6  N   UNL     1       2.090   0.552  23.685  0.00  0.00    -0.285 N 
ATOM     14  C   UNL     1       2.399  -0.044  22.456  0.00  0.00    +0.220 C 
ATOM     25  H   UNL     1       2.857   0.684  24.341  0.00  0.00    +0.155 HD
BRANCH  14   7
ATOM      7  C   UNL     1       3.854  -0.390  22.358  0.00  0.00    +0.075 C 
ATOM      8  C   UNL     1       4.250  -1.345  23.490  0.00  0.00    +0.013 C 
ATOM      9  C   UNL     1       4.719   0.859  22.531  0.00  0.00    +0.013 C 
ATOM     10  C   UNL     1       5.401  -0.666  24.225  0.00  0.00    +0.001 C 
ATOM     11  C   UNL     1       5.173   0.816  23.983  0.00  0.00    +0.001 C 
ENDBRANCH  14   7
ENDBRANCH  19   6
TORSDOF 5
ENDMDL
MODEL 2
REMARK VINA RESULT:      -2.7      1.362      2.442
REMARK  Name = 71693650
REMARK  6 active torsions:
REMARK  status: ('A' for Active; 'I' for Inactive)
REMARK    1  A    between atoms: O_3  and  C_16
REMARK    2  A    between atoms: N_5  and  C_22
REMARK    3  A    between atoms: N_6  and  C_19
REMARK    4  A    between atoms: C_7  and  C_14
REMARK    5  A    between atoms: C_12  and  C_16
REMARK    6  A    between atoms: C_13  and  C_15
REMARK                            x       y       z     vdW  Elec       q    Type
REMARK                         _______ _______ _______ _____ _____    ______ ____
ROOT
ATOM     15  C   UNL     1      -2.308   0.876  24.131  0.00  0.00    -0.017 A 
ATOM     19  C   UNL     1       0.298   0.084  23.531  0.00  0.00    +0.033 A 
ATOM     20  C   UNL     1      -1.729  -0.193  24.815  0.00  0.00    +0.008 A 
ATOM     21  C   UNL     1      -1.584   1.548  23.147  0.00  0.00    +0.008 A 
ATOM     23  C   UNL     1      -0.426  -0.589  24.516  0.00  0.00    +0.023 A 
ATOM     24  C   UNL     1      -0.280   1.153  22.847  0.00  0.00    +0.023 A 
ENDROOT
BRANCH  15  13
ATOM      1  O   UNL     1      -4.239   0.364  25.399  0.00  0.00    -0.361 OA
ATOM      4  O   UNL     1      -7.149   2.084  26.524  0.00  0.00    -0.273 OA
ATOM      5  N   UNL     1      -5.193   2.962  25.610  0.00  0.00    -0.295 N 
ATOM     12  C   UNL     1      -3.828   2.710  25.086  0.00  0.00    +0.134 C 
ATOM     13  C   UNL     1      -3.723   1.306  24.459  0.00  0.00    +0.171 C 
ATOM     17  C   UNL     1      -5.626   0.533  25.566  0.00  0.00    +0.256 C 
ATOM     18  C   UNL     1      -6.059   1.928  25.969  0.00  0.00    +0.242 C 
ATOM     22  C   UNL     1      -5.543   4.330  25.984  0.00  0.00    +0.132 C 
BRANCH  12  16
ATOM     16  C   UNL     1      -3.374   3.784  24.088  0.00  0.00    +0.181 C 
BRANCH  16   3
ATOM      3  O   UNL     1      -2.344   4.540  24.691  0.00  0.00    -0.393 OA
ATOM     26  H   UNL     1      -2.533   4.576  25.644  0.00  0.00    +0.209 HD
ENDBRANCH  16   3
ENDBRANCH  12  16
ENDBRANCH  15  13
BRANCH  19   6
ATOM      2  O   UNL     1       2.804   1.716  23.177  0.00  0.00    -0.275 OA
ATOM      6  N   UNL     1       1.603  -0.312  23.230  0.00  0.00    -0.285 N 
ATOM     14  C   UNL     1       2.737   0.495  23.075  0.00  0.00    +0.220 C 
ATOM     25  H   UNL     1       1.732  -1.316  23.119  0.00  0.00    +0.155 HD
BRANCH  14   7
ATOM      7  C   UNL     1       3.955  -0.315  22.753  0.00  0.00    +0.075 C 
ATOM      8  C   UNL     1       4.139  -1.431  23.788  0.00  0.00    +0.013 C 
ATOM      9  C   UNL     1       5.215   0.549  22.828  0.00  0.00    +0.013 C 
ATOM     10  C   UNL     1       5.540  -1.242  24.361  0.00  0.00    +0.001 C 
ATOM     11  C   UNL     1       5.811   0.244  24.195  0.00  0.00    +0.001 C 
ENDBRANCH  14   7
ENDBRANCH  19   6
TORSDOF 5
ENDMDL
