MODEL 1
REMARK VINA RESULT:       2.6      0.000      0.000
REMARK  Name = 11865838
REMARK  10 active torsions:
REMARK  status: ('A' for Active; 'I' for Inactive)
REMARK    1  A    between atoms: N_8  and  C_12
REMARK    2  A    between atoms: N_9  and  C_18
REMARK    3  A    between atoms: N_10  and  C_25
REMARK    4  A    between atoms: C_13  and  C_16
REMARK    5  A    between atoms: C_17  and  C_20
REMARK    6  A    between atoms: C_18  and  C_21
REMARK    7  A    between atoms: C_18  and  C_22
REMARK    8  A    between atoms: C_21  and  C_24
REMARK    9  A    between atoms: C_23  and  C_26
REMARK   10  A    between atoms: C_23  and  C_27
REMARK                            x       y       z     vdW  Elec       q    Type
REMARK                         _______ _______ _______ _____ _____    ______ ____
ROOT
ATOM      4  O   UNL     1      -4.715  -2.021  22.672  0.00  0.00    -0.271 OA
ATOM      7  N   UNL     1      -3.357  -0.237  23.242  0.00  0.00    -0.285 N 
ATOM     12  C   UNL     1      -1.633   1.398  23.186  0.00  0.00    +0.105 C 
ATOM     13  C   UNL     1      -2.436   0.488  24.121  0.00  0.00    +0.182 C 
ATOM     14  C   UNL     1      -2.593   1.645  22.021  0.00  0.00    +0.043 C 
ATOM     15  C   UNL     1      -3.353   0.333  21.899  0.00  0.00    +0.111 C 
ATOM     17  C   UNL     1      -4.062  -1.398  23.508  0.00  0.00    +0.240 C 
ENDROOT
BRANCH  12   8
ATOM      5  O   UNL     1       0.926   1.444  24.474  0.00  0.00    -0.252 OA
ATOM      8  N   UNL     1      -0.426   0.746  22.733  0.00  0.00    -0.294 N 
ATOM     10  N   UNL     1       1.775   0.095  22.749  0.00  0.00    -0.267 N 
ATOM     19  C   UNL     1       0.788   0.820  23.424  0.00  0.00    +0.304 C 
ATOM     38  H   UNL     1      -0.474   0.155  21.909  0.00  0.00    +0.151 HD
ATOM     40  H   UNL     1       1.496  -0.367  21.887  0.00  0.00    +0.156 HD
BRANCH  10  25
ATOM      1  F   UNL     1       3.616   2.178  22.561  0.00  0.00    -0.203 F 
ATOM      2  F   UNL     1       7.081  -0.594  24.198  0.00  0.00    -0.205 F 
ATOM     25  C   UNL     1       3.130  -0.079  23.119  0.00  0.00    +0.070 A 
ATOM     30  C   UNL     1       4.026   0.984  23.011  0.00  0.00    +0.147 A 
ATOM     31  C   UNL     1       3.568  -1.316  23.591  0.00  0.00    +0.029 A 
ATOM     35  C   UNL     1       5.361   0.809  23.376  0.00  0.00    +0.078 A 
ATOM     36  C   UNL     1       4.903  -1.490  23.956  0.00  0.00    +0.040 A 
ATOM     37  C   UNL     1       5.799  -0.428  23.848  0.00  0.00    +0.126 A 
ENDBRANCH  10  25
ENDBRANCH  12   8
BRANCH  13  16
ATOM      3  O   UNL     1      -3.326   1.052  26.263  0.00  0.00    -0.274 OA
ATOM      9  N   UNL     1      -3.942   2.328  24.415  0.00  0.00    -0.302 N 
ATOM     16  C   UNL     1      -3.267   1.308  25.063  0.00  0.00    +0.236 C 
ATOM     39  H   UNL     1      -3.799   2.461  23.418  0.00  0.00    +0.150 HD
BRANCH   9  18
ATOM     18  C   UNL     1      -4.827   3.246  25.094  0.00  0.00    +0.163 C 
BRANCH  18  22
ATOM      6  O   UNL     1      -6.111   2.415  26.982  0.00  0.00    -0.274 OA
ATOM     11  N   UNL     1      -6.664   1.690  24.873  0.00  0.00    -0.328 N 
ATOM     22  C   UNL     1      -5.906   2.412  25.770  0.00  0.00    +0.231 C 
ATOM     41  H   UNL     1      -7.426   1.101  25.192  0.00  0.00    +0.145 HD
ATOM     42  H   UNL     1      -6.497   1.715  23.872  0.00  0.00    +0.145 HD
ENDBRANCH  18  22
BRANCH  18  21
ATOM     21  C   UNL     1      -4.090   4.103  26.128  0.00  0.00    +0.067 C 
BRANCH  21  24
ATOM     24  C   UNL     1      -2.652   4.366  25.751  0.00  0.00    -0.045 A 
ATOM     28  C   UNL     1      -2.325   5.489  24.989  0.00  0.00    +0.004 A 
ATOM     29  C   UNL     1      -1.650   3.488  26.164  0.00  0.00    +0.004 A 
ATOM     32  C   UNL     1      -0.996   5.731  24.641  0.00  0.00    +0.000 A 
ATOM     33  C   UNL     1      -0.322   3.731  25.816  0.00  0.00    +0.000 A 
ATOM     34  C   UNL     1       0.005   4.853  25.054  0.00  0.00    +0.000 A 
ENDBRANCH  21  24
ENDBRANCH  18  21
ENDBRANCH   9  18
ENDBRANCH  13  16
BRANCH  17  20
ATOM     20  C   UNL     1      -4.018  -1.910  24.892  0.00  0.00    +0.066 C 
ATOM     23  C   UNL     1      -2.964  -2.533  25.446  0.00  0.00    -0.071 C 
ATOM     26  C   UNL     1      -1.711  -2.748  24.634  0.00  0.00    +0.039 C 
ATOM     27  C   UNL     1      -2.880  -3.067  26.849  0.00  0.00    +0.039 C 
ENDBRANCH  17  20
TORSDOF 8
ENDMDL
MODEL 2
REMARK VINA RESULT:       4.3      1.697      4.638
REMARK  Name = 11865838
REMARK  10 active torsions:
REMARK  status: ('A' for Active; 'I' for Inactive)
REMARK    1  A    between atoms: N_8  and  C_12
REMARK    2  A    between atoms: N_9  and  C_18
REMARK    3  A    between atoms: N_10  and  C_25
REMARK    4  A    between atoms: C_13  and  C_16
REMARK    5  A    between atoms: C_17  and  C_20
REMARK    6  A    between atoms: C_18  and  C_21
REMARK    7  A    between atoms: C_18  and  C_22
REMARK    8  A    between atoms: C_21  and  C_24
REMARK    9  A    between atoms: C_23  and  C_26
REMARK   10  A    between atoms: C_23  and  C_27
REMARK                            x       y       z     vdW  Elec       q    Type
REMARK                         _______ _______ _______ _____ _____    ______ ____
ROOT
ATOM      4  O   UNL     1       0.173   2.760  26.976  0.00  0.00    -0.271 OA
ATOM      7  N   UNL     1      -0.720   1.504  25.251  0.00  0.00    -0.285 N 
ATOM     12  C   UNL     1      -1.025  -0.194  23.616  0.00  0.00    +0.105 C 
ATOM     13  C   UNL     1      -1.205   1.303  23.884  0.00  0.00    +0.182 C 
ATOM     14  C   UNL     1      -1.131  -0.818  25.009  0.00  0.00    +0.043 C 
ATOM     15  C   UNL     1      -0.496   0.226  25.917  0.00  0.00    +0.111 C 
ATOM     17  C   UNL     1      -0.352   2.688  25.866  0.00  0.00    +0.240 C 
ENDROOT
BRANCH  12   8
ATOM      5  O   UNL     1       1.540   0.420  24.734  0.00  0.00    -0.252 OA
ATOM      8  N   UNL     1       0.262  -0.467  23.022  0.00  0.00    -0.294 N 
ATOM     10  N   UNL     1       2.550  -0.516  22.831  0.00  0.00    -0.267 N 
ATOM     19  C   UNL     1       1.474  -0.133  23.637  0.00  0.00    +0.304 C 
ATOM     38  H   UNL     1       0.294  -0.982  22.148  0.00  0.00    +0.151 HD
ATOM     40  H   UNL     1       2.323  -0.964  21.947  0.00  0.00    +0.156 HD
BRANCH  10  25
ATOM      1  F   UNL     1       3.820   1.942  22.507  0.00  0.00    -0.203 F 
ATOM      2  F   UNL     1       7.962   0.100  23.857  0.00  0.00    -0.205 F 
ATOM     25  C   UNL     1       3.931  -0.357  23.093  0.00  0.00    +0.070 A 
ATOM     30  C   UNL     1       4.537   0.887  22.920  0.00  0.00    +0.147 A 
ATOM     31  C   UNL     1       4.686  -1.447  23.525  0.00  0.00    +0.029 A 
ATOM     35  C   UNL     1       5.899   1.041  23.178  0.00  0.00    +0.078 A 
ATOM     36  C   UNL     1       6.048  -1.293  23.783  0.00  0.00    +0.040 A 
ATOM     37  C   UNL     1       6.654  -0.049  23.610  0.00  0.00    +0.126 A 
ENDBRANCH  10  25
ENDBRANCH  12   8
BRANCH  13  16
ATOM      3  O   UNL     1      -3.253   1.920  22.821  0.00  0.00    -0.274 OA
ATOM      9  N   UNL     1      -3.209   1.696  25.138  0.00  0.00    -0.302 N 
ATOM     16  C   UNL     1      -2.661   1.666  23.868  0.00  0.00    +0.236 C 
ATOM     39  H   UNL     1      -2.629   1.444  25.934  0.00  0.00    +0.150 HD
BRANCH   9  18
ATOM     18  C   UNL     1      -4.588   2.039  25.396  0.00  0.00    +0.163 C 
BRANCH  18  22
ATOM      6  O   UNL     1      -4.354   3.629  23.574  0.00  0.00    -0.274 OA
ATOM     11  N   UNL     1      -5.827   4.112  25.269  0.00  0.00    -0.328 N 
ATOM     22  C   UNL     1      -4.877   3.331  24.646  0.00  0.00    +0.231 C 
ATOM     41  H   UNL     1      -6.121   4.995  24.867  0.00  0.00    +0.145 HD
ATOM     42  H   UNL     1      -6.268   3.842  26.143  0.00  0.00    +0.145 HD
ENDBRANCH  18  22
BRANCH  18  21
ATOM     21  C   UNL     1      -5.554   0.937  24.950  0.00  0.00    +0.067 C 
BRANCH  21  24
ATOM     24  C   UNL     1      -4.884  -0.410  24.823  0.00  0.00    -0.045 A 
ATOM     28  C   UNL     1      -4.183  -0.945  25.904  0.00  0.00    +0.004 A 
ATOM     29  C   UNL     1      -4.965  -1.120  23.625  0.00  0.00    +0.004 A 
ATOM     32  C   UNL     1      -3.563  -2.190  25.786  0.00  0.00    +0.000 A 
ATOM     33  C   UNL     1      -4.346  -2.363  23.507  0.00  0.00    +0.000 A 
ATOM     34  C   UNL     1      -3.645  -2.899  24.588  0.00  0.00    +0.000 A 
ENDBRANCH  21  24
ENDBRANCH  18  21
ENDBRANCH   9  18
ENDBRANCH  13  16
BRANCH  17  20
ATOM     20  C   UNL     1      -0.613   3.939  25.128  0.00  0.00    +0.066 C 
ATOM     23  C   UNL     1      -1.600   4.806  25.414  0.00  0.00    -0.071 C 
ATOM     26  C   UNL     1      -2.535   4.521  26.563  0.00  0.00    +0.039 C 
ATOM     27  C   UNL     1      -1.898   6.088  24.688  0.00  0.00    +0.039 C 
ENDBRANCH  17  20
TORSDOF 8
ENDMDL
MODEL 3
REMARK VINA RESULT:       5.6      1.510      2.963
REMARK  Name = 11865838
REMARK  10 active torsions:
REMARK  status: ('A' for Active; 'I' for Inactive)
REMARK    1  A    between atoms: N_8  and  C_12
REMARK    2  A    between atoms: N_9  and  C_18
REMARK    3  A    between atoms: N_10  and  C_25
REMARK    4  A    between atoms: C_13  and  C_16
REMARK    5  A    between atoms: C_17  and  C_20
REMARK    6  A    between atoms: C_18  and  C_21
REMARK    7  A    between atoms: C_18  and  C_22
REMARK    8  A    between atoms: C_21  and  C_24
REMARK    9  A    between atoms: C_23  and  C_26
REMARK   10  A    between atoms: C_23  and  C_27
REMARK                            x       y       z     vdW  Elec       q    Type
REMARK                         _______ _______ _______ _____ _____    ______ ____
ROOT
ATOM      4  O   UNL     1      -4.576  -1.440  23.508  0.00  0.00    -0.271 OA
ATOM      7  N   UNL     1      -3.003   0.243  23.720  0.00  0.00    -0.285 N 
ATOM     12  C   UNL     1      -1.122   1.640  23.323  0.00  0.00    +0.105 C 
ATOM     13  C   UNL     1      -1.957   0.985  24.428  0.00  0.00    +0.182 C 
ATOM     14  C   UNL     1      -2.122   1.813  22.179  0.00  0.00    +0.043 C 
ATOM     15  C   UNL     1      -3.024   0.593  22.305  0.00  0.00    +0.111 C 
ATOM     17  C   UNL     1      -3.809  -0.774  24.202  0.00  0.00    +0.240 C 
ENDROOT
BRANCH  12   8
ATOM      5  O   UNL     1       1.562   1.739  24.319  0.00  0.00    -0.252 OA
ATOM      8  N   UNL     1      -0.023   0.792  22.927  0.00  0.00    -0.294 N 
ATOM     10  N   UNL     1       2.116  -0.042  22.892  0.00  0.00    -0.267 N 
ATOM     19  C   UNL     1       1.264   0.908  23.464  0.00  0.00    +0.304 C 
ATOM     38  H   UNL     1      -0.204   0.036  22.275  0.00  0.00    +0.151 HD
ATOM     40  H   UNL     1       1.710  -0.660  22.194  0.00  0.00    +0.156 HD
BRANCH  10  25
ATOM      1  F   UNL     1       4.020   1.932  22.400  0.00  0.00    -0.203 F 
ATOM      2  F   UNL     1       7.490  -0.877  23.959  0.00  0.00    -0.205 F 
ATOM     25  C   UNL     1       3.488  -0.253  23.164  0.00  0.00    +0.070 A 
ATOM     30  C   UNL     1       4.416   0.756  22.905  0.00  0.00    +0.147 A 
ATOM     31  C   UNL     1       3.912  -1.472  23.691  0.00  0.00    +0.029 A 
ATOM     35  C   UNL     1       5.768   0.545  23.174  0.00  0.00    +0.078 A 
ATOM     36  C   UNL     1       5.265  -1.683  23.960  0.00  0.00    +0.040 A 
ATOM     37  C   UNL     1       6.192  -0.675  23.701  0.00  0.00    +0.126 A 
ENDBRANCH  10  25
ENDBRANCH  12   8
BRANCH  13  16
ATOM      3  O   UNL     1      -3.443   1.736  26.139  0.00  0.00    -0.274 OA
ATOM      9  N   UNL     1      -2.258   3.314  24.904  0.00  0.00    -0.302 N 
ATOM     16  C   UNL     1      -2.635   2.031  25.262  0.00  0.00    +0.236 C 
ATOM     39  H   UNL     1      -1.561   3.440  24.175  0.00  0.00    +0.150 HD
BRANCH   9  18
ATOM     18  C   UNL     1      -2.785   4.499  25.539  0.00  0.00    +0.163 C 
BRANCH  18  22
ATOM      6  O   UNL     1      -2.208   6.835  25.205  0.00  0.00    -0.274 OA
ATOM     11  N   UNL     1      -0.596   5.241  24.829  0.00  0.00    -0.328 N 
ATOM     22  C   UNL     1      -1.868   5.655  25.167  0.00  0.00    +0.231 C 
ATOM     41  H   UNL     1       0.118   5.913  24.571  0.00  0.00    +0.145 HD
ATOM     42  H   UNL     1      -0.323   4.264  24.824  0.00  0.00    +0.145 HD
ENDBRANCH  18  22
BRANCH  18  21
ATOM     21  C   UNL     1      -4.224   4.799  25.105  0.00  0.00    +0.067 C 
BRANCH  21  24
ATOM     24  C   UNL     1      -5.133   3.601  25.229  0.00  0.00    -0.045 A 
ATOM     28  C   UNL     1      -5.415   2.820  24.107  0.00  0.00    +0.004 A 
ATOM     29  C   UNL     1      -5.692   3.273  26.465  0.00  0.00    +0.004 A 
ATOM     32  C   UNL     1      -6.256   1.712  24.223  0.00  0.00    +0.000 A 
ATOM     33  C   UNL     1      -6.532   2.167  26.579  0.00  0.00    +0.000 A 
ATOM     34  C   UNL     1      -6.814   1.385  25.458  0.00  0.00    +0.000 A 
ENDBRANCH  21  24
ENDBRANCH  18  21
ENDBRANCH   9  18
ENDBRANCH  13  16
BRANCH  17  20
ATOM     20  C   UNL     1      -3.733  -1.067  25.647  0.00  0.00    +0.066 C 
ATOM     23  C   UNL     1      -2.744  -1.759  26.237  0.00  0.00    -0.071 C 
ATOM     26  C   UNL     1      -1.609  -2.298  25.405  0.00  0.00    +0.039 C 
ATOM     27  C   UNL     1      -2.631  -2.077  27.702  0.00  0.00    +0.039 C 
ENDBRANCH  17  20
TORSDOF 8
ENDMDL
