MODEL 1
REMARK VINA RESULT:       2.5      0.000      0.000
REMARK  Name = 7049381
REMARK  9 active torsions:
REMARK  status: ('A' for Active; 'I' for Inactive)
REMARK    1  A    between atoms: S_1  and  C_24
REMARK    2  A    between atoms: S_1  and  C_28
REMARK    3  A    between atoms: O_5  and  C_23
REMARK    4  A    between atoms: O_5  and  C_26
REMARK    5  A    between atoms: N_11  and  C_15
REMARK    6  A    between atoms: N_12  and  C_27
REMARK    7  A    between atoms: C_13  and  C_18
REMARK    8  A    between atoms: C_17  and  C_23
REMARK    9  A    between atoms: C_22  and  C_24
REMARK                            x       y       z     vdW  Elec       q    Type
REMARK                         _______ _______ _______ _____ _____    ______ ____
ROOT
ATOM      6  O   UNL     1      -4.544   2.302  26.116  0.00  0.00    -0.275 OA
ATOM      9  N   UNL     1      -2.976   2.543  24.430  0.00  0.00    -0.287 N 
ATOM     13  C   UNL     1      -3.670   1.723  23.448  0.00  0.00    +0.164 C 
ATOM     14  C   UNL     1      -2.960   2.003  22.124  0.00  0.00    +0.056 C 
ATOM     15  C   UNL     1      -1.550   2.436  22.533  0.00  0.00    +0.094 C 
ATOM     16  C   UNL     1      -1.769   3.145  23.866  0.00  0.00    +0.131 C 
ATOM     22  C   UNL     1      -3.523   2.830  25.672  0.00  0.00    +0.226 C 
ENDROOT
BRANCH  13  18
ATOM      4  O   UNL     1      -4.285  -0.567  23.350  0.00  0.00    -0.274 OA
ATOM     10  N   UNL     1      -2.551   0.004  24.772  0.00  0.00    -0.286 N 
ATOM     17  C   UNL     1      -2.398  -1.308  25.384  0.00  0.00    +0.185 C 
ATOM     18  C   UNL     1      -3.544   0.283  23.846  0.00  0.00    +0.237 C 
ATOM     19  C   UNL     1      -1.651   0.979  25.384  0.00  0.00    +0.109 C 
ATOM     20  C   UNL     1      -1.547  -1.061  26.624  0.00  0.00    +0.035 C 
ATOM     21  C   UNL     1      -0.704   0.152  26.239  0.00  0.00    +0.021 C 
BRANCH  17  23
ATOM      7  O   UNL     1      -0.650  -1.874  23.829  0.00  0.00    -0.249 OA
ATOM     23  C   UNL     1      -1.693  -2.181  24.389  0.00  0.00    +0.328 C 
BRANCH  23   5
ATOM      5  O   UNL     1      -2.392  -3.339  24.220  0.00  0.00    -0.467 OA
ATOM     26  C   UNL     1      -3.758  -3.299  24.643  0.00  0.00    +0.280 C 
ENDBRANCH  23   5
ENDBRANCH  17  23
ENDBRANCH  13  18
BRANCH  15  11
ATOM      8  O   UNL     1       1.251   2.525  23.127  0.00  0.00    -0.252 OA
ATOM     11  N   UNL     1      -0.661   1.309  22.666  0.00  0.00    -0.295 N 
ATOM     12  N   UNL     1       1.308   0.180  23.028  0.00  0.00    -0.267 N 
ATOM     25  C   UNL     1       0.703   1.438  22.961  0.00  0.00    +0.304 C 
ATOM     34  H   UNL     1      -1.027   0.380  22.481  0.00  0.00    +0.151 HD
ATOM     35  H   UNL     1       0.711  -0.626  22.863  0.00  0.00    +0.156 HD
BRANCH  12  27
ATOM      2  F   UNL     1       3.319   2.074  22.663  0.00  0.00    -0.203 F 
ATOM      3  F   UNL     1       6.617  -0.995  24.105  0.00  0.00    -0.205 F 
ATOM     27  C   UNL     1       2.664  -0.118  23.300  0.00  0.00    +0.070 A 
ATOM     29  C   UNL     1       3.647   0.853  23.108  0.00  0.00    +0.147 A 
ATOM     30  C   UNL     1       3.017  -1.385  23.764  0.00  0.00    +0.029 A 
ATOM     31  C   UNL     1       4.982   0.556  23.380  0.00  0.00    +0.078 A 
ATOM     32  C   UNL     1       4.352  -1.681  24.035  0.00  0.00    +0.040 A 
ATOM     33  C   UNL     1       5.335  -0.711  23.842  0.00  0.00    +0.126 A 
ENDBRANCH  12  27
ENDBRANCH  15  11
BRANCH  22  24
ATOM     24  C   UNL     1      -2.774   3.849  26.494  0.00  0.00    +0.164 C 
BRANCH  24   1
ATOM      1  S   UNL     1      -2.763   5.393  25.573  0.00  0.00    -0.155 S 
ATOM     28  C   UNL     1      -1.032   5.392  25.045  0.00  0.00    +0.085 C 
ENDBRANCH  24   1
ENDBRANCH  22  24
TORSDOF 7
ENDMDL
MODEL 2
REMARK VINA RESULT:       2.6      3.360      4.428
REMARK  Name = 7049381
REMARK  9 active torsions:
REMARK  status: ('A' for Active; 'I' for Inactive)
REMARK    1  A    between atoms: S_1  and  C_24
REMARK    2  A    between atoms: S_1  and  C_28
REMARK    3  A    between atoms: O_5  and  C_23
REMARK    4  A    between atoms: O_5  and  C_26
REMARK    5  A    between atoms: N_11  and  C_15
REMARK    6  A    between atoms: N_12  and  C_27
REMARK    7  A    between atoms: C_13  and  C_18
REMARK    8  A    between atoms: C_17  and  C_23
REMARK    9  A    between atoms: C_22  and  C_24
REMARK                            x       y       z     vdW  Elec       q    Type
REMARK                         _______ _______ _______ _____ _____    ______ ____
ROOT
ATOM      6  O   UNL     1      -5.184   1.092  24.798  0.00  0.00    -0.275 OA
ATOM      9  N   UNL     1      -3.535   2.577  24.139  0.00  0.00    -0.287 N 
ATOM     13  C   UNL     1      -2.947   1.721  23.120  0.00  0.00    +0.164 C 
ATOM     14  C   UNL     1      -2.021   2.635  22.320  0.00  0.00    +0.056 C 
ATOM     15  C   UNL     1      -1.649   3.752  23.299  0.00  0.00    +0.094 C 
ATOM     16  C   UNL     1      -2.896   3.892  24.168  0.00  0.00    +0.131 C 
ATOM     22  C   UNL     1      -4.671   2.212  24.846  0.00  0.00    +0.226 C 
ENDROOT
BRANCH  13  18
ATOM      4  O   UNL     1      -1.035   0.815  24.196  0.00  0.00    -0.274 OA
ATOM     10  N   UNL     1      -2.863  -0.580  23.931  0.00  0.00    -0.286 N 
ATOM     17  C   UNL     1      -2.218  -1.793  24.416  0.00  0.00    +0.185 C 
ATOM     18  C   UNL     1      -2.184   0.621  23.794  0.00  0.00    +0.237 C 
ATOM     19  C   UNL     1      -4.222  -0.854  23.472  0.00  0.00    +0.109 C 
ATOM     20  C   UNL     1      -3.141  -2.924  23.978  0.00  0.00    +0.035 C 
ATOM     21  C   UNL     1      -4.519  -2.267  23.950  0.00  0.00    +0.021 C 
BRANCH  17  23
ATOM      7  O   UNL     1      -3.115  -1.661  26.647  0.00  0.00    -0.249 OA
ATOM     23  C   UNL     1      -2.139  -1.685  25.910  0.00  0.00    +0.328 C 
BRANCH  23   5
ATOM      5  O   UNL     1      -0.833  -1.620  26.294  0.00  0.00    -0.467 OA
ATOM     26  C   UNL     1       0.108  -2.183  25.375  0.00  0.00    +0.280 C 
ENDBRANCH  23   5
ENDBRANCH  17  23
ENDBRANCH  13  18
BRANCH  15  11
ATOM      8  O   UNL     1      -1.536   3.417  26.142  0.00  0.00    -0.252 OA
ATOM     11  N   UNL     1      -0.487   3.412  24.081  0.00  0.00    -0.295 N 
ATOM     12  N   UNL     1       0.755   2.934  25.956  0.00  0.00    -0.267 N 
ATOM     25  C   UNL     1      -0.516   3.265  25.474  0.00  0.00    +0.304 C 
ATOM     34  H   UNL     1       0.408   3.331  23.608  0.00  0.00    +0.151 HD
ATOM     35  H   UNL     1       1.498   2.846  25.268  0.00  0.00    +0.156 HD
BRANCH  12  27
ATOM      2  F   UNL     1      -0.713   1.256  27.628  0.00  0.00    -0.203 F 
ATOM      3  F   UNL     1       2.282   2.027  31.207  0.00  0.00    -0.205 F 
ATOM     27  C   UNL     1       1.141   2.702  27.297  0.00  0.00    +0.070 A 
ATOM     29  C   UNL     1       0.386   1.855  28.108  0.00  0.00    +0.147 A 
ATOM     30  C   UNL     1       2.282   3.321  27.807  0.00  0.00    +0.029 A 
ATOM     31  C   UNL     1       0.771   1.628  29.428  0.00  0.00    +0.078 A 
ATOM     32  C   UNL     1       2.667   3.093  29.128  0.00  0.00    +0.040 A 
ATOM     33  C   UNL     1       1.911   2.247  29.939  0.00  0.00    +0.126 A 
ENDBRANCH  12  27
ENDBRANCH  15  11
BRANCH  22  24
ATOM     24  C   UNL     1      -5.268   3.285  25.721  0.00  0.00    +0.164 C 
BRANCH  24   1
ATOM      1  S   UNL     1      -6.955   2.799  26.110  0.00  0.00    -0.155 S 
ATOM     28  C   UNL     1      -6.598   1.450  27.263  0.00  0.00    +0.085 C 
ENDBRANCH  24   1
ENDBRANCH  22  24
TORSDOF 7
ENDMDL
MODEL 3
REMARK VINA RESULT:       2.8      3.351      4.587
REMARK  Name = 7049381
REMARK  9 active torsions:
REMARK  status: ('A' for Active; 'I' for Inactive)
REMARK    1  A    between atoms: S_1  and  C_24
REMARK    2  A    between atoms: S_1  and  C_28
REMARK    3  A    between atoms: O_5  and  C_23
REMARK    4  A    between atoms: O_5  and  C_26
REMARK    5  A    between atoms: N_11  and  C_15
REMARK    6  A    between atoms: N_12  and  C_27
REMARK    7  A    between atoms: C_13  and  C_18
REMARK    8  A    between atoms: C_17  and  C_23
REMARK    9  A    between atoms: C_22  and  C_24
REMARK                            x       y       z     vdW  Elec       q    Type
REMARK                         _______ _______ _______ _____ _____    ______ ____
ROOT
ATOM      6  O   UNL     1      -4.884   1.227  24.530  0.00  0.00    -0.275 OA
ATOM      9  N   UNL     1      -3.069   2.619  24.176  0.00  0.00    -0.287 N 
ATOM     13  C   UNL     1      -2.387   1.753  23.226  0.00  0.00    +0.164 C 
ATOM     14  C   UNL     1      -1.298   2.626  22.604  0.00  0.00    +0.056 C 
ATOM     15  C   UNL     1      -1.011   3.691  23.667  0.00  0.00    +0.094 C 
ATOM     16  C   UNL     1      -2.363   3.889  24.345  0.00  0.00    +0.131 C 
ATOM     22  C   UNL     1      -4.318   2.310  24.693  0.00  0.00    +0.226 C 
ENDROOT
BRANCH  13  18
ATOM      4  O   UNL     1      -0.684   0.676  24.480  0.00  0.00    -0.274 OA
ATOM     10  N   UNL     1      -2.601  -0.541  24.033  0.00  0.00    -0.286 N 
ATOM     17  C   UNL     1      -2.125  -1.806  24.574  0.00  0.00    +0.185 C 
ATOM     18  C   UNL     1      -1.801   0.590  23.968  0.00  0.00    +0.237 C 
ATOM     19  C   UNL     1      -3.929  -0.686  23.443  0.00  0.00    +0.109 C 
ATOM     20  C   UNL     1      -3.105  -2.847  24.044  0.00  0.00    +0.035 C 
ATOM     21  C   UNL     1      -4.405  -2.062  23.885  0.00  0.00    +0.021 C 
BRANCH  17  23
ATOM      7  O   UNL     1      -3.221  -1.649  26.713  0.00  0.00    -0.249 OA
ATOM     23  C   UNL     1      -2.182  -1.698  26.069  0.00  0.00    +0.328 C 
BRANCH  23   5
ATOM      5  O   UNL     1      -0.915  -1.663  26.572  0.00  0.00    -0.467 OA
ATOM     26  C   UNL     1       0.090  -2.261  25.749  0.00  0.00    +0.280 C 
ENDBRANCH  23   5
ENDBRANCH  17  23
ENDBRANCH  13  18
BRANCH  15  11
ATOM      8  O   UNL     1      -1.280   3.500  26.512  0.00  0.00    -0.252 OA
ATOM     11  N   UNL     1      -0.002   3.257  24.600  0.00  0.00    -0.295 N 
ATOM     12  N   UNL     1       0.937   2.737  26.633  0.00  0.00    -0.267 N 
ATOM     25  C   UNL     1      -0.215   3.191  25.984  0.00  0.00    +0.304 C 
ATOM     34  H   UNL     1       0.925   3.044  24.247  0.00  0.00    +0.151 HD
ATOM     35  H   UNL     1       1.740   2.523  26.047  0.00  0.00    +0.156 HD
BRANCH  12  27
ATOM      2  F   UNL     1       3.479   2.372  27.716  0.00  0.00    -0.203 F 
ATOM      3  F   UNL     1       1.677   1.948  32.069  0.00  0.00    -0.205 F 
ATOM     27  C   UNL     1       1.129   2.533  28.019  0.00  0.00    +0.070 A 
ATOM     29  C   UNL     1       2.415   2.355  28.531  0.00  0.00    +0.147 A 
ATOM     30  C   UNL     1       0.029   2.514  28.877  0.00  0.00    +0.029 A 
ATOM     31  C   UNL     1       2.599   2.157  29.899  0.00  0.00    +0.078 A 
ATOM     32  C   UNL     1       0.215   2.315  30.244  0.00  0.00    +0.040 A 
ATOM     33  C   UNL     1       1.500   2.136  30.755  0.00  0.00    +0.126 A 
ENDBRANCH  12  27
ENDBRANCH  15  11
BRANCH  22  24
ATOM     24  C   UNL     1      -4.974   3.397  25.506  0.00  0.00    +0.164 C 
BRANCH  24   1
ATOM      1  S   UNL     1      -6.689   2.924  25.770  0.00  0.00    -0.155 S 
ATOM     28  C   UNL     1      -6.438   1.660  27.040  0.00  0.00    +0.085 C 
ENDBRANCH  24   1
ENDBRANCH  22  24
TORSDOF 7
ENDMDL
MODEL 4
REMARK VINA RESULT:       2.9      1.910      3.721
REMARK  Name = 7049381
REMARK  9 active torsions:
REMARK  status: ('A' for Active; 'I' for Inactive)
REMARK    1  A    between atoms: S_1  and  C_24
REMARK    2  A    between atoms: S_1  and  C_28
REMARK    3  A    between atoms: O_5  and  C_23
REMARK    4  A    between atoms: O_5  and  C_26
REMARK    5  A    between atoms: N_11  and  C_15
REMARK    6  A    between atoms: N_12  and  C_27
REMARK    7  A    between atoms: C_13  and  C_18
REMARK    8  A    between atoms: C_17  and  C_23
REMARK    9  A    between atoms: C_22  and  C_24
REMARK                            x       y       z     vdW  Elec       q    Type
REMARK                         _______ _______ _______ _____ _____    ______ ____
ROOT
ATOM      6  O   UNL     1      -4.800   1.092  26.443  0.00  0.00    -0.275 OA
ATOM      9  N   UNL     1      -3.616  -0.110  24.858  0.00  0.00    -0.287 N 
ATOM     13  C   UNL     1      -2.751  -0.806  25.799  0.00  0.00    +0.164 C 
ATOM     14  C   UNL     1      -2.085  -1.913  24.983  0.00  0.00    +0.056 C 
ATOM     15  C   UNL     1      -2.106  -1.389  23.544  0.00  0.00    +0.094 C 
ATOM     16  C   UNL     1      -3.385  -0.560  23.486  0.00  0.00    +0.131 C 
ATOM     22  C   UNL     1      -4.635   0.732  25.276  0.00  0.00    +0.226 C 
ENDROOT
BRANCH  13  18
ATOM      4  O   UNL     1      -0.926  -0.193  27.188  0.00  0.00    -0.274 OA
ATOM     10  N   UNL     1      -1.797   1.441  25.799  0.00  0.00    -0.286 N 
ATOM     17  C   UNL     1      -0.999   2.543  26.319  0.00  0.00    +0.185 C 
ATOM     18  C   UNL     1      -1.741   0.164  26.335  0.00  0.00    +0.237 C 
ATOM     19  C   UNL     1      -2.743   1.906  24.789  0.00  0.00    +0.109 C 
ATOM     20  C   UNL     1      -1.683   3.799  25.790  0.00  0.00    +0.035 C 
ATOM     21  C   UNL     1      -2.317   3.333  24.481  0.00  0.00    +0.021 C 
BRANCH  17  23
ATOM      7  O   UNL     1       0.628   2.042  24.616  0.00  0.00    -0.249 OA
ATOM     23  C   UNL     1       0.386   2.387  25.764  0.00  0.00    +0.328 C 
BRANCH  23   5
ATOM      5  O   UNL     1       1.300   2.686  26.730  0.00  0.00    -0.467 OA
ATOM     26  C   UNL     1       0.889   2.412  28.073  0.00  0.00    +0.280 C 
ENDBRANCH  23   5
ENDBRANCH  17  23
ENDBRANCH  13  18
BRANCH  15  11
ATOM      8  O   UNL     1       0.621  -2.082  24.084  0.00  0.00    -0.252 OA
ATOM     11  N   UNL     1      -0.940  -0.595  23.247  0.00  0.00    -0.295 N 
ATOM     12  N   UNL     1       1.287  -0.037  23.142  0.00  0.00    -0.267 N 
ATOM     25  C   UNL     1       0.366  -1.009  23.544  0.00  0.00    +0.304 C 
ATOM     34  H   UNL     1      -1.072   0.333  22.857  0.00  0.00    +0.151 HD
ATOM     35  H   UNL     1       0.911   0.801  22.708  0.00  0.00    +0.156 HD
BRANCH  12  27
ATOM      2  F   UNL     1       2.855   2.214  22.654  0.00  0.00    -0.203 F 
ATOM      3  F   UNL     1       6.807  -0.195  23.631  0.00  0.00    -0.205 F 
ATOM     27  C   UNL     1       2.696  -0.075  23.265  0.00  0.00    +0.070 A 
ATOM     29  C   UNL     1       3.453   1.070  23.014  0.00  0.00    +0.147 A 
ATOM     30  C   UNL     1       3.329  -1.260  23.639  0.00  0.00    +0.029 A 
ATOM     31  C   UNL     1       4.841   1.029  23.138  0.00  0.00    +0.078 A 
ATOM     32  C   UNL     1       4.718  -1.301  23.762  0.00  0.00    +0.040 A 
ATOM     33  C   UNL     1       5.474  -0.156  23.511  0.00  0.00    +0.126 A 
ENDBRANCH  12  27
ENDBRANCH  15  11
BRANCH  22  24
ATOM     24  C   UNL     1      -5.563   1.220  24.192  0.00  0.00    +0.164 C 
BRANCH  24   1
ATOM      1  S   UNL     1      -6.772   2.310  24.956  0.00  0.00    -0.155 S 
ATOM     28  C   UNL     1      -5.676   3.681  25.393  0.00  0.00    +0.085 C 
ENDBRANCH  24   1
ENDBRANCH  22  24
TORSDOF 7
ENDMDL
MODEL 5
REMARK VINA RESULT:       2.9      1.707      2.504
REMARK  Name = 7049381
REMARK  9 active torsions:
REMARK  status: ('A' for Active; 'I' for Inactive)
REMARK    1  A    between atoms: S_1  and  C_24
REMARK    2  A    between atoms: S_1  and  C_28
REMARK    3  A    between atoms: O_5  and  C_23
REMARK    4  A    between atoms: O_5  and  C_26
REMARK    5  A    between atoms: N_11  and  C_15
REMARK    6  A    between atoms: N_12  and  C_27
REMARK    7  A    between atoms: C_13  and  C_18
REMARK    8  A    between atoms: C_17  and  C_23
REMARK    9  A    between atoms: C_22  and  C_24
REMARK                            x       y       z     vdW  Elec       q    Type
REMARK                         _______ _______ _______ _____ _____    ______ ____
ROOT
ATOM      6  O   UNL     1      -5.354   1.567  25.592  0.00  0.00    -0.275 OA
ATOM      9  N   UNL     1      -3.855   2.505  24.098  0.00  0.00    -0.287 N 
ATOM     13  C   UNL     1      -3.578   1.281  23.361  0.00  0.00    +0.164 C 
ATOM     14  C   UNL     1      -2.840   1.734  22.103  0.00  0.00    +0.056 C 
ATOM     15  C   UNL     1      -2.186   3.060  22.502  0.00  0.00    +0.094 C 
ATOM     16  C   UNL     1      -3.170   3.653  23.507  0.00  0.00    +0.131 C 
ATOM     22  C   UNL     1      -4.796   2.557  25.117  0.00  0.00    +0.226 C 
ENDROOT
BRANCH  13  18
ATOM      4  O   UNL     1      -1.733   0.843  24.789  0.00  0.00    -0.274 OA
ATOM     10  N   UNL     1      -3.131  -0.932  24.289  0.00  0.00    -0.286 N 
ATOM     17  C   UNL     1      -2.330  -1.962  24.936  0.00  0.00    +0.185 C 
ATOM     18  C   UNL     1      -2.722   0.390  24.209  0.00  0.00    +0.237 C 
ATOM     19  C   UNL     1      -4.294  -1.512  23.621  0.00  0.00    +0.109 C 
ATOM     20  C   UNL     1      -2.889  -3.277  24.406  0.00  0.00    +0.035 C 
ATOM     21  C   UNL     1      -4.351  -2.950  24.113  0.00  0.00    +0.021 C 
BRANCH  17  23
ATOM      7  O   UNL     1      -3.591  -2.086  26.984  0.00  0.00    -0.249 OA
ATOM     23  C   UNL     1      -2.541  -1.823  26.415  0.00  0.00    +0.328 C 
BRANCH  23   5
ATOM      5  O   UNL     1      -1.396  -1.366  26.998  0.00  0.00    -0.467 OA
ATOM     26  C   UNL     1      -0.183  -1.700  26.316  0.00  0.00    +0.280 C 
ENDBRANCH  23   5
ENDBRANCH  17  23
ENDBRANCH  13  18
BRANCH  15  11
ATOM      8  O   UNL     1      -0.382   0.903  21.959  0.00  0.00    -0.252 OA
ATOM     11  N   UNL     1      -0.883   2.860  23.084  0.00  0.00    -0.295 N 
ATOM     12  N   UNL     1       1.141   1.844  23.479  0.00  0.00    -0.267 N 
ATOM     25  C   UNL     1      -0.058   1.774  22.763  0.00  0.00    +0.304 C 
ATOM     34  H   UNL     1      -0.570   3.505  23.803  0.00  0.00    +0.151 HD
ATOM     35  H   UNL     1       1.254   2.635  24.108  0.00  0.00    +0.156 HD
BRANCH  12  27
ATOM      2  F   UNL     1       0.777  -0.900  23.796  0.00  0.00    -0.203 F 
ATOM      3  F   UNL     1       5.417  -1.678  23.307  0.00  0.00    -0.205 F 
ATOM     27  C   UNL     1       2.230   0.943  23.438  0.00  0.00    +0.070 A 
ATOM     29  C   UNL     1       2.015  -0.426  23.598  0.00  0.00    +0.147 A 
ATOM     30  C   UNL     1       3.523   1.426  23.232  0.00  0.00    +0.029 A 
ATOM     31  C   UNL     1       3.092  -1.311  23.555  0.00  0.00    +0.078 A 
ATOM     32  C   UNL     1       4.599   0.540  23.189  0.00  0.00    +0.040 A 
ATOM     33  C   UNL     1       4.384  -0.828  23.351  0.00  0.00    +0.126 A 
ENDBRANCH  12  27
ENDBRANCH  15  11
BRANCH  22  24
ATOM     24  C   UNL     1      -5.107   3.934  25.646  0.00  0.00    +0.164 C 
BRANCH  24   1
ATOM      1  S   UNL     1      -3.989   4.259  27.017  0.00  0.00    -0.155 S 
ATOM     28  C   UNL     1      -2.423   4.237  26.111  0.00  0.00    +0.085 C 
ENDBRANCH  24   1
ENDBRANCH  22  24
TORSDOF 7
ENDMDL
MODEL 6
REMARK VINA RESULT:       4.5      1.358      2.090
REMARK  Name = 7049381
REMARK  9 active torsions:
REMARK  status: ('A' for Active; 'I' for Inactive)
REMARK    1  A    between atoms: S_1  and  C_24
REMARK    2  A    between atoms: S_1  and  C_28
REMARK    3  A    between atoms: O_5  and  C_23
REMARK    4  A    between atoms: O_5  and  C_26
REMARK    5  A    between atoms: N_11  and  C_15
REMARK    6  A    between atoms: N_12  and  C_27
REMARK    7  A    between atoms: C_13  and  C_18
REMARK    8  A    between atoms: C_17  and  C_23
REMARK    9  A    between atoms: C_22  and  C_24
REMARK                            x       y       z     vdW  Elec       q    Type
REMARK                         _______ _______ _______ _____ _____    ______ ____
ROOT
ATOM      6  O   UNL     1      -2.642   2.077  26.621  0.00  0.00    -0.275 OA
ATOM      9  N   UNL     1      -1.985   2.363  24.420  0.00  0.00    -0.287 N 
ATOM     13  C   UNL     1      -2.799   1.289  23.870  0.00  0.00    +0.164 C 
ATOM     14  C   UNL     1      -2.766   1.501  22.357  0.00  0.00    +0.056 C 
ATOM     15  C   UNL     1      -1.455   2.252  22.107  0.00  0.00    +0.094 C 
ATOM     16  C   UNL     1      -1.283   3.095  23.367  0.00  0.00    +0.131 C 
ATOM     22  C   UNL     1      -2.039   2.719  25.759  0.00  0.00    +0.226 C 
ENDROOT
BRANCH  13  18
ATOM      4  O   UNL     1      -1.029  -0.077  24.667  0.00  0.00    -0.274 OA
ATOM     10  N   UNL     1      -3.016  -1.130  24.120  0.00  0.00    -0.286 N 
ATOM     17  C   UNL     1      -2.535  -2.494  24.295  0.00  0.00    +0.185 C 
ATOM     18  C   UNL     1      -2.189  -0.025  24.254  0.00  0.00    +0.237 C 
ATOM     19  C   UNL     1      -4.394  -1.115  23.636  0.00  0.00    +0.109 C 
ATOM     20  C   UNL     1      -3.589  -3.365  23.624  0.00  0.00    +0.035 C 
ATOM     21  C   UNL     1      -4.873  -2.552  23.777  0.00  0.00    +0.021 C 
BRANCH  17  23
ATOM      7  O   UNL     1      -3.371  -2.522  26.553  0.00  0.00    -0.249 OA
ATOM     23  C   UNL     1      -2.458  -2.749  25.771  0.00  0.00    +0.328 C 
BRANCH  23   5
ATOM      5  O   UNL     1      -1.234  -3.261  26.083  0.00  0.00    -0.467 OA
ATOM     26  C   UNL     1      -0.126  -2.663  25.404  0.00  0.00    +0.280 C 
ENDBRANCH  23   5
ENDBRANCH  17  23
ENDBRANCH  13  18
BRANCH  15  11
ATOM      8  O   UNL     1       0.900   2.053  23.725  0.00  0.00    -0.252 OA
ATOM     11  N   UNL     1      -0.350   1.348  21.912  0.00  0.00    -0.295 N 
ATOM     12  N   UNL     1       1.675   0.340  22.320  0.00  0.00    -0.267 N 
ATOM     25  C   UNL     1       0.770   1.313  22.754  0.00  0.00    +0.304 C 
ATOM     34  H   UNL     1      -0.354   0.747  21.094  0.00  0.00    +0.151 HD
ATOM     35  H   UNL     1       1.417  -0.191  21.492  0.00  0.00    +0.156 HD
BRANCH  12  27
ATOM      2  F   UNL     1       3.773   2.168  22.462  0.00  0.00    -0.203 F 
ATOM      3  F   UNL     1       6.549  -1.020  24.584  0.00  0.00    -0.205 F 
ATOM     27  C   UNL     1       2.921  -0.005  22.896  0.00  0.00    +0.070 A 
ATOM     29  C   UNL     1       3.951   0.934  22.953  0.00  0.00    +0.147 A 
ATOM     30  C   UNL     1       3.117  -1.287  23.409  0.00  0.00    +0.029 A 
ATOM     31  C   UNL     1       5.176   0.590  23.523  0.00  0.00    +0.078 A 
ATOM     32  C   UNL     1       4.343  -1.630  23.979  0.00  0.00    +0.040 A 
ATOM     33  C   UNL     1       5.372  -0.691  24.035  0.00  0.00    +0.126 A 
ENDBRANCH  12  27
ENDBRANCH  15  11
BRANCH  22  24
ATOM     24  C   UNL     1      -1.287   3.972  26.130  0.00  0.00    +0.164 C 
BRANCH  24   1
ATOM      1  S   UNL     1      -2.128   5.363  25.360  0.00  0.00    -0.155 S 
ATOM     28  C   UNL     1      -3.825   4.740  25.432  0.00  0.00    +0.085 C 
ENDBRANCH  24   1
ENDBRANCH  22  24
TORSDOF 7
ENDMDL
MODEL 7
REMARK VINA RESULT:       4.9      2.507      4.737
REMARK  Name = 7049381
REMARK  9 active torsions:
REMARK  status: ('A' for Active; 'I' for Inactive)
REMARK    1  A    between atoms: S_1  and  C_24
REMARK    2  A    between atoms: S_1  and  C_28
REMARK    3  A    between atoms: O_5  and  C_23
REMARK    4  A    between atoms: O_5  and  C_26
REMARK    5  A    between atoms: N_11  and  C_15
REMARK    6  A    between atoms: N_12  and  C_27
REMARK    7  A    between atoms: C_13  and  C_18
REMARK    8  A    between atoms: C_17  and  C_23
REMARK    9  A    between atoms: C_22  and  C_24
REMARK                            x       y       z     vdW  Elec       q    Type
REMARK                         _______ _______ _______ _____ _____    ______ ____
ROOT
ATOM      6  O   UNL     1      -5.389  -0.302  24.172  0.00  0.00    -0.275 OA
ATOM      9  N   UNL     1      -3.340  -1.270  24.646  0.00  0.00    -0.287 N 
ATOM     13  C   UNL     1      -2.979  -0.361  25.724  0.00  0.00    +0.164 C 
ATOM     14  C   UNL     1      -1.782  -1.015  26.411  0.00  0.00    +0.056 C 
ATOM     15  C   UNL     1      -1.148  -1.885  25.322  0.00  0.00    +0.094 C 
ATOM     16  C   UNL     1      -2.341  -2.324  24.478  0.00  0.00    +0.131 C 
ATOM     22  C   UNL     1      -4.569  -1.207  24.007  0.00  0.00    +0.226 C 
ENDROOT
BRANCH  13  18
ATOM      4  O   UNL     1      -1.514   1.135  24.606  0.00  0.00    -0.274 OA
ATOM     10  N   UNL     1      -3.592   1.948  25.219  0.00  0.00    -0.286 N 
ATOM     17  C   UNL     1      -3.347   3.333  24.842  0.00  0.00    +0.185 C 
ATOM     18  C   UNL     1      -2.615   0.968  25.134  0.00  0.00    +0.237 C 
ATOM     19  C   UNL     1      -4.909   1.794  25.833  0.00  0.00    +0.109 C 
ATOM     20  C   UNL     1      -4.469   4.120  25.508  0.00  0.00    +0.035 C 
ATOM     21  C   UNL     1      -5.617   3.116  25.575  0.00  0.00    +0.021 C 
BRANCH  17  23
ATOM      7  O   UNL     1      -4.374   3.878  22.734  0.00  0.00    -0.249 OA
ATOM     23  C   UNL     1      -3.427   3.405  23.346  0.00  0.00    +0.328 C 
BRANCH  23   5
ATOM      5  O   UNL     1      -2.298   2.868  22.802  0.00  0.00    -0.467 OA
ATOM     26  C   UNL     1      -2.499   2.073  21.630  0.00  0.00    +0.280 C 
ENDBRANCH  23   5
ENDBRANCH  17  23
ENDBRANCH  13  18
BRANCH  15  11
ATOM      8  O   UNL     1       1.692  -2.260  25.319  0.00  0.00    -0.252 OA
ATOM     11  N   UNL     1      -0.183  -1.150  24.544  0.00  0.00    -0.295 N 
ATOM     12  N   UNL     1       1.880  -0.533  23.739  0.00  0.00    -0.267 N 
ATOM     25  C   UNL     1       1.195  -1.397  24.599  0.00  0.00    +0.304 C 
ATOM     34  H   UNL     1      -0.510  -0.378  23.971  0.00  0.00    +0.151 HD
ATOM     35  H   UNL     1       1.318   0.128  23.210  0.00  0.00    +0.156 HD
BRANCH  12  27
ATOM      2  F   UNL     1       3.075   1.763  22.708  0.00  0.00    -0.203 F 
ATOM      3  F   UNL     1       7.344  -0.271  22.842  0.00  0.00    -0.205 F 
ATOM     27  C   UNL     1       3.274  -0.464  23.507  0.00  0.00    +0.070 A 
ATOM     29  C   UNL     1       3.842   0.701  22.991  0.00  0.00    +0.147 A 
ATOM     30  C   UNL     1       4.081  -1.564  23.798  0.00  0.00    +0.029 A 
ATOM     31  C   UNL     1       5.217   0.765  22.766  0.00  0.00    +0.078 A 
ATOM     32  C   UNL     1       5.456  -1.498  23.573  0.00  0.00    +0.040 A 
ATOM     33  C   UNL     1       6.023  -0.334  23.056  0.00  0.00    +0.126 A 
ENDBRANCH  12  27
ENDBRANCH  15  11
BRANCH  22  24
ATOM     24  C   UNL     1      -4.866  -2.336  23.053  0.00  0.00    +0.164 C 
BRANCH  24   1
ATOM      1  S   UNL     1      -4.503  -3.880  23.901  0.00  0.00    -0.155 S 
ATOM     28  C   UNL     1      -3.139  -4.457  22.862  0.00  0.00    +0.085 C 
ENDBRANCH  24   1
ENDBRANCH  22  24
TORSDOF 7
ENDMDL
MODEL 8
REMARK VINA RESULT:       5.0      3.283      4.441
REMARK  Name = 7049381
REMARK  9 active torsions:
REMARK  status: ('A' for Active; 'I' for Inactive)
REMARK    1  A    between atoms: S_1  and  C_24
REMARK    2  A    between atoms: S_1  and  C_28
REMARK    3  A    between atoms: O_5  and  C_23
REMARK    4  A    between atoms: O_5  and  C_26
REMARK    5  A    between atoms: N_11  and  C_15
REMARK    6  A    between atoms: N_12  and  C_27
REMARK    7  A    between atoms: C_13  and  C_18
REMARK    8  A    between atoms: C_17  and  C_23
REMARK    9  A    between atoms: C_22  and  C_24
REMARK                            x       y       z     vdW  Elec       q    Type
REMARK                         _______ _______ _______ _____ _____    ______ ____
ROOT
ATOM      6  O   UNL     1      -5.231   1.889  24.539  0.00  0.00    -0.275 OA
ATOM      9  N   UNL     1      -3.181   2.861  24.081  0.00  0.00    -0.287 N 
ATOM     13  C   UNL     1      -2.656   1.761  23.285  0.00  0.00    +0.164 C 
ATOM     14  C   UNL     1      -1.412   2.324  22.600  0.00  0.00    +0.056 C 
ATOM     15  C   UNL     1      -0.949   3.455  23.523  0.00  0.00    +0.094 C 
ATOM     16  C   UNL     1      -2.252   3.990  24.111  0.00  0.00    +0.131 C 
ATOM     22  C   UNL     1      -4.474   2.861  24.580  0.00  0.00    +0.226 C 
ENDROOT
BRANCH  13  18
ATOM      4  O   UNL     1      -3.060   0.328  25.134  0.00  0.00    -0.274 OA
ATOM     10  N   UNL     1      -1.135  -0.045  23.905  0.00  0.00    -0.286 N 
ATOM     17  C   UNL     1      -0.574  -1.065  24.780  0.00  0.00    +0.185 C 
ATOM     18  C   UNL     1      -2.313   0.624  24.199  0.00  0.00    +0.237 C 
ATOM     19  C   UNL     1      -0.221   0.270  22.810  0.00  0.00    +0.109 C 
ATOM     20  C   UNL     1       0.883  -1.187  24.348  0.00  0.00    +0.035 C 
ATOM     21  C   UNL     1       0.847  -0.811  22.869  0.00  0.00    +0.021 C 
BRANCH  17  23
ATOM      7  O   UNL     1      -1.064  -3.132  23.647  0.00  0.00    -0.249 OA
ATOM     23  C   UNL     1      -1.338  -2.331  24.530  0.00  0.00    +0.328 C 
BRANCH  23   5
ATOM      5  O   UNL     1      -2.358  -2.433  25.428  0.00  0.00    -0.467 OA
ATOM     26  C   UNL     1      -3.594  -2.926  24.902  0.00  0.00    +0.280 C 
ENDBRANCH  23   5
ENDBRANCH  17  23
ENDBRANCH  13  18
BRANCH  15  11
ATOM      8  O   UNL     1      -1.318   3.678  26.355  0.00  0.00    -0.252 OA
ATOM     11  N   UNL     1      -0.056   2.977  24.549  0.00  0.00    -0.295 N 
ATOM     12  N   UNL     1       0.726   2.567  26.671  0.00  0.00    -0.267 N 
ATOM     25  C   UNL     1      -0.312   3.126  25.918  0.00  0.00    +0.304 C 
ATOM     34  H   UNL     1       0.828   2.564  24.267  0.00  0.00    +0.151 HD
ATOM     35  H   UNL     1       1.493   2.145  26.154  0.00  0.00    +0.156 HD
BRANCH  12  27
ATOM      2  F   UNL     1       3.198   2.243  27.916  0.00  0.00    -0.203 F 
ATOM      3  F   UNL     1       1.178   2.361  32.192  0.00  0.00    -0.205 F 
ATOM     27  C   UNL     1       0.844   2.512  28.080  0.00  0.00    +0.070 A 
ATOM     29  C   UNL     1       2.096   2.350  28.672  0.00  0.00    +0.147 A 
ATOM     30  C   UNL     1      -0.295   2.623  28.876  0.00  0.00    +0.029 A 
ATOM     31  C   UNL     1       2.209   2.299  30.061  0.00  0.00    +0.078 A 
ATOM     32  C   UNL     1      -0.182   2.571  30.265  0.00  0.00    +0.040 A 
ATOM     33  C   UNL     1       1.070   2.408  30.858  0.00  0.00    +0.126 A 
ENDBRANCH  12  27
ENDBRANCH  15  11
BRANCH  22  24
ATOM     24  C   UNL     1      -4.929   4.152  25.213  0.00  0.00    +0.164 C 
BRANCH  24   1
ATOM      1  S   UNL     1      -6.507   3.841  26.018  0.00  0.00    -0.155 S 
ATOM     28  C   UNL     1      -6.165   2.189  26.675  0.00  0.00    +0.085 C 
ENDBRANCH  24   1
ENDBRANCH  22  24
TORSDOF 7
ENDMDL
MODEL 9
REMARK VINA RESULT:       5.0      3.491      5.894
REMARK  Name = 7049381
REMARK  9 active torsions:
REMARK  status: ('A' for Active; 'I' for Inactive)
REMARK    1  A    between atoms: S_1  and  C_24
REMARK    2  A    between atoms: S_1  and  C_28
REMARK    3  A    between atoms: O_5  and  C_23
REMARK    4  A    between atoms: O_5  and  C_26
REMARK    5  A    between atoms: N_11  and  C_15
REMARK    6  A    between atoms: N_12  and  C_27
REMARK    7  A    between atoms: C_13  and  C_18
REMARK    8  A    between atoms: C_17  and  C_23
REMARK    9  A    between atoms: C_22  and  C_24
REMARK                            x       y       z     vdW  Elec       q    Type
REMARK                         _______ _______ _______ _____ _____    ______ ____
ROOT
ATOM      6  O   UNL     1      -0.390   3.315  28.583  0.00  0.00    -0.275 OA
ATOM      9  N   UNL     1      -0.026   3.268  26.298  0.00  0.00    -0.287 N 
ATOM     13  C   UNL     1      -1.094   4.193  25.947  0.00  0.00    +0.164 C 
ATOM     14  C   UNL     1      -0.835   4.563  24.488  0.00  0.00    +0.056 C 
ATOM     15  C   UNL     1      -0.058   3.371  23.925  0.00  0.00    +0.094 C 
ATOM     16  C   UNL     1       0.748   2.875  25.122  0.00  0.00    +0.131 C 
ATOM     22  C   UNL     1       0.288   2.967  27.614  0.00  0.00    +0.226 C 
ENDROOT
BRANCH  13  18
ATOM      4  O   UNL     1      -2.691   2.935  27.173  0.00  0.00    -0.274 OA
ATOM     10  N   UNL     1      -3.254   3.542  25.012  0.00  0.00    -0.286 N 
ATOM     17  C   UNL     1      -4.496   2.785  24.944  0.00  0.00    +0.185 C 
ATOM     18  C   UNL     1      -2.411   3.494  26.111  0.00  0.00    +0.237 C 
ATOM     19  C   UNL     1      -2.963   4.193  23.737  0.00  0.00    +0.109 C 
ATOM     20  C   UNL     1      -4.847   2.750  23.461  0.00  0.00    +0.035 C 
ATOM     21  C   UNL     1      -4.238   4.041  22.921  0.00  0.00    +0.021 C 
BRANCH  17  23
ATOM      7  O   UNL     1      -5.768   4.726  25.585  0.00  0.00    -0.249 OA
ATOM     23  C   UNL     1      -5.518   3.539  25.741  0.00  0.00    +0.328 C 
BRANCH  23   5
ATOM      5  O   UNL     1      -6.103   2.700  26.643  0.00  0.00    -0.467 OA
ATOM     26  C   UNL     1      -6.171   1.326  26.251  0.00  0.00    +0.280 C 
ENDBRANCH  23   5
ENDBRANCH  17  23
ENDBRANCH  13  18
BRANCH  15  11
ATOM      8  O   UNL     1      -0.751   0.906  25.209  0.00  0.00    -0.252 OA
ATOM     11  N   UNL     1      -0.939   2.351  23.413  0.00  0.00    -0.295 N 
ATOM     12  N   UNL     1      -2.109   0.373  23.369  0.00  0.00    -0.267 N 
ATOM     25  C   UNL     1      -1.228   1.169  24.107  0.00  0.00    +0.304 C 
ATOM     34  H   UNL     1      -1.324   2.467  22.481  0.00  0.00    +0.151 HD
ATOM     35  H   UNL     1      -2.412   0.737  22.469  0.00  0.00    +0.156 HD
BRANCH  12  27
ATOM      2  F   UNL     1      -0.472  -1.711  24.228  0.00  0.00    -0.203 F 
ATOM      3  F   UNL     1      -4.204  -4.569  24.750  0.00  0.00    -0.205 F 
ATOM     27  C   UNL     1      -2.641  -0.890  23.720  0.00  0.00    +0.070 A 
ATOM     29  C   UNL     1      -1.794  -1.912  24.148  0.00  0.00    +0.147 A 
ATOM     30  C   UNL     1      -4.016  -1.110  23.641  0.00  0.00    +0.029 A 
ATOM     31  C   UNL     1      -2.323  -3.155  24.495  0.00  0.00    +0.078 A 
ATOM     32  C   UNL     1      -4.544  -2.354  23.988  0.00  0.00    +0.040 A 
ATOM     33  C   UNL     1      -3.697  -3.376  24.415  0.00  0.00    +0.126 A 
ENDBRANCH  12  27
ENDBRANCH  15  11
BRANCH  22  24
ATOM     24  C   UNL     1       1.540   2.151  27.815  0.00  0.00    +0.164 C 
BRANCH  24   1
ATOM      1  S   UNL     1       2.491   2.924  29.132  0.00  0.00    -0.155 S 
ATOM     28  C   UNL     1       1.894   1.936  30.525  0.00  0.00    +0.085 C 
ENDBRANCH  24   1
ENDBRANCH  22  24
TORSDOF 7
ENDMDL
MODEL 10
REMARK VINA RESULT:       5.7      2.515      4.653
REMARK  Name = 7049381
REMARK  9 active torsions:
REMARK  status: ('A' for Active; 'I' for Inactive)
REMARK    1  A    between atoms: S_1  and  C_24
REMARK    2  A    between atoms: S_1  and  C_28
REMARK    3  A    between atoms: O_5  and  C_23
REMARK    4  A    between atoms: O_5  and  C_26
REMARK    5  A    between atoms: N_11  and  C_15
REMARK    6  A    between atoms: N_12  and  C_27
REMARK    7  A    between atoms: C_13  and  C_18
REMARK    8  A    between atoms: C_17  and  C_23
REMARK    9  A    between atoms: C_22  and  C_24
REMARK                            x       y       z     vdW  Elec       q    Type
REMARK                         _______ _______ _______ _____ _____    ______ ____
ROOT
ATOM      6  O   UNL     1      -5.571  -0.388  23.938  0.00  0.00    -0.275 OA
ATOM      9  N   UNL     1      -3.515  -1.264  24.540  0.00  0.00    -0.287 N 
ATOM     13  C   UNL     1      -3.174  -0.225  25.501  0.00  0.00    +0.164 C 
ATOM     14  C   UNL     1      -1.975  -0.775  26.271  0.00  0.00    +0.056 C 
ATOM     15  C   UNL     1      -1.321  -1.764  25.302  0.00  0.00    +0.094 C 
ATOM     16  C   UNL     1      -2.502  -2.318  24.510  0.00  0.00    +0.131 C 
ATOM     22  C   UNL     1      -4.740  -1.296  23.891  0.00  0.00    +0.226 C 
ENDROOT
BRANCH  13  18
ATOM      4  O   UNL     1      -3.489   1.380  23.781  0.00  0.00    -0.274 OA
ATOM     10  N   UNL     1      -1.730   1.726  25.245  0.00  0.00    -0.286 N 
ATOM     17  C   UNL     1      -1.156   2.870  24.548  0.00  0.00    +0.185 C 
ATOM     18  C   UNL     1      -2.821   1.026  24.755  0.00  0.00    +0.237 C 
ATOM     19  C   UNL     1      -0.912   1.345  26.393  0.00  0.00    +0.109 C 
ATOM     20  C   UNL     1       0.236   3.029  25.146  0.00  0.00    +0.035 C 
ATOM     21  C   UNL     1       0.077   2.487  26.565  0.00  0.00    +0.021 C 
BRANCH  17  23
ATOM      7  O   UNL     1      -1.631   5.082  25.370  0.00  0.00    -0.249 OA
ATOM     23  C   UNL     1      -2.029   4.052  24.845  0.00  0.00    +0.328 C 
BRANCH  23   5
ATOM      5  O   UNL     1      -3.305   3.790  24.442  0.00  0.00    -0.467 OA
ATOM     26  C   UNL     1      -4.330   4.139  25.378  0.00  0.00    +0.280 C 
ENDBRANCH  23   5
ENDBRANCH  17  23
ENDBRANCH  13  18
BRANCH  15  11
ATOM      8  O   UNL     1       1.530  -1.989  25.456  0.00  0.00    -0.252 OA
ATOM     11  N   UNL     1      -0.359  -1.117  24.446  0.00  0.00    -0.295 N 
ATOM     12  N   UNL     1       1.706  -0.536  23.619  0.00  0.00    -0.267 N 
ATOM     25  C   UNL     1       1.025  -1.281  24.587  0.00  0.00    +0.304 C 
ATOM     34  H   UNL     1      -0.696  -0.467  23.743  0.00  0.00    +0.151 HD
ATOM     35  H   UNL     1       1.137   0.001  22.970  0.00  0.00    +0.156 HD
BRANCH  12  27
ATOM      2  F   UNL     1       2.884   1.814  22.695  0.00  0.00    -0.203 F 
ATOM      3  F   UNL     1       7.185  -0.148  22.873  0.00  0.00    -0.205 F 
ATOM     27  C   UNL     1       3.103  -0.434  23.426  0.00  0.00    +0.070 A 
ATOM     29  C   UNL     1       3.663   0.757  22.963  0.00  0.00    +0.147 A 
ATOM     30  C   UNL     1       3.923  -1.528  23.703  0.00  0.00    +0.029 A 
ATOM     31  C   UNL     1       5.041   0.853  22.776  0.00  0.00    +0.078 A 
ATOM     32  C   UNL     1       5.302  -1.431  23.515  0.00  0.00    +0.040 A 
ATOM     33  C   UNL     1       5.861  -0.241  23.051  0.00  0.00    +0.126 A 
ENDBRANCH  12  27
ENDBRANCH  15  11
BRANCH  22  24
ATOM     24  C   UNL     1      -5.015  -2.538  23.080  0.00  0.00    +0.164 C 
BRANCH  24   1
ATOM      1  S   UNL     1      -4.305  -3.935  23.962  0.00  0.00    -0.155 S 
ATOM     28  C   UNL     1      -3.396  -4.695  22.594  0.00  0.00    +0.085 C 
ENDBRANCH  24   1
ENDBRANCH  22  24
TORSDOF 7
ENDMDL
