MODEL 1
REMARK VINA RESULT:      -0.3      0.000      0.000
REMARK  Name = 7050120
REMARK  13 active torsions:
REMARK  status: ('A' for Active; 'I' for Inactive)
REMARK    1  A    between atoms: O_2  and  C_19
REMARK    2  A    between atoms: O_4  and  C_21
REMARK    3  A    between atoms: O_5  and  C_22
REMARK    4  A    between atoms: N_8  and  C_20
REMARK    5  A    between atoms: N_9  and  C_27
REMARK    6  A    between atoms: C_11  and  C_16
REMARK    7  A    between atoms: C_11  and  C_17
REMARK    8  A    between atoms: C_16  and  C_18
REMARK    9  A    between atoms: C_17  and  C_19
REMARK   10  A    between atoms: C_25  and  C_26
REMARK   11  A    between atoms: C_27  and  C_28
REMARK   12  A    between atoms: C_27  and  C_29
REMARK   13  A    between atoms: C_28  and  C_30
REMARK                            x       y       z     vdW  Elec       q    Type
REMARK                         _______ _______ _______ _____ _____    ______ ____
ROOT
ATOM     20  C   UNL     1      -3.542  -0.493  25.208  0.00  0.00    +0.127 C 
ATOM     21  C   UNL     1      -4.199  -1.655  24.439  0.00  0.00    +0.167 C 
ATOM     22  C   UNL     1      -3.390  -2.950  24.577  0.00  0.00    +0.149 C 
ATOM     23  C   UNL     1      -2.051  -0.419  25.014  0.00  0.00    +0.006 C 
ATOM     24  C   UNL     1      -1.930  -2.771  24.126  0.00  0.00    +0.074 C 
ATOM     25  C   UNL     1      -1.342  -1.446  24.520  0.00  0.00    +0.015 C 
ENDROOT
BRANCH  20   8
ATOM      1  O   UNL     1      -2.609   1.343  23.175  0.00  0.00    -0.276 OA
ATOM      8  N   UNL     1      -4.121   0.779  24.848  0.00  0.00    -0.306 N 
ATOM     18  C   UNL     1      -3.600   1.597  23.853  0.00  0.00    +0.214 C 
ATOM     36  H   UNL     1      -4.914   1.107  25.393  0.00  0.00    +0.149 HD
BRANCH  18  16
ATOM     16  C   UNL     1      -4.415   2.867  23.691  0.00  0.00    +0.103 C 
BRANCH  16  11
ATOM     11  C   UNL     1      -4.569   3.639  25.003  0.00  0.00    -0.011 C 
ATOM     12  C   UNL     1      -3.699   3.040  26.117  0.00  0.00    +0.008 C 
ATOM     13  C   UNL     1      -3.999   5.059  24.893  0.00  0.00    +0.008 C 
ATOM     14  C   UNL     1      -3.494   4.177  27.115  0.00  0.00    +0.001 C 
ATOM     15  C   UNL     1      -3.687   5.474  26.329  0.00  0.00    +0.001 C 
BRANCH  11  17
ATOM     17  C   UNL     1      -6.053   3.663  25.406  0.00  0.00    +0.127 C 
BRANCH  17  19
ATOM      3  O   UNL     1      -6.968   1.504  24.737  0.00  0.00    -0.251 OA
ATOM     19  C   UNL     1      -6.587   2.274  25.606  0.00  0.00    +0.305 C 
BRANCH  19   2
ATOM      2  O   UNL     1      -6.589   1.979  26.930  0.00  0.00    -0.481 OA
ATOM     37  H   UNL     1      -6.512   2.784  27.485  0.00  0.00    +0.295 HD
ENDBRANCH  19   2
ENDBRANCH  17  19
ENDBRANCH  11  17
ENDBRANCH  16  11
ENDBRANCH  18  16
ENDBRANCH  20   8
BRANCH  25  26
ATOM      6  O   UNL     1       0.898  -1.978  24.991  0.00  0.00    -0.271 OA
ATOM      9  N   UNL     1       0.437  -0.235  23.512  0.00  0.00    -0.300 N 
ATOM     26  C   UNL     1       0.105  -1.263  24.378  0.00  0.00    +0.241 C 
ATOM     40  H   UNL     1      -0.303   0.247  23.008  0.00  0.00    +0.150 HD
BRANCH   9  27
ATOM     27  C   UNL     1       1.801   0.136  23.214  0.00  0.00    +0.163 C 
BRANCH  27  29
ATOM      7  O   UNL     1       1.224  -0.764  21.032  0.00  0.00    -0.274 OA
ATOM     10  N   UNL     1       3.290   0.200  21.310  0.00  0.00    -0.328 N 
ATOM     29  C   UNL     1       2.051  -0.213  21.753  0.00  0.00    +0.231 C 
ATOM     41  H   UNL     1       3.954   0.677  21.912  0.00  0.00    +0.145 HD
ATOM     42  H   UNL     1       3.579   0.041  20.350  0.00  0.00    +0.145 HD
ENDBRANCH  27  29
BRANCH  27  28
ATOM     28  C   UNL     1       2.063   1.627  23.458  0.00  0.00    +0.067 C 
BRANCH  28  30
ATOM     30  C   UNL     1       0.984   2.282  24.285  0.00  0.00    -0.045 A 
ATOM     31  C   UNL     1       0.747   1.849  25.589  0.00  0.00    +0.004 A 
ATOM     32  C   UNL     1       0.225   3.321  23.745  0.00  0.00    +0.004 A 
ATOM     33  C   UNL     1      -0.251   2.454  26.355  0.00  0.00    +0.000 A 
ATOM     34  C   UNL     1      -0.773   3.926  24.511  0.00  0.00    +0.000 A 
ATOM     35  C   UNL     1      -1.010   3.492  25.815  0.00  0.00    +0.000 A 
ENDBRANCH  28  30
ENDBRANCH  27  28
ENDBRANCH   9  27
ENDBRANCH  25  26
BRANCH  21   4
ATOM      4  O   UNL     1      -4.296  -1.319  23.053  0.00  0.00    -0.387 OA
ATOM     38  H   UNL     1      -3.522  -1.701  22.606  0.00  0.00    +0.210 HD
ENDBRANCH  21   4
BRANCH  22   5
ATOM      5  O   UNL     1      -3.432  -3.413  25.925  0.00  0.00    -0.389 OA
ATOM     39  H   UNL     1      -4.367  -3.529  26.168  0.00  0.00    +0.210 HD
ENDBRANCH  22   5
TORSDOF 13
ENDMDL
MODEL 2
REMARK VINA RESULT:      -0.1      2.043      7.103
REMARK  Name = 7050120
REMARK  13 active torsions:
REMARK  status: ('A' for Active; 'I' for Inactive)
REMARK    1  A    between atoms: O_2  and  C_19
REMARK    2  A    between atoms: O_4  and  C_21
REMARK    3  A    between atoms: O_5  and  C_22
REMARK    4  A    between atoms: N_8  and  C_20
REMARK    5  A    between atoms: N_9  and  C_27
REMARK    6  A    between atoms: C_11  and  C_16
REMARK    7  A    between atoms: C_11  and  C_17
REMARK    8  A    between atoms: C_16  and  C_18
REMARK    9  A    between atoms: C_17  and  C_19
REMARK   10  A    between atoms: C_25  and  C_26
REMARK   11  A    between atoms: C_27  and  C_28
REMARK   12  A    between atoms: C_27  and  C_29
REMARK   13  A    between atoms: C_28  and  C_30
REMARK                            x       y       z     vdW  Elec       q    Type
REMARK                         _______ _______ _______ _____ _____    ______ ____
ROOT
ATOM     20  C   UNL     1      -1.800  -1.548  23.777  0.00  0.00    +0.127 C 
ATOM     21  C   UNL     1      -2.678  -2.297  24.798  0.00  0.00    +0.167 C 
ATOM     22  C   UNL     1      -4.164  -1.975  24.605  0.00  0.00    +0.149 C 
ATOM     23  C   UNL     1      -2.195  -0.106  23.599  0.00  0.00    +0.006 C 
ATOM     24  C   UNL     1      -4.442  -0.463  24.672  0.00  0.00    +0.074 C 
ATOM     25  C   UNL     1      -3.379   0.368  24.012  0.00  0.00    +0.015 C 
ENDROOT
BRANCH  20   8
ATOM      1  O   UNL     1       0.258   0.374  23.111  0.00  0.00    -0.276 OA
ATOM      8  N   UNL     1      -0.402  -1.608  24.131  0.00  0.00    -0.306 N 
ATOM     18  C   UNL     1       0.516  -0.633  23.765  0.00  0.00    +0.214 C 
ATOM     36  H   UNL     1      -0.076  -2.434  24.625  0.00  0.00    +0.149 HD
BRANCH  18  16
ATOM     16  C   UNL     1       1.908  -0.956  24.277  0.00  0.00    +0.103 C 
BRANCH  16  11
ATOM     11  C   UNL     1       3.010  -0.471  23.334  0.00  0.00    -0.011 C 
ATOM     12  C   UNL     1       2.581  -0.571  21.864  0.00  0.00    +0.008 C 
ATOM     13  C   UNL     1       3.257   1.037  23.483  0.00  0.00    +0.008 C 
ATOM     14  C   UNL     1       3.460   0.435  21.124  0.00  0.00    +0.001 C 
ATOM     15  C   UNL     1       3.896   1.467  22.164  0.00  0.00    +0.001 C 
BRANCH  11  17
ATOM     17  C   UNL     1       4.294  -1.276  23.596  0.00  0.00    +0.127 C 
BRANCH  17  19
ATOM      3  O   UNL     1       6.412  -0.154  23.152  0.00  0.00    -0.251 OA
ATOM     19  C   UNL     1       5.457  -0.371  23.882  0.00  0.00    +0.305 C 
BRANCH  19   2
ATOM      2  O   UNL     1       5.299   0.194  25.106  0.00  0.00    -0.481 OA
ATOM     37  H   UNL     1       4.904   1.089  25.047  0.00  0.00    +0.295 HD
ENDBRANCH  19   2
ENDBRANCH  17  19
ENDBRANCH  11  17
ENDBRANCH  16  11
ENDBRANCH  18  16
ENDBRANCH  20   8
BRANCH  25  26
ATOM      6  O   UNL     1      -3.465   2.303  22.681  0.00  0.00    -0.271 OA
ATOM      9  N   UNL     1      -4.134   2.435  24.910  0.00  0.00    -0.300 N 
ATOM     26  C   UNL     1      -3.657   1.789  23.783  0.00  0.00    +0.241 C 
ATOM     40  H   UNL     1      -4.317   1.894  25.752  0.00  0.00    +0.150 HD
BRANCH   9  27
ATOM     27  C   UNL     1      -4.476   3.839  24.931  0.00  0.00    +0.163 C 
BRANCH  27  29
ATOM      7  O   UNL     1      -6.429   5.004  25.787  0.00  0.00    -0.274 OA
ATOM     10  N   UNL     1      -6.113   2.807  26.380  0.00  0.00    -0.328 N 
ATOM     29  C   UNL     1      -5.757   3.976  25.741  0.00  0.00    +0.231 C 
ATOM     41  H   UNL     1      -5.560   1.958  26.313  0.00  0.00    +0.145 HD
ATOM     42  H   UNL     1      -6.956   2.758  26.944  0.00  0.00    +0.145 HD
ENDBRANCH  27  29
BRANCH  27  28
ATOM     28  C   UNL     1      -3.363   4.698  25.542  0.00  0.00    +0.067 C 
BRANCH  28  30
ATOM     30  C   UNL     1      -2.010   4.031  25.483  0.00  0.00    -0.045 A 
ATOM     31  C   UNL     1      -1.136   4.321  24.436  0.00  0.00    +0.004 A 
ATOM     32  C   UNL     1      -1.635   3.126  26.476  0.00  0.00    +0.004 A 
ATOM     33  C   UNL     1       0.114   3.704  24.381  0.00  0.00    +0.000 A 
ATOM     34  C   UNL     1      -0.385   2.510  26.421  0.00  0.00    +0.000 A 
ATOM     35  C   UNL     1       0.489   2.799  25.374  0.00  0.00    +0.000 A 
ENDBRANCH  28  30
ENDBRANCH  27  28
ENDBRANCH   9  27
ENDBRANCH  25  26
BRANCH  21   4
ATOM      4  O   UNL     1      -2.295  -1.925  26.124  0.00  0.00    -0.387 OA
ATOM     38  H   UNL     1      -1.486  -1.391  26.056  0.00  0.00    +0.210 HD
ENDBRANCH  21   4
BRANCH  22   5
ATOM      5  O   UNL     1      -4.624  -2.503  23.363  0.00  0.00    -0.389 OA
ATOM     39  H   UNL     1      -5.108  -1.796  22.903  0.00  0.00    +0.210 HD
ENDBRANCH  22   5
TORSDOF 13
ENDMDL
MODEL 3
REMARK VINA RESULT:       1.2      1.620      6.693
REMARK  Name = 7050120
REMARK  13 active torsions:
REMARK  status: ('A' for Active; 'I' for Inactive)
REMARK    1  A    between atoms: O_2  and  C_19
REMARK    2  A    between atoms: O_4  and  C_21
REMARK    3  A    between atoms: O_5  and  C_22
REMARK    4  A    between atoms: N_8  and  C_20
REMARK    5  A    between atoms: N_9  and  C_27
REMARK    6  A    between atoms: C_11  and  C_16
REMARK    7  A    between atoms: C_11  and  C_17
REMARK    8  A    between atoms: C_16  and  C_18
REMARK    9  A    between atoms: C_17  and  C_19
REMARK   10  A    between atoms: C_25  and  C_26
REMARK   11  A    between atoms: C_27  and  C_28
REMARK   12  A    between atoms: C_27  and  C_29
REMARK   13  A    between atoms: C_28  and  C_30
REMARK                            x       y       z     vdW  Elec       q    Type
REMARK                         _______ _______ _______ _____ _____    ______ ____
ROOT
ATOM     20  C   UNL     1      -0.889  -1.043  23.944  0.00  0.00    +0.127 C 
ATOM     21  C   UNL     1      -0.902  -2.315  24.813  0.00  0.00    +0.167 C 
ATOM     22  C   UNL     1      -2.320  -2.881  24.959  0.00  0.00    +0.149 C 
ATOM     23  C   UNL     1      -2.003  -0.086  24.274  0.00  0.00    +0.006 C 
ATOM     24  C   UNL     1      -3.304  -1.841  25.523  0.00  0.00    +0.074 C 
ATOM     25  C   UNL     1      -3.076  -0.455  24.990  0.00  0.00    +0.015 C 
ENDROOT
BRANCH  20   8
ATOM      1  O   UNL     1      -0.202   1.503  22.752  0.00  0.00    -0.276 OA
ATOM      8  N   UNL     1       0.370  -0.344  24.043  0.00  0.00    -0.306 N 
ATOM     18  C   UNL     1       0.608   0.881  23.432  0.00  0.00    +0.214 C 
ATOM     36  H   UNL     1       1.127  -0.806  24.538  0.00  0.00    +0.149 HD
BRANCH  18  16
ATOM     16  C   UNL     1       2.016   1.378  23.710  0.00  0.00    +0.103 C 
BRANCH  16  11
ATOM     11  C   UNL     1       3.090   0.470  23.109  0.00  0.00    -0.011 C 
ATOM     12  C   UNL     1       4.499   1.032  23.339  0.00  0.00    +0.008 C 
ATOM     13  C   UNL     1       3.168  -0.875  23.845  0.00  0.00    +0.008 C 
ATOM     14  C   UNL     1       5.429  -0.175  23.240  0.00  0.00    +0.001 C 
ATOM     15  C   UNL     1       4.574  -1.400  23.564  0.00  0.00    +0.001 C 
BRANCH  11  17
ATOM     17  C   UNL     1       2.806   0.271  21.611  0.00  0.00    +0.127 C 
BRANCH  17  19
ATOM      3  O   UNL     1       1.587  -1.807  21.987  0.00  0.00    -0.251 OA
ATOM     19  C   UNL     1       1.728  -0.750  21.391  0.00  0.00    +0.305 C 
BRANCH  19   2
ATOM      2  O   UNL     1       0.900  -0.325  20.403  0.00  0.00    -0.481 OA
ATOM     37  H   UNL     1       0.917   0.651  20.306  0.00  0.00    +0.295 HD
ENDBRANCH  19   2
ENDBRANCH  17  19
ENDBRANCH  11  17
ENDBRANCH  16  11
ENDBRANCH  18  16
ENDBRANCH  20   8
BRANCH  25  26
ATOM      6  O   UNL     1      -4.993   0.367  26.072  0.00  0.00    -0.271 OA
ATOM      9  N   UNL     1      -3.935   1.701  24.480  0.00  0.00    -0.300 N 
ATOM     26  C   UNL     1      -4.100   0.561  25.247  0.00  0.00    +0.241 C 
ATOM     40  H   UNL     1      -3.119   1.779  23.877  0.00  0.00    +0.150 HD
BRANCH   9  27
ATOM     27  C   UNL     1      -4.821   2.839  24.555  0.00  0.00    +0.163 C 
BRANCH  27  29
ATOM      7  O   UNL     1      -6.956   1.677  24.558  0.00  0.00    -0.274 OA
ATOM     10  N   UNL     1      -6.260   2.701  26.493  0.00  0.00    -0.328 N 
ATOM     29  C   UNL     1      -6.128   2.350  25.166  0.00  0.00    +0.231 C 
ATOM     41  H   UNL     1      -5.556   3.238  26.989  0.00  0.00    +0.145 HD
ATOM     42  H   UNL     1      -7.080   2.426  27.025  0.00  0.00    +0.145 HD
ENDBRANCH  27  29
BRANCH  27  28
ATOM     28  C   UNL     1      -4.234   3.978  25.395  0.00  0.00    +0.067 C 
BRANCH  28  30
ATOM     30  C   UNL     1      -2.724   3.979  25.404  0.00  0.00    -0.045 A 
ATOM     31  C   UNL     1      -2.024   4.960  24.703  0.00  0.00    +0.004 A 
ATOM     32  C   UNL     1      -2.031   2.998  26.113  0.00  0.00    +0.004 A 
ATOM     33  C   UNL     1      -0.628   4.960  24.710  0.00  0.00    +0.000 A 
ATOM     34  C   UNL     1      -0.635   2.998  26.121  0.00  0.00    +0.000 A 
ATOM     35  C   UNL     1       0.065   3.979  25.420  0.00  0.00    +0.000 A 
ENDBRANCH  28  30
ENDBRANCH  27  28
ENDBRANCH   9  27
ENDBRANCH  25  26
BRANCH  21   4
ATOM      4  O   UNL     1      -0.392  -2.013  26.114  0.00  0.00    -0.387 OA
ATOM     38  H   UNL     1      -1.114  -1.611  26.624  0.00  0.00    +0.210 HD
ENDBRANCH  21   4
BRANCH  22   5
ATOM      5  O   UNL     1      -2.787  -3.366  23.702  0.00  0.00    -0.389 OA
ATOM     39  H   UNL     1      -2.008  -3.549  23.149  0.00  0.00    +0.210 HD
ENDBRANCH  22   5
TORSDOF 13
ENDMDL
MODEL 4
REMARK VINA RESULT:       1.2      1.820      3.089
REMARK  Name = 7050120
REMARK  13 active torsions:
REMARK  status: ('A' for Active; 'I' for Inactive)
REMARK    1  A    between atoms: O_2  and  C_19
REMARK    2  A    between atoms: O_4  and  C_21
REMARK    3  A    between atoms: O_5  and  C_22
REMARK    4  A    between atoms: N_8  and  C_20
REMARK    5  A    between atoms: N_9  and  C_27
REMARK    6  A    between atoms: C_11  and  C_16
REMARK    7  A    between atoms: C_11  and  C_17
REMARK    8  A    between atoms: C_16  and  C_18
REMARK    9  A    between atoms: C_17  and  C_19
REMARK   10  A    between atoms: C_25  and  C_26
REMARK   11  A    between atoms: C_27  and  C_28
REMARK   12  A    between atoms: C_27  and  C_29
REMARK   13  A    between atoms: C_28  and  C_30
REMARK                            x       y       z     vdW  Elec       q    Type
REMARK                         _______ _______ _______ _____ _____    ______ ____
ROOT
ATOM     20  C   UNL     1      -3.350  -0.411  25.469  0.00  0.00    +0.127 C 
ATOM     21  C   UNL     1      -4.206  -1.467  24.744  0.00  0.00    +0.167 C 
ATOM     22  C   UNL     1      -3.554  -2.854  24.799  0.00  0.00    +0.149 C 
ATOM     23  C   UNL     1      -1.882  -0.516  25.153  0.00  0.00    +0.006 C 
ATOM     24  C   UNL     1      -2.124  -2.845  24.230  0.00  0.00    +0.074 C 
ATOM     25  C   UNL     1      -1.348  -1.610  24.589  0.00  0.00    +0.015 C 
ENDROOT
BRANCH  20   8
ATOM      1  O   UNL     1      -2.857   1.104  23.054  0.00  0.00    -0.276 OA
ATOM      8  N   UNL     1      -3.795   0.929  25.174  0.00  0.00    -0.306 N 
ATOM     18  C   UNL     1      -3.508   1.579  23.980  0.00  0.00    +0.214 C 
ATOM     36  H   UNL     1      -4.294   1.432  25.903  0.00  0.00    +0.149 HD
BRANCH  18  16
ATOM     16  C   UNL     1      -4.106   2.974  23.946  0.00  0.00    +0.103 C 
BRANCH  16  11
ATOM     11  C   UNL     1      -3.320   3.972  24.799  0.00  0.00    -0.011 C 
ATOM     12  C   UNL     1      -1.876   3.506  25.028  0.00  0.00    +0.008 C 
ATOM     13  C   UNL     1      -3.105   5.300  24.061  0.00  0.00    +0.008 C 
ATOM     14  C   UNL     1      -1.094   4.779  25.346  0.00  0.00    +0.001 C 
ATOM     15  C   UNL     1      -1.884   5.931  24.726  0.00  0.00    +0.001 C 
BRANCH  11  17
ATOM     17  C   UNL     1      -4.055   4.188  26.133  0.00  0.00    +0.127 C 
BRANCH  17  19
ATOM      3  O   UNL     1      -5.831   2.529  26.331  0.00  0.00    -0.251 OA
ATOM     19  C   UNL     1      -5.460   3.664  26.073  0.00  0.00    +0.305 C 
BRANCH  19   2
ATOM      2  O   UNL     1      -6.295   4.659  25.678  0.00  0.00    -0.481 OA
ATOM     37  H   UNL     1      -7.015   4.325  25.102  0.00  0.00    +0.295 HD
ENDBRANCH  19   2
ENDBRANCH  17  19
ENDBRANCH  11  17
ENDBRANCH  16  11
ENDBRANCH  18  16
ENDBRANCH  20   8
BRANCH  25  26
ATOM      6  O   UNL     1       0.877  -2.190  25.076  0.00  0.00    -0.271 OA
ATOM      9  N   UNL     1       0.435  -0.883  23.197  0.00  0.00    -0.300 N 
ATOM     26  C   UNL     1       0.095  -1.602  24.329  0.00  0.00    +0.241 C 
ATOM     40  H   UNL     1      -0.303  -0.493  22.616  0.00  0.00    +0.150 HD
BRANCH   9  27
ATOM     27  C   UNL     1       1.797  -0.729  22.738  0.00  0.00    +0.163 C 
BRANCH  27  29
ATOM      7  O   UNL     1       0.789  -0.632  20.529  0.00  0.00    -0.274 OA
ATOM     10  N   UNL     1       2.828   0.376  20.851  0.00  0.00    -0.328 N 
ATOM     29  C   UNL     1       1.734  -0.354  21.264  0.00  0.00    +0.231 C 
ATOM     41  H   UNL     1       3.590   0.618  21.477  0.00  0.00    +0.145 HD
ATOM     42  H   UNL     1       2.906   0.701  19.893  0.00  0.00    +0.145 HD
ENDBRANCH  27  29
BRANCH  27  28
ATOM     28  C   UNL     1       2.558   0.341  23.528  0.00  0.00    +0.067 C 
BRANCH  28  30
ATOM     30  C   UNL     1       4.024   0.017  23.688  0.00  0.00    -0.045 A 
ATOM     31  C   UNL     1       4.973   1.036  23.629  0.00  0.00    +0.004 A 
ATOM     32  C   UNL     1       4.427  -1.303  23.894  0.00  0.00    +0.004 A 
ATOM     33  C   UNL     1       6.328   0.737  23.776  0.00  0.00    +0.000 A 
ATOM     34  C   UNL     1       5.783  -1.602  24.041  0.00  0.00    +0.000 A 
ATOM     35  C   UNL     1       6.732  -0.582  23.982  0.00  0.00    +0.000 A 
ENDBRANCH  28  30
ENDBRANCH  27  28
ENDBRANCH   9  27
ENDBRANCH  25  26
BRANCH  21   4
ATOM      4  O   UNL     1      -4.373  -1.092  23.375  0.00  0.00    -0.387 OA
ATOM     38  H   UNL     1      -4.155  -0.148  23.303  0.00  0.00    +0.210 HD
ENDBRANCH  21   4
BRANCH  22   5
ATOM      5  O   UNL     1      -3.543  -3.338  26.141  0.00  0.00    -0.389 OA
ATOM     39  H   UNL     1      -3.939  -4.227  26.136  0.00  0.00    +0.210 HD
ENDBRANCH  22   5
TORSDOF 13
ENDMDL
MODEL 5
REMARK VINA RESULT:       1.5      1.987      7.087
REMARK  Name = 7050120
REMARK  13 active torsions:
REMARK  status: ('A' for Active; 'I' for Inactive)
REMARK    1  A    between atoms: O_2  and  C_19
REMARK    2  A    between atoms: O_4  and  C_21
REMARK    3  A    between atoms: O_5  and  C_22
REMARK    4  A    between atoms: N_8  and  C_20
REMARK    5  A    between atoms: N_9  and  C_27
REMARK    6  A    between atoms: C_11  and  C_16
REMARK    7  A    between atoms: C_11  and  C_17
REMARK    8  A    between atoms: C_16  and  C_18
REMARK    9  A    between atoms: C_17  and  C_19
REMARK   10  A    between atoms: C_25  and  C_26
REMARK   11  A    between atoms: C_27  and  C_28
REMARK   12  A    between atoms: C_27  and  C_29
REMARK   13  A    between atoms: C_28  and  C_30
REMARK                            x       y       z     vdW  Elec       q    Type
REMARK                         _______ _______ _______ _____ _____    ______ ____
ROOT
ATOM     20  C   UNL     1      -0.756  -1.034  23.829  0.00  0.00    +0.127 C 
ATOM     21  C   UNL     1      -0.743  -2.124  24.917  0.00  0.00    +0.167 C 
ATOM     22  C   UNL     1      -2.106  -2.816  25.036  0.00  0.00    +0.149 C 
ATOM     23  C   UNL     1      -1.988  -0.169  23.868  0.00  0.00    +0.006 C 
ATOM     24  C   UNL     1      -3.244  -1.814  25.299  0.00  0.00    +0.074 C 
ATOM     25  C   UNL     1      -3.093  -0.528  24.538  0.00  0.00    +0.015 C 
ENDROOT
BRANCH  20   8
ATOM      1  O   UNL     1       0.981  -0.232  21.657  0.00  0.00    -0.276 OA
ATOM      8  N   UNL     1       0.410  -0.187  23.910  0.00  0.00    -0.306 N 
ATOM     18  C   UNL     1       1.186   0.145  22.808  0.00  0.00    +0.214 C 
ATOM     36  H   UNL     1       0.698   0.131  24.832  0.00  0.00    +0.149 HD
BRANCH  18  16
ATOM     16  C   UNL     1       2.343   1.050  23.191  0.00  0.00    +0.103 C 
BRANCH  16  11
ATOM     11  C   UNL     1       3.688   0.321  23.186  0.00  0.00    -0.011 C 
ATOM     12  C   UNL     1       4.693   0.995  22.242  0.00  0.00    +0.008 C 
ATOM     13  C   UNL     1       4.402   0.443  24.539  0.00  0.00    +0.008 C 
ATOM     14  C   UNL     1       6.067   0.568  22.756  0.00  0.00    +0.001 C 
ATOM     15  C   UNL     1       5.879   0.213  24.230  0.00  0.00    +0.001 C 
BRANCH  11  17
ATOM     17  C   UNL     1       3.464  -1.152  22.804  0.00  0.00    +0.127 C 
BRANCH  17  19
ATOM      3  O   UNL     1       5.039  -2.548  24.034  0.00  0.00    -0.251 OA
ATOM     19  C   UNL     1       3.921  -2.074  23.896  0.00  0.00    +0.305 C 
BRANCH  19   2
ATOM      2  O   UNL     1       2.888  -2.321  24.740  0.00  0.00    -0.481 OA
ATOM     37  H   UNL     1       2.056  -2.509  24.255  0.00  0.00    +0.295 HD
ENDBRANCH  19   2
ENDBRANCH  17  19
ENDBRANCH  11  17
ENDBRANCH  16  11
ENDBRANCH  18  16
ENDBRANCH  20   8
BRANCH  25  26
ATOM      6  O   UNL     1      -5.364  -0.011  24.229  0.00  0.00    -0.271 OA
ATOM      9  N   UNL     1      -3.885   1.697  24.802  0.00  0.00    -0.300 N 
ATOM     26  C   UNL     1      -4.234   0.392  24.503  0.00  0.00    +0.241 C 
ATOM     40  H   UNL     1      -2.928   1.903  25.080  0.00  0.00    +0.150 HD
BRANCH   9  27
ATOM     27  C   UNL     1      -4.837   2.783  24.829  0.00  0.00    +0.163 C 
BRANCH  27  29
ATOM      7  O   UNL     1      -6.003   2.356  26.918  0.00  0.00    -0.274 OA
ATOM     10  N   UNL     1      -7.099   1.937  24.943  0.00  0.00    -0.328 N 
ATOM     29  C   UNL     1      -6.009   2.331  25.690  0.00  0.00    +0.231 C 
ATOM     41  H   UNL     1      -7.097   1.944  23.928  0.00  0.00    +0.145 HD
ATOM     42  H   UNL     1      -7.953   1.624  25.394  0.00  0.00    +0.145 HD
ENDBRANCH  27  29
BRANCH  27  28
ATOM     28  C   UNL     1      -4.230   4.074  25.389  0.00  0.00    +0.067 C 
BRANCH  28  30
ATOM     30  C   UNL     1      -2.720   4.071  25.359  0.00  0.00    -0.045 A 
ATOM     31  C   UNL     1      -2.016   2.994  25.896  0.00  0.00    +0.004 A 
ATOM     32  C   UNL     1      -2.033   5.144  24.793  0.00  0.00    +0.004 A 
ATOM     33  C   UNL     1      -0.620   2.991  25.869  0.00  0.00    +0.000 A 
ATOM     34  C   UNL     1      -0.637   5.141  24.766  0.00  0.00    +0.000 A 
ATOM     35  C   UNL     1       0.068   4.064  25.303  0.00  0.00    +0.000 A 
ENDBRANCH  28  30
ENDBRANCH  27  28
ENDBRANCH   9  27
ENDBRANCH  25  26
BRANCH  21   4
ATOM      4  O   UNL     1      -0.414  -1.539  26.179  0.00  0.00    -0.387 OA
ATOM     38  H   UNL     1      -0.058  -0.652  26.006  0.00  0.00    +0.210 HD
ENDBRANCH  21   4
BRANCH  22   5
ATOM      5  O   UNL     1      -2.379  -3.568  23.854  0.00  0.00    -0.389 OA
ATOM     39  H   UNL     1      -1.549  -3.641  23.353  0.00  0.00    +0.210 HD
ENDBRANCH  22   5
TORSDOF 13
ENDMDL
MODEL 6
REMARK VINA RESULT:       2.3      2.271      7.981
REMARK  Name = 7050120
REMARK  13 active torsions:
REMARK  status: ('A' for Active; 'I' for Inactive)
REMARK    1  A    between atoms: O_2  and  C_19
REMARK    2  A    between atoms: O_4  and  C_21
REMARK    3  A    between atoms: O_5  and  C_22
REMARK    4  A    between atoms: N_8  and  C_20
REMARK    5  A    between atoms: N_9  and  C_27
REMARK    6  A    between atoms: C_11  and  C_16
REMARK    7  A    between atoms: C_11  and  C_17
REMARK    8  A    between atoms: C_16  and  C_18
REMARK    9  A    between atoms: C_17  and  C_19
REMARK   10  A    between atoms: C_25  and  C_26
REMARK   11  A    between atoms: C_27  and  C_28
REMARK   12  A    between atoms: C_27  and  C_29
REMARK   13  A    between atoms: C_28  and  C_30
REMARK                            x       y       z     vdW  Elec       q    Type
REMARK                         _______ _______ _______ _____ _____    ______ ____
ROOT
ATOM     20  C   UNL     1      -0.114   2.718  25.253  0.00  0.00    +0.127 C 
ATOM     21  C   UNL     1       0.270   3.851  24.281  0.00  0.00    +0.167 C 
ATOM     22  C   UNL     1      -0.799   4.949  24.247  0.00  0.00    +0.149 C 
ATOM     23  C   UNL     1      -1.555   2.300  25.138  0.00  0.00    +0.006 C 
ATOM     24  C   UNL     1      -2.190   4.393  23.894  0.00  0.00    +0.074 C 
ATOM     25  C   UNL     1      -2.474   3.057  24.519  0.00  0.00    +0.015 C 
ENDROOT
BRANCH  20   8
ATOM      1  O   UNL     1      -0.393   0.650  23.247  0.00  0.00    -0.276 OA
ATOM      8  N   UNL     1       0.724   1.557  25.074  0.00  0.00    -0.306 N 
ATOM     18  C   UNL     1       0.511   0.613  24.078  0.00  0.00    +0.214 C 
ATOM     36  H   UNL     1       1.468   1.404  25.750  0.00  0.00    +0.149 HD
BRANCH  18  16
ATOM     16  C   UNL     1       1.547  -0.496  24.128  0.00  0.00    +0.103 C 
BRANCH  16  11
ATOM     11  C   UNL     1       2.766  -0.201  23.253  0.00  0.00    -0.011 C 
ATOM     12  C   UNL     1       2.439  -0.347  21.760  0.00  0.00    +0.008 C 
ATOM     13  C   UNL     1       3.179   1.275  23.337  0.00  0.00    +0.008 C 
ATOM     14  C   UNL     1       3.485   0.502  21.040  0.00  0.00    +0.001 C 
ATOM     15  C   UNL     1       3.961   1.542  22.053  0.00  0.00    +0.001 C 
BRANCH  11  17
ATOM     17  C   UNL     1       3.922  -1.129  23.664  0.00  0.00    +0.127 C 
BRANCH  17  19
ATOM      3  O   UNL     1       6.144  -0.384  22.993  0.00  0.00    -0.251 OA
ATOM     19  C   UNL     1       5.213  -0.373  23.784  0.00  0.00    +0.305 C 
BRANCH  19   2
ATOM      2  O   UNL     1       5.206   0.353  24.931  0.00  0.00    -0.481 OA
ATOM     37  H   UNL     1       5.947   0.106  25.524  0.00  0.00    +0.295 HD
ENDBRANCH  19   2
ENDBRANCH  17  19
ENDBRANCH  11  17
ENDBRANCH  16  11
ENDBRANCH  18  16
ENDBRANCH  20   8
BRANCH  25  26
ATOM      6  O   UNL     1      -4.665   3.007  23.672  0.00  0.00    -0.271 OA
ATOM      9  N   UNL     1      -4.086   1.547  25.394  0.00  0.00    -0.300 N 
ATOM     26  C   UNL     1      -3.848   2.550  24.471  0.00  0.00    +0.241 C 
ATOM     40  H   UNL     1      -3.315   1.201  25.960  0.00  0.00    +0.150 HD
BRANCH   9  27
ATOM     27  C   UNL     1      -5.366   0.893  25.537  0.00  0.00    +0.163 C 
BRANCH  27  29
ATOM      7  O   UNL     1      -7.327   1.809  24.432  0.00  0.00    -0.274 OA
ATOM     10  N   UNL     1      -6.333   3.037  26.099  0.00  0.00    -0.328 N 
ATOM     29  C   UNL     1      -6.437   1.941  25.268  0.00  0.00    +0.231 C 
ATOM     41  H   UNL     1      -5.606   3.121  26.803  0.00  0.00    +0.145 HD
ATOM     42  H   UNL     1      -6.994   3.804  26.034  0.00  0.00    +0.145 HD
ENDBRANCH  27  29
BRANCH  27  28
ATOM     28  C   UNL     1      -5.525  -0.290  24.576  0.00  0.00    +0.067 C 
BRANCH  28  30
ATOM     30  C   UNL     1      -4.313  -1.190  24.553  0.00  0.00    -0.045 A 
ATOM     31  C   UNL     1      -4.308  -2.329  23.749  0.00  0.00    +0.004 A 
ATOM     32  C   UNL     1      -3.200  -0.881  25.335  0.00  0.00    +0.004 A 
ATOM     33  C   UNL     1      -3.188  -3.162  23.727  0.00  0.00    +0.000 A 
ATOM     34  C   UNL     1      -2.080  -1.714  25.313  0.00  0.00    +0.000 A 
ATOM     35  C   UNL     1      -2.075  -2.853  24.509  0.00  0.00    +0.000 A 
ENDBRANCH  28  30
ENDBRANCH  27  28
ENDBRANCH   9  27
ENDBRANCH  25  26
BRANCH  21   4
ATOM      4  O   UNL     1       0.425   3.320  22.963  0.00  0.00    -0.387 OA
ATOM     38  H   UNL     1      -0.446   3.348  22.533  0.00  0.00    +0.210 HD
ENDBRANCH  21   4
BRANCH  22   5
ATOM      5  O   UNL     1      -0.847   5.627  25.502  0.00  0.00    -0.389 OA
ATOM     39  H   UNL     1      -1.780   5.682  25.771  0.00  0.00    +0.210 HD
ENDBRANCH  22   5
TORSDOF 13
ENDMDL
MODEL 7
REMARK VINA RESULT:       2.8      1.310      1.984
REMARK  Name = 7050120
REMARK  13 active torsions:
REMARK  status: ('A' for Active; 'I' for Inactive)
REMARK    1  A    between atoms: O_2  and  C_19
REMARK    2  A    between atoms: O_4  and  C_21
REMARK    3  A    between atoms: O_5  and  C_22
REMARK    4  A    between atoms: N_8  and  C_20
REMARK    5  A    between atoms: N_9  and  C_27
REMARK    6  A    between atoms: C_11  and  C_16
REMARK    7  A    between atoms: C_11  and  C_17
REMARK    8  A    between atoms: C_16  and  C_18
REMARK    9  A    between atoms: C_17  and  C_19
REMARK   10  A    between atoms: C_25  and  C_26
REMARK   11  A    between atoms: C_27  and  C_28
REMARK   12  A    between atoms: C_27  and  C_29
REMARK   13  A    between atoms: C_28  and  C_30
REMARK                            x       y       z     vdW  Elec       q    Type
REMARK                         _______ _______ _______ _____ _____    ______ ____
ROOT
ATOM     20  C   UNL     1      -3.751  -0.999  25.490  0.00  0.00    +0.127 C 
ATOM     21  C   UNL     1      -4.264  -2.217  24.699  0.00  0.00    +0.167 C 
ATOM     22  C   UNL     1      -3.281  -3.392  24.775  0.00  0.00    +0.149 C 
ATOM     23  C   UNL     1      -2.290  -0.715  25.263  0.00  0.00    +0.006 C 
ATOM     24  C   UNL     1      -1.873  -3.000  24.295  0.00  0.00    +0.074 C 
ATOM     25  C   UNL     1      -1.462  -1.619  24.719  0.00  0.00    +0.015 C 
ENDROOT
BRANCH  20   8
ATOM      1  O   UNL     1      -3.477   0.706  23.168  0.00  0.00    -0.276 OA
ATOM      8  N   UNL     1      -4.509   0.191  25.186  0.00  0.00    -0.306 N 
ATOM     18  C   UNL     1      -4.306   0.949  24.041  0.00  0.00    +0.214 C 
ATOM     36  H   UNL     1      -5.183   0.510  25.877  0.00  0.00    +0.149 HD
BRANCH  18  16
ATOM     16  C   UNL     1      -5.247   2.139  23.984  0.00  0.00    +0.103 C 
BRANCH  16  11
ATOM     11  C   UNL     1      -4.689   3.365  24.708  0.00  0.00    -0.011 C 
ATOM     12  C   UNL     1      -5.810   4.237  25.290  0.00  0.00    +0.008 C 
ATOM     13  C   UNL     1      -3.914   2.971  25.973  0.00  0.00    +0.008 C 
ATOM     14  C   UNL     1      -5.152   5.029  26.418  0.00  0.00    +0.001 C 
ATOM     15  C   UNL     1      -3.934   4.216  26.856  0.00  0.00    +0.001 C 
BRANCH  11  17
ATOM     17  C   UNL     1      -3.805   4.168  23.739  0.00  0.00    +0.127 C 
BRANCH  17  19
ATOM      3  O   UNL     1      -4.358   3.403  21.492  0.00  0.00    -0.251 OA
ATOM     19  C   UNL     1      -3.600   3.429  22.449  0.00  0.00    +0.305 C 
BRANCH  19   2
ATOM      2  O   UNL     1      -2.413   2.771  22.490  0.00  0.00    -0.481 OA
ATOM     37  H   UNL     1      -1.679   3.357  22.770  0.00  0.00    +0.295 HD
ENDBRANCH  19   2
ENDBRANCH  17  19
ENDBRANCH  11  17
ENDBRANCH  16  11
ENDBRANCH  18  16
ENDBRANCH  20   8
BRANCH  25  26
ATOM      6  O   UNL     1       0.843  -1.855  25.110  0.00  0.00    -0.271 OA
ATOM      9  N   UNL     1       0.104  -0.138  23.717  0.00  0.00    -0.300 N 
ATOM     26  C   UNL     1      -0.058  -1.233  24.548  0.00  0.00    +0.241 C 
ATOM     40  H   UNL     1      -0.710   0.256  23.252  0.00  0.00    +0.150 HD
BRANCH   9  27
ATOM     27  C   UNL     1       1.395   0.428  23.400  0.00  0.00    +0.163 C 
BRANCH  27  29
ATOM      7  O   UNL     1       1.095  -0.831  21.343  0.00  0.00    -0.274 OA
ATOM     10  N   UNL     1       3.135   0.147  21.745  0.00  0.00    -0.328 N 
ATOM     29  C   UNL     1       1.833  -0.171  22.071  0.00  0.00    +0.231 C 
ATOM     41  H   UNL     1       3.725   0.714  22.345  0.00  0.00    +0.145 HD
ATOM     42  H   UNL     1       3.548  -0.179  20.877  0.00  0.00    +0.145 HD
ENDBRANCH  27  29
BRANCH  27  28
ATOM     28  C   UNL     1       1.351   1.958  23.306  0.00  0.00    +0.067 C 
BRANCH  28  30
ATOM     30  C   UNL     1       0.495   2.584  24.381  0.00  0.00    -0.045 A 
ATOM     31  C   UNL     1      -0.104   3.824  24.159  0.00  0.00    +0.004 A 
ATOM     32  C   UNL     1       0.303   1.922  25.593  0.00  0.00    +0.004 A 
ATOM     33  C   UNL     1      -0.895   4.403  25.152  0.00  0.00    +0.000 A 
ATOM     34  C   UNL     1      -0.489   2.501  26.586  0.00  0.00    +0.000 A 
ATOM     35  C   UNL     1      -1.087   3.741  26.365  0.00  0.00    +0.000 A 
ENDBRANCH  28  30
ENDBRANCH  27  28
ENDBRANCH   9  27
ENDBRANCH  25  26
BRANCH  21   4
ATOM      4  O   UNL     1      -4.445  -1.858  23.328  0.00  0.00    -0.387 OA
ATOM     38  H   UNL     1      -4.921  -2.587  22.895  0.00  0.00    +0.210 HD
ENDBRANCH  21   4
BRANCH  22   5
ATOM      5  O   UNL     1      -3.221  -3.896  26.108  0.00  0.00    -0.389 OA
ATOM     39  H   UNL     1      -3.878  -4.610  26.183  0.00  0.00    +0.210 HD
ENDBRANCH  22   5
TORSDOF 13
ENDMDL
MODEL 8
REMARK VINA RESULT:       2.9      2.263      6.130
REMARK  Name = 7050120
REMARK  13 active torsions:
REMARK  status: ('A' for Active; 'I' for Inactive)
REMARK    1  A    between atoms: O_2  and  C_19
REMARK    2  A    between atoms: O_4  and  C_21
REMARK    3  A    between atoms: O_5  and  C_22
REMARK    4  A    between atoms: N_8  and  C_20
REMARK    5  A    between atoms: N_9  and  C_27
REMARK    6  A    between atoms: C_11  and  C_16
REMARK    7  A    between atoms: C_11  and  C_17
REMARK    8  A    between atoms: C_16  and  C_18
REMARK    9  A    between atoms: C_17  and  C_19
REMARK   10  A    between atoms: C_25  and  C_26
REMARK   11  A    between atoms: C_27  and  C_28
REMARK   12  A    between atoms: C_27  and  C_29
REMARK   13  A    between atoms: C_28  and  C_30
REMARK                            x       y       z     vdW  Elec       q    Type
REMARK                         _______ _______ _______ _____ _____    ______ ____
ROOT
ATOM     20  C   UNL     1       0.847  -0.631  23.985  0.00  0.00    +0.127 C 
ATOM     21  C   UNL     1       1.553  -0.290  22.659  0.00  0.00    +0.167 C 
ATOM     22  C   UNL     1       2.409   0.976  22.787  0.00  0.00    +0.149 C 
ATOM     23  C   UNL     1       0.238   0.569  24.661  0.00  0.00    +0.006 C 
ATOM     24  C   UNL     1       1.589   2.181  23.280  0.00  0.00    +0.074 C 
ATOM     25  C   UNL     1       0.575   1.824  24.328  0.00  0.00    +0.015 C 
ENDROOT
BRANCH  20   8
ATOM      1  O   UNL     1       0.140  -2.770  25.802  0.00  0.00    -0.276 OA
ATOM      8  N   UNL     1      -0.178  -1.630  23.800  0.00  0.00    -0.306 N 
ATOM     18  C   UNL     1      -0.447  -2.624  24.733  0.00  0.00    +0.214 C 
ATOM     36  H   UNL     1      -0.683  -1.630  22.918  0.00  0.00    +0.149 HD
BRANCH  18  16
ATOM     16  C   UNL     1      -1.576  -3.529  24.275  0.00  0.00    +0.103 C 
BRANCH  16  11
ATOM     11  C   UNL     1      -2.951  -2.875  24.420  0.00  0.00    -0.011 C 
ATOM     12  C   UNL     1      -3.031  -1.550  23.649  0.00  0.00    +0.008 C 
ATOM     13  C   UNL     1      -4.046  -3.702  23.733  0.00  0.00    +0.008 C 
ATOM     14  C   UNL     1      -4.521  -1.330  23.394  0.00  0.00    +0.001 C 
ATOM     15  C   UNL     1      -5.173  -2.711  23.449  0.00  0.00    +0.001 C 
BRANCH  11  17
ATOM     17  C   UNL     1      -3.259  -2.671  25.913  0.00  0.00    +0.127 C 
BRANCH  17  19
ATOM      3  O   UNL     1      -4.065  -0.417  26.379  0.00  0.00    -0.251 OA
ATOM     19  C   UNL     1      -3.151  -1.225  26.300  0.00  0.00    +0.305 C 
BRANCH  19   2
ATOM      2  O   UNL     1      -1.854  -0.924  26.560  0.00  0.00    -0.481 OA
ATOM     37  H   UNL     1      -1.255  -1.669  26.343  0.00  0.00    +0.295 HD
ENDBRANCH  19   2
ENDBRANCH  17  19
ENDBRANCH  11  17
ENDBRANCH  16  11
ENDBRANCH  18  16
ENDBRANCH  20   8
BRANCH  25  26
ATOM      6  O   UNL     1       0.437   3.408  26.059  0.00  0.00    -0.271 OA
ATOM      9  N   UNL     1      -1.287   3.292  24.494  0.00  0.00    -0.300 N 
ATOM     26  C   UNL     1      -0.080   2.915  25.056  0.00  0.00    +0.241 C 
ATOM     40  H   UNL     1      -1.585   2.859  23.623  0.00  0.00    +0.150 HD
BRANCH   9  27
ATOM     27  C   UNL     1      -2.116   4.344  25.035  0.00  0.00    +0.163 C 
BRANCH  27  29
ATOM      7  O   UNL     1      -1.737   6.727  25.316  0.00  0.00    -0.274 OA
ATOM     10  N   UNL     1      -0.126   5.477  24.257  0.00  0.00    -0.328 N 
ATOM     29  C   UNL     1      -1.343   5.647  24.885  0.00  0.00    +0.231 C 
ATOM     41  H   UNL     1       0.196   4.572  23.928  0.00  0.00    +0.145 HD
ATOM     42  H   UNL     1       0.495   6.264  24.105  0.00  0.00    +0.145 HD
ENDBRANCH  27  29
BRANCH  27  28
ATOM     28  C   UNL     1      -3.469   4.442  24.321  0.00  0.00    +0.067 C 
BRANCH  28  30
ATOM     30  C   UNL     1      -4.467   3.424  24.818  0.00  0.00    -0.045 A 
ATOM     31  C   UNL     1      -4.718   2.273  24.072  0.00  0.00    +0.004 A 
ATOM     32  C   UNL     1      -5.136   3.635  26.024  0.00  0.00    +0.004 A 
ATOM     33  C   UNL     1      -5.640   1.332  24.531  0.00  0.00    +0.000 A 
ATOM     34  C   UNL     1      -6.058   2.693  26.483  0.00  0.00    +0.000 A 
ATOM     35  C   UNL     1      -6.309   1.543  25.737  0.00  0.00    +0.000 A 
ENDBRANCH  28  30
ENDBRANCH  27  28
ENDBRANCH   9  27
ENDBRANCH  25  26
BRANCH  21   4
ATOM      4  O   UNL     1       0.578  -0.083  21.635  0.00  0.00    -0.387 OA
ATOM     38  H   UNL     1       0.626   0.851  21.370  0.00  0.00    +0.210 HD
ENDBRANCH  21   4
BRANCH  22   5
ATOM      5  O   UNL     1       3.507   0.739  23.666  0.00  0.00    -0.389 OA
ATOM     39  H   UNL     1       3.273   1.106  24.535  0.00  0.00    +0.210 HD
ENDBRANCH  22   5
TORSDOF 13
ENDMDL
MODEL 9
REMARK VINA RESULT:       3.3      2.036      5.658
REMARK  Name = 7050120
REMARK  13 active torsions:
REMARK  status: ('A' for Active; 'I' for Inactive)
REMARK    1  A    between atoms: O_2  and  C_19
REMARK    2  A    between atoms: O_4  and  C_21
REMARK    3  A    between atoms: O_5  and  C_22
REMARK    4  A    between atoms: N_8  and  C_20
REMARK    5  A    between atoms: N_9  and  C_27
REMARK    6  A    between atoms: C_11  and  C_16
REMARK    7  A    between atoms: C_11  and  C_17
REMARK    8  A    between atoms: C_16  and  C_18
REMARK    9  A    between atoms: C_17  and  C_19
REMARK   10  A    between atoms: C_25  and  C_26
REMARK   11  A    between atoms: C_27  and  C_28
REMARK   12  A    between atoms: C_27  and  C_29
REMARK   13  A    between atoms: C_28  and  C_30
REMARK                            x       y       z     vdW  Elec       q    Type
REMARK                         _______ _______ _______ _____ _____    ______ ____
ROOT
ATOM     20  C   UNL     1      -5.528   2.525  24.606  0.00  0.00    +0.127 C 
ATOM     21  C   UNL     1      -6.345   2.953  25.840  0.00  0.00    +0.167 C 
ATOM     22  C   UNL     1      -6.124   4.433  26.175  0.00  0.00    +0.149 C 
ATOM     23  C   UNL     1      -4.115   3.044  24.619  0.00  0.00    +0.006 C 
ATOM     24  C   UNL     1      -4.636   4.764  26.381  0.00  0.00    +0.074 C 
ATOM     25  C   UNL     1      -3.727   4.043  25.426  0.00  0.00    +0.015 C 
ENDROOT
BRANCH  20   8
ATOM      1  O   UNL     1      -3.561   0.954  23.178  0.00  0.00    -0.276 OA
ATOM      8  N   UNL     1      -5.495   1.089  24.461  0.00  0.00    -0.306 N 
ATOM     18  C   UNL     1      -4.506   0.420  23.753  0.00  0.00    +0.214 C 
ATOM     36  H   UNL     1      -6.268   0.558  24.854  0.00  0.00    +0.149 HD
BRANCH  18  16
ATOM     16  C   UNL     1      -4.724  -1.082  23.772  0.00  0.00    +0.103 C 
BRANCH  16  11
ATOM     11  C   UNL     1      -3.590  -1.833  24.472  0.00  0.00    -0.011 C 
ATOM     12  C   UNL     1      -3.735  -3.352  24.313  0.00  0.00    +0.008 C 
ATOM     13  C   UNL     1      -2.239  -1.576  23.792  0.00  0.00    +0.008 C 
ATOM     14  C   UNL     1      -2.327  -3.908  24.514  0.00  0.00    +0.001 C 
ATOM     15  C   UNL     1      -1.366  -2.768  24.181  0.00  0.00    +0.001 C 
BRANCH  11  17
ATOM     17  C   UNL     1      -3.555  -1.428  25.955  0.00  0.00    +0.127 C 
BRANCH  17  19
ATOM      3  O   UNL     1      -1.315  -0.939  26.784  0.00  0.00    -0.251 OA
ATOM     19  C   UNL     1      -2.358  -0.577  26.260  0.00  0.00    +0.305 C 
BRANCH  19   2
ATOM      2  O   UNL     1      -2.598   0.698  25.862  0.00  0.00    -0.481 OA
ATOM     37  H   UNL     1      -1.876   1.307  26.128  0.00  0.00    +0.295 HD
ENDBRANCH  19   2
ENDBRANCH  17  19
ENDBRANCH  11  17
ENDBRANCH  16  11
ENDBRANCH  18  16
ENDBRANCH  20   8
BRANCH  25  26
ATOM      6  O   UNL     1      -2.030   5.618  25.024  0.00  0.00    -0.271 OA
ATOM      9  N   UNL     1      -1.437   3.460  25.678  0.00  0.00    -0.300 N 
ATOM     26  C   UNL     1      -2.327   4.469  25.351  0.00  0.00    +0.241 C 
ATOM     40  H   UNL     1      -1.798   2.565  25.999  0.00  0.00    +0.150 HD
BRANCH   9  27
ATOM     27  C   UNL     1      -0.004   3.639  25.673  0.00  0.00    +0.163 C 
BRANCH  27  29
ATOM      7  O   UNL     1       1.518   2.703  27.320  0.00  0.00    -0.274 OA
ATOM     10  N   UNL     1      -0.063   1.327  26.379  0.00  0.00    -0.328 N 
ATOM     29  C   UNL     1       0.589   2.533  26.535  0.00  0.00    +0.231 C 
ATOM     41  H   UNL     1      -0.845   1.208  25.744  0.00  0.00    +0.145 HD
ATOM     42  H   UNL     1       0.224   0.509  26.907  0.00  0.00    +0.145 HD
ENDBRANCH  27  29
BRANCH  27  28
ATOM     28  C   UNL     1       0.584   3.584  24.258  0.00  0.00    +0.067 C 
BRANCH  28  30
ATOM     30  C   UNL     1       0.768   2.172  23.757  0.00  0.00    -0.045 A 
ATOM     31  C   UNL     1      -0.346   1.375  23.496  0.00  0.00    +0.004 A 
ATOM     32  C   UNL     1       2.052   1.667  23.554  0.00  0.00    +0.004 A 
ATOM     33  C   UNL     1      -0.176   0.070  23.032  0.00  0.00    +0.000 A 
ATOM     34  C   UNL     1       2.222   0.361  23.091  0.00  0.00    +0.000 A 
ATOM     35  C   UNL     1       1.108  -0.436  22.830  0.00  0.00    +0.000 A 
ENDBRANCH  28  30
ENDBRANCH  27  28
ENDBRANCH   9  27
ENDBRANCH  25  26
BRANCH  21   4
ATOM      4  O   UNL     1      -5.960   2.164  26.968  0.00  0.00    -0.387 OA
ATOM     38  H   UNL     1      -6.389   2.547  27.752  0.00  0.00    +0.210 HD
ENDBRANCH  21   4
BRANCH  22   5
ATOM      5  O   UNL     1      -6.671   5.256  25.147  0.00  0.00    -0.389 OA
ATOM     39  H   UNL     1      -6.525   6.183  25.403  0.00  0.00    +0.210 HD
ENDBRANCH  22   5
TORSDOF 13
ENDMDL
MODEL 10
REMARK VINA RESULT:       3.3      2.028      7.602
REMARK  Name = 7050120
REMARK  13 active torsions:
REMARK  status: ('A' for Active; 'I' for Inactive)
REMARK    1  A    between atoms: O_2  and  C_19
REMARK    2  A    between atoms: O_4  and  C_21
REMARK    3  A    between atoms: O_5  and  C_22
REMARK    4  A    between atoms: N_8  and  C_20
REMARK    5  A    between atoms: N_9  and  C_27
REMARK    6  A    between atoms: C_11  and  C_16
REMARK    7  A    between atoms: C_11  and  C_17
REMARK    8  A    between atoms: C_16  and  C_18
REMARK    9  A    between atoms: C_17  and  C_19
REMARK   10  A    between atoms: C_25  and  C_26
REMARK   11  A    between atoms: C_27  and  C_28
REMARK   12  A    between atoms: C_27  and  C_29
REMARK   13  A    between atoms: C_28  and  C_30
REMARK                            x       y       z     vdW  Elec       q    Type
REMARK                         _______ _______ _______ _____ _____    ______ ____
ROOT
ATOM     20  C   UNL     1       0.125   2.948  25.160  0.00  0.00    +0.127 C 
ATOM     21  C   UNL     1       0.188   3.978  24.016  0.00  0.00    +0.167 C 
ATOM     22  C   UNL     1      -0.820   5.114  24.225  0.00  0.00    +0.149 C 
ATOM     23  C   UNL     1      -1.281   2.582  25.554  0.00  0.00    +0.006 C 
ATOM     24  C   UNL     1      -2.257   4.589  24.391  0.00  0.00    +0.074 C 
ATOM     25  C   UNL     1      -2.340   3.323  25.195  0.00  0.00    +0.015 C 
ENDROOT
BRANCH  20   8
ATOM      1  O   UNL     1      -0.723   0.836  23.372  0.00  0.00    -0.276 OA
ATOM      8  N   UNL     1       0.845   1.742  24.830  0.00  0.00    -0.306 N 
ATOM     18  C   UNL     1       0.355   0.779  23.957  0.00  0.00    +0.214 C 
ATOM     36  H   UNL     1       1.726   1.573  25.308  0.00  0.00    +0.149 HD
BRANCH  18  16
ATOM     16  C   UNL     1       1.326  -0.377  23.798  0.00  0.00    +0.103 C 
BRANCH  16  11
ATOM     11  C   UNL     1       2.567   0.004  22.988  0.00  0.00    -0.011 C 
ATOM     12  C   UNL     1       2.947   1.476  23.195  0.00  0.00    +0.008 C 
ATOM     13  C   UNL     1       3.820  -0.716  23.505  0.00  0.00    +0.008 C 
ATOM     14  C   UNL     1       4.431   1.556  22.845  0.00  0.00    +0.001 C 
ATOM     15  C   UNL     1       4.992   0.148  23.043  0.00  0.00    +0.001 C 
BRANCH  11  17
ATOM     17  C   UNL     1       2.317  -0.306  21.503  0.00  0.00    +0.127 C 
BRANCH  17  19
ATOM      3  O   UNL     1       0.372  -1.657  22.081  0.00  0.00    -0.251 OA
ATOM     19  C   UNL     1       0.973  -0.939  21.295  0.00  0.00    +0.305 C 
BRANCH  19   2
ATOM      2  O   UNL     1       0.496  -0.595  20.072  0.00  0.00    -0.481 OA
ATOM     37  H   UNL     1       0.725   0.329  19.838  0.00  0.00    +0.295 HD
ENDBRANCH  19   2
ENDBRANCH  17  19
ENDBRANCH  11  17
ENDBRANCH  16  11
ENDBRANCH  18  16
ENDBRANCH  20   8
BRANCH  25  26
ATOM      6  O   UNL     1      -4.428   3.635  26.226  0.00  0.00    -0.271 OA
ATOM      9  N   UNL     1      -3.915   1.548  25.325  0.00  0.00    -0.300 N 
ATOM     26  C   UNL     1      -3.663   2.872  25.639  0.00  0.00    +0.241 C 
ATOM     40  H   UNL     1      -3.233   1.030  24.776  0.00  0.00    +0.150 HD
BRANCH   9  27
ATOM     27  C   UNL     1      -5.150   0.878  25.662  0.00  0.00    +0.163 C 
BRANCH  27  29
ATOM      7  O   UNL     1      -6.702   2.194  24.334  0.00  0.00    -0.274 OA
ATOM     10  N   UNL     1      -6.805   2.355  26.624  0.00  0.00    -0.328 N 
ATOM     29  C   UNL     1      -6.277   1.878  25.442  0.00  0.00    +0.231 C 
ATOM     41  H   UNL     1      -6.459   2.065  27.533  0.00  0.00    +0.145 HD
ATOM     42  H   UNL     1      -7.572   3.019  26.620  0.00  0.00    +0.145 HD
ENDBRANCH  27  29
BRANCH  27  28
ATOM     28  C   UNL     1      -5.379  -0.378  24.813  0.00  0.00    +0.067 C 
BRANCH  28  30
ATOM     30  C   UNL     1      -4.147  -1.244  24.707  0.00  0.00    -0.045 A 
ATOM     31  C   UNL     1      -4.146  -2.354  23.863  0.00  0.00    +0.004 A 
ATOM     32  C   UNL     1      -3.010  -0.932  25.453  0.00  0.00    +0.004 A 
ATOM     33  C   UNL     1      -3.007  -3.155  23.765  0.00  0.00    +0.000 A 
ATOM     34  C   UNL     1      -1.871  -1.733  25.354  0.00  0.00    +0.000 A 
ATOM     35  C   UNL     1      -1.870  -2.843  24.510  0.00  0.00    +0.000 A 
ENDBRANCH  28  30
ENDBRANCH  27  28
ENDBRANCH   9  27
ENDBRANCH  25  26
BRANCH  21   4
ATOM      4  O   UNL     1      -0.098   3.333  22.773  0.00  0.00    -0.387 OA
ATOM     38  H   UNL     1      -0.359   2.418  22.972  0.00  0.00    +0.210 HD
ENDBRANCH  21   4
BRANCH  22   5
ATOM      5  O   UNL     1      -0.451   5.895  25.360  0.00  0.00    -0.389 OA
ATOM     39  H   UNL     1      -1.259   6.306  25.711  0.00  0.00    +0.210 HD
ENDBRANCH  22   5
TORSDOF 13
ENDMDL
