MODEL 1
REMARK VINA RESULT:      -4.3      0.000      0.000
REMARK  Name = 38028183
REMARK  9 active torsions:
REMARK  status: ('A' for Active; 'I' for Inactive)
REMARK    1  A    between atoms: N_4  and  C_13
REMARK    2  A    between atoms: C_6  and  C_10
REMARK    3  A    between atoms: C_7  and  C_13
REMARK    4  A    between atoms: C_9  and  C_14
REMARK    5  A    between atoms: C_10  and  C_15
REMARK    6  A    between atoms: C_10  and  C_16
REMARK    7  A    between atoms: C_11  and  C_17
REMARK    8  A    between atoms: C_14  and  C_18
REMARK    9  A    between atoms: C_21  and  C_24
REMARK                            x       y       z     vdW  Elec       q    Type
REMARK                         _______ _______ _______ _____ _____    ______ ____
ROOT
ATOM      6  C   UNL     1      -1.620   0.412  24.987  0.00  0.00    +0.000 C 
ATOM      7  C   UNL     1      -0.976  -0.889  24.446  0.00  0.00    +0.032 C 
ATOM      8  C   UNL     1      -2.772   0.081  25.949  0.00  0.00    +0.012 C 
ATOM      9  C   UNL     1      -3.869  -0.764  25.275  0.00  0.00    +0.023 C 
ATOM     11  C   UNL     1      -3.287  -1.924  24.492  0.00  0.00    -0.073 C 
ATOM     12  C   UNL     1      -1.988  -1.968  24.143  0.00  0.00    -0.022 C 
ATOM     17  C   UNL     1      -4.221  -3.053  24.159  0.00  0.00    +0.039 C 
ENDROOT
BRANCH   6  10
ATOM     10  C   UNL     1      -0.594   1.303  25.693  0.00  0.00    -0.013 C 
ATOM     15  C   UNL     1       0.247   2.060  24.670  0.00  0.00    +0.007 C 
ATOM     16  C   UNL     1      -1.295   2.273  26.639  0.00  0.00    +0.007 C 
ENDBRANCH   6  10
BRANCH   7  13
ATOM     13  C   UNL     1      -0.134  -0.612  23.195  0.00  0.00    +0.112 C 
BRANCH  13   4
ATOM      3  O   UNL     1       2.041  -0.173  21.373  0.00  0.00    -0.270 OA
ATOM      4  N   UNL     1       1.253  -0.526  23.528  0.00  0.00    -0.311 N 
ATOM     21  C   UNL     1       2.250  -0.309  22.576  0.00  0.00    +0.244 C 
ATOM     30  H   UNL     1       1.495  -0.538  24.514  0.00  0.00    +0.149 HD
BRANCH  21  24
ATOM     24  C   UNL     1       3.646  -0.273  23.080  0.00  0.00    +0.037 A 
ATOM     25  C   UNL     1       4.402   0.894  22.954  0.00  0.00    +0.013 A 
ATOM     26  C   UNL     1       4.203  -1.401  23.680  0.00  0.00    +0.013 A 
ATOM     27  C   UNL     1       5.712   0.930  23.429  0.00  0.00    +0.001 A 
ATOM     28  C   UNL     1       5.514  -1.365  24.155  0.00  0.00    +0.001 A 
ATOM     29  C   UNL     1       6.269  -0.199  24.029  0.00  0.00    +0.000 A 
ENDBRANCH  21  24
ENDBRANCH  13   4
ENDBRANCH   7  13
BRANCH   9  14
ATOM     14  C   UNL     1      -4.765   0.104  24.385  0.00  0.00    +0.103 C 
BRANCH  14  18
ATOM      1  O   UNL     1      -6.034   1.170  26.080  0.00  0.00    -0.276 OA
ATOM      2  O   UNL     1      -3.172   4.893  24.531  0.00  0.00    -0.377 OA
ATOM      5  N   UNL     1      -4.710   2.543  24.758  0.00  0.00    -0.297 N 
ATOM     18  C   UNL     1      -5.234   1.314  25.154  0.00  0.00    +0.216 C 
ATOM     19  C   UNL     1      -5.107   3.767  25.454  0.00  0.00    +0.136 C 
ATOM     20  C   UNL     1      -3.857   2.767  23.585  0.00  0.00    +0.136 C 
ATOM     22  C   UNL     1      -3.889   4.633  25.741  0.00  0.00    +0.179 C 
ATOM     23  C   UNL     1      -2.692   3.680  23.947  0.00  0.00    +0.179 C 
ENDBRANCH  14  18
ENDBRANCH   9  14
TORSDOF 6
ENDMDL
