MODEL 1
REMARK VINA RESULT:      -4.3      0.000      0.000
REMARK  Name = 45783357
REMARK  9 active torsions:
REMARK  status: ('A' for Active; 'I' for Inactive)
REMARK    1  A    between atoms: O_2  and  C_24
REMARK    2  A    between atoms: O_2  and  C_26
REMARK    3  A    between atoms: O_3  and  C_27
REMARK    4  A    between atoms: O_3  and  C_28
REMARK    5  A    between atoms: N_4  and  C_13
REMARK    6  A    between atoms: C_9  and  C_14
REMARK    7  A    between atoms: C_13  and  C_15
REMARK    8  A    between atoms: C_16  and  C_19
REMARK    9  A    between atoms: C_26  and  C_27
REMARK                            x       y       z     vdW  Elec       q    Type
REMARK                         _______ _______ _______ _____ _____    ______ ____
ROOT
ATOM      1  O   UNL     1      -1.981   2.642  25.424  0.00  0.00    -0.336 OA
ATOM      5  N   UNL     1      -2.003   1.589  23.447  0.00  0.00    -0.190 NA
ATOM      6  N   UNL     1      -0.666   2.223  25.192  0.00  0.00    -0.056 NA
ATOM     14  C   UNL     1      -2.704   2.228  24.349  0.00  0.00    +0.245 A 
ATOM     16  C   UNL     1      -0.759   1.610  24.008  0.00  0.00    +0.202 A 
ENDROOT
BRANCH  16  19
ATOM      8  N   UNL     1       2.571  -0.163  22.095  0.00  0.00    -0.221 NA
ATOM     19  C   UNL     1       0.370   1.009  23.359  0.00  0.00    +0.029 A 
ATOM     22  C   UNL     1       1.643   1.539  23.540  0.00  0.00    +0.079 A 
ATOM     23  C   UNL     1       0.196  -0.107  22.548  0.00  0.00    +0.031 A 
ATOM     24  C   UNL     1       2.700   0.922  22.891  0.00  0.00    +0.215 A 
ATOM     25  C   UNL     1       1.318  -0.650  21.944  0.00  0.00    +0.115 A 
BRANCH  24   2
ATOM      2  O   UNL     1       3.965   1.424  23.053  0.00  0.00    -0.474 OA
BRANCH   2  26
ATOM     26  C   UNL     1       5.041   0.501  22.936  0.00  0.00    +0.258 C 
BRANCH  26  27
ATOM     27  C   UNL     1       5.745   0.390  24.274  0.00  0.00    +0.200 C 
BRANCH  27   3
ATOM      3  O   UNL     1       5.684  -0.960  24.720  0.00  0.00    -0.380 OA
ATOM     28  C   UNL     1       4.756  -1.718  23.958  0.00  0.00    +0.194 C 
ENDBRANCH  27   3
ENDBRANCH  26  27
ENDBRANCH   2  26
ENDBRANCH  24   2
ENDBRANCH  16  19
BRANCH  14   9
ATOM      4  N   UNL     1      -4.956   1.687  25.259  0.00  0.00    -0.287 NA
ATOM      9  C   UNL     1      -4.180   2.565  24.359  0.00  0.00    +0.146 C 
ATOM     10  C   UNL     1      -4.461   3.992  24.866  0.00  0.00    +0.030 C 
ATOM     11  C   UNL     1      -5.451   3.819  26.010  0.00  0.00    +0.017 C 
ATOM     12  C   UNL     1      -6.095   2.478  25.725  0.00  0.00    +0.085 C 
BRANCH   4  13
ATOM     13  C   UNL     1      -5.375   0.442  24.627  0.00  0.00    +0.121 C 
BRANCH  13  15
ATOM      7  N   UNL     1      -2.369  -1.487  25.884  0.00  0.00    -0.263 NA
ATOM     15  C   UNL     1      -4.320  -0.627  24.744  0.00  0.00    -0.015 A 
ATOM     17  C   UNL     1      -4.294  -1.706  23.869  0.00  0.00    +0.008 A 
ATOM     18  C   UNL     1      -3.344  -0.563  25.726  0.00  0.00    +0.115 A 
ATOM     20  C   UNL     1      -3.306  -2.677  23.999  0.00  0.00    +0.020 A 
ATOM     21  C   UNL     1      -2.376  -2.521  25.013  0.00  0.00    +0.111 A 
ENDBRANCH  13  15
ENDBRANCH   4  13
ENDBRANCH  14   9
TORSDOF 8
ENDMDL
MODEL 2
REMARK VINA RESULT:      -1.9      1.648      3.488
REMARK  Name = 45783357
REMARK  9 active torsions:
REMARK  status: ('A' for Active; 'I' for Inactive)
REMARK    1  A    between atoms: O_2  and  C_24
REMARK    2  A    between atoms: O_2  and  C_26
REMARK    3  A    between atoms: O_3  and  C_27
REMARK    4  A    between atoms: O_3  and  C_28
REMARK    5  A    between atoms: N_4  and  C_13
REMARK    6  A    between atoms: C_9  and  C_14
REMARK    7  A    between atoms: C_13  and  C_15
REMARK    8  A    between atoms: C_16  and  C_19
REMARK    9  A    between atoms: C_26  and  C_27
REMARK                            x       y       z     vdW  Elec       q    Type
REMARK                         _______ _______ _______ _____ _____    ______ ____
ROOT
ATOM      1  O   UNL     1      -2.374  -0.761  25.850  0.00  0.00    -0.336 OA
ATOM      5  N   UNL     1      -2.035   0.753  24.235  0.00  0.00    -0.190 NA
ATOM      6  N   UNL     1      -1.155  -1.099  25.250  0.00  0.00    -0.056 NA
ATOM     14  C   UNL     1      -2.825   0.340  25.193  0.00  0.00    +0.245 A 
ATOM     16  C   UNL     1      -1.025  -0.161  24.307  0.00  0.00    +0.202 A 
ENDROOT
BRANCH  16  19
ATOM      8  N   UNL     1       2.300  -0.010  21.695  0.00  0.00    -0.221 NA
ATOM     19  C   UNL     1       0.103  -0.109  23.421  0.00  0.00    +0.029 A 
ATOM     22  C   UNL     1       1.230   0.628  23.768  0.00  0.00    +0.079 A 
ATOM     23  C   UNL     1       0.073  -0.798  22.214  0.00  0.00    +0.031 A 
ATOM     24  C   UNL     1       2.292   0.645  22.878  0.00  0.00    +0.215 A 
ATOM     25  C   UNL     1       1.187  -0.717  21.394  0.00  0.00    +0.115 A 
BRANCH  24   2
ATOM      2  O   UNL     1       3.414   1.365  23.195  0.00  0.00    -0.474 OA
BRANCH   2  26
ATOM     26  C   UNL     1       4.666   0.789  22.840  0.00  0.00    +0.258 C 
BRANCH  26  27
ATOM     27  C   UNL     1       5.420   0.428  24.104  0.00  0.00    +0.200 C 
BRANCH  27   3
ATOM      3  O   UNL     1       5.699  -0.967  24.096  0.00  0.00    -0.380 OA
ATOM     28  C   UNL     1       4.515  -1.733  23.929  0.00  0.00    +0.194 C 
ENDBRANCH  27   3
ENDBRANCH  26  27
ENDBRANCH   2  26
ENDBRANCH  24   2
ENDBRANCH  16  19
BRANCH  14   9
ATOM      4  N   UNL     1      -4.312   2.332  25.295  0.00  0.00    -0.287 NA
ATOM      9  C   UNL     1      -4.147   0.911  25.662  0.00  0.00    +0.146 C 
ATOM     10  C   UNL     1      -5.358   0.201  25.030  0.00  0.00    +0.030 C 
ATOM     11  C   UNL     1      -6.178   1.310  24.385  0.00  0.00    +0.017 C 
ATOM     12  C   UNL     1      -5.750   2.554  25.138  0.00  0.00    +0.085 C 
BRANCH   4  13
ATOM     13  C   UNL     1      -3.720   3.248  26.263  0.00  0.00    +0.121 C 
BRANCH  13  15
ATOM      7  N   UNL     1      -0.049   3.617  25.412  0.00  0.00    -0.263 NA
ATOM     15  C   UNL     1      -2.432   3.841  25.757  0.00  0.00    -0.015 A 
ATOM     17  C   UNL     1      -2.402   5.109  25.188  0.00  0.00    +0.008 A 
ATOM     18  C   UNL     1      -1.239   3.142  25.846  0.00  0.00    +0.115 A 
ATOM     20  C   UNL     1      -1.197   5.632  24.731  0.00  0.00    +0.020 A 
ATOM     21  C   UNL     1      -0.060   4.853  24.866  0.00  0.00    +0.111 A 
ENDBRANCH  13  15
ENDBRANCH   4  13
ENDBRANCH  14   9
TORSDOF 8
ENDMDL
MODEL 3
REMARK VINA RESULT:      -0.7      2.087      3.838
REMARK  Name = 45783357
REMARK  9 active torsions:
REMARK  status: ('A' for Active; 'I' for Inactive)
REMARK    1  A    between atoms: O_2  and  C_24
REMARK    2  A    between atoms: O_2  and  C_26
REMARK    3  A    between atoms: O_3  and  C_27
REMARK    4  A    between atoms: O_3  and  C_28
REMARK    5  A    between atoms: N_4  and  C_13
REMARK    6  A    between atoms: C_9  and  C_14
REMARK    7  A    between atoms: C_13  and  C_15
REMARK    8  A    between atoms: C_16  and  C_19
REMARK    9  A    between atoms: C_26  and  C_27
REMARK                            x       y       z     vdW  Elec       q    Type
REMARK                         _______ _______ _______ _____ _____    ______ ____
ROOT
ATOM      1  O   UNL     1      -4.673  -0.232  24.612  0.00  0.00    -0.336 OA
ATOM      5  N   UNL     1      -2.850   0.855  25.327  0.00  0.00    -0.190 NA
ATOM      6  N   UNL     1      -3.578  -1.005  24.209  0.00  0.00    -0.056 NA
ATOM     14  C   UNL     1      -4.157   0.844  25.263  0.00  0.00    +0.245 A 
ATOM     16  C   UNL     1      -2.539  -0.298  24.667  0.00  0.00    +0.202 A 
ENDROOT
BRANCH  16  19
ATOM      8  N   UNL     1       1.469  -1.534  24.120  0.00  0.00    -0.221 NA
ATOM     19  C   UNL     1      -1.180  -0.717  24.481  0.00  0.00    +0.029 A 
ATOM     22  C   UNL     1      -0.340  -0.007  23.630  0.00  0.00    +0.079 A 
ATOM     23  C   UNL     1      -0.696  -1.835  25.153  0.00  0.00    +0.031 A 
ATOM     24  C   UNL     1       0.964  -0.453  23.485  0.00  0.00    +0.215 A 
ATOM     25  C   UNL     1       0.623  -2.198  24.940  0.00  0.00    +0.115 A 
BRANCH  24   2
ATOM      2  O   UNL     1       1.811   0.229  22.652  0.00  0.00    -0.474 OA
BRANCH   2  26
ATOM     26  C   UNL     1       3.162  -0.215  22.610  0.00  0.00    +0.258 C 
BRANCH  26  27
ATOM     27  C   UNL     1       4.080   0.991  22.655  0.00  0.00    +0.200 C 
BRANCH  27   3
ATOM      3  O   UNL     1       4.979   0.851  23.749  0.00  0.00    -0.380 OA
ATOM     28  C   UNL     1       5.373  -0.502  23.928  0.00  0.00    +0.194 C 
ENDBRANCH  27   3
ENDBRANCH  26  27
ENDBRANCH   2  26
ENDBRANCH  24   2
ENDBRANCH  16  19
BRANCH  14   9
ATOM      4  N   UNL     1      -4.772   3.242  25.510  0.00  0.00    -0.287 NA
ATOM      9  C   UNL     1      -5.154   1.847  25.805  0.00  0.00    +0.146 C 
ATOM     10  C   UNL     1      -6.555   1.685  25.187  0.00  0.00    +0.030 C 
ATOM     11  C   UNL     1      -6.901   3.057  24.623  0.00  0.00    +0.017 C 
ATOM     12  C   UNL     1      -6.019   4.001  25.416  0.00  0.00    +0.085 C 
BRANCH   4  13
ATOM     13  C   UNL     1      -3.860   3.809  26.496  0.00  0.00    +0.121 C 
BRANCH  13  15
ATOM      7  N   UNL     1      -0.946   5.406  24.681  0.00  0.00    -0.263 NA
ATOM     15  C   UNL     1      -2.480   4.014  25.929  0.00  0.00    -0.015 A 
ATOM     17  C   UNL     1      -1.486   3.058  26.099  0.00  0.00    +0.008 A 
ATOM     18  C   UNL     1      -2.162   5.161  25.218  0.00  0.00    +0.115 A 
ATOM     20  C   UNL     1      -0.221   3.273  25.561  0.00  0.00    +0.020 A 
ATOM     21  C   UNL     1      -0.005   4.452  24.867  0.00  0.00    +0.111 A 
ENDBRANCH  13  15
ENDBRANCH   4  13
ENDBRANCH  14   9
TORSDOF 8
ENDMDL
MODEL 4
REMARK VINA RESULT:      -0.5      2.031      4.236
REMARK  Name = 45783357
REMARK  9 active torsions:
REMARK  status: ('A' for Active; 'I' for Inactive)
REMARK    1  A    between atoms: O_2  and  C_24
REMARK    2  A    between atoms: O_2  and  C_26
REMARK    3  A    between atoms: O_3  and  C_27
REMARK    4  A    between atoms: O_3  and  C_28
REMARK    5  A    between atoms: N_4  and  C_13
REMARK    6  A    between atoms: C_9  and  C_14
REMARK    7  A    between atoms: C_13  and  C_15
REMARK    8  A    between atoms: C_16  and  C_19
REMARK    9  A    between atoms: C_26  and  C_27
REMARK                            x       y       z     vdW  Elec       q    Type
REMARK                         _______ _______ _______ _____ _____    ______ ____
ROOT
ATOM      1  O   UNL     1      -5.769   0.975  25.041  0.00  0.00    -0.336 OA
ATOM      5  N   UNL     1      -3.580   1.185  25.464  0.00  0.00    -0.190 NA
ATOM      6  N   UNL     1      -5.167  -0.195  24.562  0.00  0.00    -0.056 NA
ATOM     14  C   UNL     1      -4.765   1.733  25.555  0.00  0.00    +0.245 A 
ATOM     16  C   UNL     1      -3.876   0.004  24.848  0.00  0.00    +0.202 A 
ENDROOT
BRANCH  16  19
ATOM      8  N   UNL     1      -0.878  -2.830  23.913  0.00  0.00    -0.221 NA
ATOM     19  C   UNL     1      -2.859  -0.956  24.531  0.00  0.00    +0.029 A 
ATOM     22  C   UNL     1      -1.546  -0.544  24.336  0.00  0.00    +0.079 A 
ATOM     23  C   UNL     1      -3.184  -2.304  24.419  0.00  0.00    +0.031 A 
ATOM     24  C   UNL     1      -0.602  -1.512  24.031  0.00  0.00    +0.215 A 
ATOM     25  C   UNL     1      -2.166  -3.192  24.112  0.00  0.00    +0.115 A 
BRANCH  24   2
ATOM      2  O   UNL     1       0.700  -1.132  23.833  0.00  0.00    -0.474 OA
BRANCH   2  26
ATOM     26  C   UNL     1       0.919  -0.020  22.974  0.00  0.00    +0.258 C 
BRANCH  26  27
ATOM     27  C   UNL     1       2.341  -0.073  22.449  0.00  0.00    +0.200 C 
BRANCH  27   3
ATOM      3  O   UNL     1       3.104   0.954  23.070  0.00  0.00    -0.380 OA
ATOM     28  C   UNL     1       4.492   0.651  23.059  0.00  0.00    +0.194 C 
ENDBRANCH  27   3
ENDBRANCH  26  27
ENDBRANCH   2  26
ENDBRANCH  24   2
ENDBRANCH  16  19
BRANCH  14   9
ATOM      4  N   UNL     1      -4.276   4.168  25.709  0.00  0.00    -0.287 NA
ATOM      9  C   UNL     1      -5.163   3.070  26.145  0.00  0.00    +0.146 C 
ATOM     10  C   UNL     1      -6.574   3.513  25.715  0.00  0.00    +0.030 C 
ATOM     11  C   UNL     1      -6.388   4.895  25.105  0.00  0.00    +0.017 C 
ATOM     12  C   UNL     1      -5.090   5.383  25.717  0.00  0.00    +0.085 C 
BRANCH   4  13
ATOM     13  C   UNL     1      -3.082   4.304  26.535  0.00  0.00    +0.121 C 
BRANCH  13  15
ATOM      7  N   UNL     1       0.037   2.287  25.804  0.00  0.00    -0.263 NA
ATOM     15  C   UNL     1      -1.854   3.793  25.829  0.00  0.00    -0.015 A 
ATOM     17  C   UNL     1      -1.461   4.318  24.604  0.00  0.00    +0.008 A 
ATOM     18  C   UNL     1      -1.077   2.788  26.383  0.00  0.00    +0.115 A 
ATOM     20  C   UNL     1      -0.320   3.829  23.977  0.00  0.00    +0.020 A 
ATOM     21  C   UNL     1       0.387   2.822  24.614  0.00  0.00    +0.111 A 
ENDBRANCH  13  15
ENDBRANCH   4  13
ENDBRANCH  14   9
TORSDOF 8
ENDMDL
