MODEL 1
REMARK VINA RESULT:       4.9      0.000      0.000
REMARK  Name = 45783621
REMARK  8 active torsions:
REMARK  status: ('A' for Active; 'I' for Inactive)
REMARK    1  A    between atoms: O_4  and  C_30
REMARK    2  A    between atoms: O_4  and  C_31
REMARK    3  A    between atoms: N_5  and  C_11
REMARK    4  A    between atoms: N_10  and  C_28
REMARK    5  A    between atoms: C_12  and  C_20
REMARK    6  A    between atoms: C_21  and  C_22
REMARK    7  A    between atoms: C_23  and  C_24
REMARK    8  A    between atoms: C_29  and  C_30
REMARK                            x       y       z     vdW  Elec       q    Type
REMARK                         _______ _______ _______ _____ _____    ______ ____
ROOT
ATOM      1  O   UNL     1      -1.931   3.486  24.503  0.00  0.00    -0.336 OA
ATOM      7  N   UNL     1      -1.576   1.444  23.654  0.00  0.00    -0.190 NA
ATOM      8  N   UNL     1      -0.543   3.360  24.359  0.00  0.00    -0.056 NA
ATOM     20  C   UNL     1      -2.463   2.315  24.066  0.00  0.00    +0.245 A 
ATOM     23  C   UNL     1      -0.413   2.130  23.853  0.00  0.00    +0.204 A 
ENDROOT
BRANCH  23  24
ATOM      9  N   UNL     1       3.235   1.864  23.186  0.00  0.00    -0.239 NA
ATOM     24  C   UNL     1       0.863   1.557  23.538  0.00  0.00    +0.041 A 
ATOM     25  C   UNL     1       0.994   0.196  23.282  0.00  0.00    +0.016 A 
ATOM     26  C   UNL     1       2.004   2.340  23.478  0.00  0.00    +0.124 A 
ATOM     27  C   UNL     1       2.244  -0.331  22.978  0.00  0.00    +0.044 A 
ATOM     28  C   UNL     1       3.323   0.537  22.943  0.00  0.00    +0.125 A 
BRANCH  28  10
ATOM      3  O   UNL     1       5.567  -0.336  24.748  0.00  0.00    -0.273 OA
ATOM     10  N   UNL     1       4.577  -0.005  22.636  0.00  0.00    -0.268 N 
ATOM     29  C   UNL     1       5.587  -0.395  23.522  0.00  0.00    +0.244 C 
ATOM     32  H   UNL     1       4.753  -0.119  21.640  0.00  0.00    +0.156 HD
BRANCH  29  30
ATOM     30  C   UNL     1       6.803  -0.929  22.797  0.00  0.00    +0.255 C 
BRANCH  30   4
ATOM      4  O   UNL     1       7.770   0.098  22.715  0.00  0.00    -0.374 OA
ATOM     31  C   UNL     1       9.074  -0.376  23.041  0.00  0.00    +0.194 C 
ENDBRANCH  30   4
ENDBRANCH  29  30
ENDBRANCH  28  10
ENDBRANCH  23  24
BRANCH  20  12
ATOM      5  N   UNL     1      -4.452   1.603  25.381  0.00  0.00    -0.288 NA
ATOM     12  C   UNL     1      -3.972   2.197  24.118  0.00  0.00    +0.146 C 
ATOM     13  C   UNL     1      -5.781   2.165  25.623  0.00  0.00    +0.085 C 
ATOM     14  C   UNL     1      -4.677   3.564  24.036  0.00  0.00    +0.030 C 
ATOM     17  C   UNL     1      -5.576   3.621  25.262  0.00  0.00    +0.017 C 
BRANCH   5  11
ATOM      2  O   UNL     1      -1.266  -3.654  25.243  0.00  0.00    -0.276 OA
ATOM      6  N   UNL     1      -3.157  -2.378  24.802  0.00  0.00    -0.302 N 
ATOM     11  C   UNL     1      -4.467   0.142  25.361  0.00  0.00    +0.060 C 
ATOM     15  C   UNL     1      -3.362  -0.409  26.271  0.00  0.00    +0.038 C 
ATOM     16  C   UNL     1      -4.284  -0.366  23.925  0.00  0.00    +0.038 C 
ATOM     18  C   UNL     1      -3.298  -1.933  26.190  0.00  0.00    +0.109 C 
ATOM     19  C   UNL     1      -4.200  -1.892  23.890  0.00  0.00    +0.109 C 
ATOM     21  C   UNL     1      -2.111  -3.230  24.450  0.00  0.00    +0.212 C 
ATOM     22  C   UNL     1      -2.033  -3.640  23.001  0.00  0.00    +0.109 C 
ENDBRANCH   5  11
ENDBRANCH  20  12
TORSDOF 6
ENDMDL
MODEL 2
REMARK VINA RESULT:       6.2      1.930      4.538
REMARK  Name = 45783621
REMARK  8 active torsions:
REMARK  status: ('A' for Active; 'I' for Inactive)
REMARK    1  A    between atoms: O_4  and  C_30
REMARK    2  A    between atoms: O_4  and  C_31
REMARK    3  A    between atoms: N_5  and  C_11
REMARK    4  A    between atoms: N_10  and  C_28
REMARK    5  A    between atoms: C_12  and  C_20
REMARK    6  A    between atoms: C_21  and  C_22
REMARK    7  A    between atoms: C_23  and  C_24
REMARK    8  A    between atoms: C_29  and  C_30
REMARK                            x       y       z     vdW  Elec       q    Type
REMARK                         _______ _______ _______ _____ _____    ______ ____
ROOT
ATOM      1  O   UNL     1      -0.629  -0.723  22.447  0.00  0.00    -0.336 OA
ATOM      7  N   UNL     1       0.558  -0.655  24.346  0.00  0.00    -0.190 NA
ATOM      8  N   UNL     1       0.701  -0.503  22.067  0.00  0.00    -0.056 NA
ATOM     20  C   UNL     1      -0.625  -0.800  23.804  0.00  0.00    +0.245 A 
ATOM     23  C   UNL     1       1.339  -0.476  23.241  0.00  0.00    +0.204 A 
ENDROOT
BRANCH  23  24
ATOM      9  N   UNL     1       4.924  -1.119  23.989  0.00  0.00    -0.239 NA
ATOM     24  C   UNL     1       2.754  -0.269  23.346  0.00  0.00    +0.041 A 
ATOM     25  C   UNL     1       3.336   0.925  22.934  0.00  0.00    +0.016 A 
ATOM     26  C   UNL     1       3.584  -1.250  23.862  0.00  0.00    +0.124 A 
ATOM     27  C   UNL     1       4.712   1.097  23.049  0.00  0.00    +0.044 A 
ATOM     28  C   UNL     1       5.454   0.054  23.579  0.00  0.00    +0.125 A 
BRANCH  28  10
ATOM      3  O   UNL     1       7.723  -1.258  22.101  0.00  0.00    -0.273 OA
ATOM     10  N   UNL     1       6.837   0.239  23.690  0.00  0.00    -0.268 N 
ATOM     29  C   UNL     1       7.852  -0.403  22.973  0.00  0.00    +0.244 C 
ATOM     32  H   UNL     1       7.115   0.928  24.385  0.00  0.00    +0.156 HD
BRANCH  29  30
ATOM     30  C   UNL     1       9.228   0.068  23.391  0.00  0.00    +0.255 C 
BRANCH  30   4
ATOM      4  O   UNL     1      10.072   0.066  22.258  0.00  0.00    -0.374 OA
ATOM     31  C   UNL     1      10.458   1.385  21.883  0.00  0.00    +0.194 C 
ENDBRANCH  30   4
ENDBRANCH  29  30
ENDBRANCH  28  10
ENDBRANCH  23  24
BRANCH  20  12
ATOM      5  N   UNL     1      -3.103  -0.703  23.594  0.00  0.00    -0.288 NA
ATOM     12  C   UNL     1      -1.964  -1.040  24.470  0.00  0.00    +0.146 C 
ATOM     13  C   UNL     1      -4.206  -1.577  23.994  0.00  0.00    +0.085 C 
ATOM     14  C   UNL     1      -2.184  -2.517  24.846  0.00  0.00    +0.030 C 
ATOM     17  C   UNL     1      -3.500  -2.903  24.187  0.00  0.00    +0.017 C 
BRANCH   5  11
ATOM      2  O   UNL     1      -1.634   5.020  25.298  0.00  0.00    -0.276 OA
ATOM      6  N   UNL     1      -3.168   3.345  24.810  0.00  0.00    -0.302 N 
ATOM     11  C   UNL     1      -3.473   0.710  23.649  0.00  0.00    +0.060 C 
ATOM     15  C   UNL     1      -2.251   1.586  23.345  0.00  0.00    +0.038 C 
ATOM     16  C   UNL     1      -4.047   1.050  25.031  0.00  0.00    +0.038 C 
ATOM     18  C   UNL     1      -2.593   3.068  23.492  0.00  0.00    +0.109 C 
ATOM     19  C   UNL     1      -4.352   2.544  25.145  0.00  0.00    +0.109 C 
ATOM     21  C   UNL     1      -2.609   4.334  25.618  0.00  0.00    +0.212 C 
ATOM     22  C   UNL     1      -3.257   4.556  26.961  0.00  0.00    +0.109 C 
ENDBRANCH   5  11
ENDBRANCH  20  12
TORSDOF 6
ENDMDL
MODEL 3
REMARK VINA RESULT:       8.7      1.852      2.574
REMARK  Name = 45783621
REMARK  8 active torsions:
REMARK  status: ('A' for Active; 'I' for Inactive)
REMARK    1  A    between atoms: O_4  and  C_30
REMARK    2  A    between atoms: O_4  and  C_31
REMARK    3  A    between atoms: N_5  and  C_11
REMARK    4  A    between atoms: N_10  and  C_28
REMARK    5  A    between atoms: C_12  and  C_20
REMARK    6  A    between atoms: C_21  and  C_22
REMARK    7  A    between atoms: C_23  and  C_24
REMARK    8  A    between atoms: C_29  and  C_30
REMARK                            x       y       z     vdW  Elec       q    Type
REMARK                         _______ _______ _______ _____ _____    ______ ____
ROOT
ATOM      1  O   UNL     1      -0.611   0.428  23.036  0.00  0.00    -0.336 OA
ATOM      7  N   UNL     1       0.933   1.793  23.914  0.00  0.00    -0.190 NA
ATOM      8  N   UNL     1       0.623  -0.207  22.848  0.00  0.00    -0.056 NA
ATOM     20  C   UNL     1      -0.339   1.599  23.670  0.00  0.00    +0.245 A 
ATOM     23  C   UNL     1       1.483   0.658  23.393  0.00  0.00    +0.204 A 
ENDROOT
BRANCH  23  24
ATOM      9  N   UNL     1       5.141   1.282  23.167  0.00  0.00    -0.239 NA
ATOM     24  C   UNL     1       2.897   0.422  23.429  0.00  0.00    +0.041 A 
ATOM     25  C   UNL     1       3.407  -0.833  23.742  0.00  0.00    +0.016 A 
ATOM     26  C   UNL     1       3.798   1.437  23.151  0.00  0.00    +0.124 A 
ATOM     27  C   UNL     1       4.783  -1.031  23.768  0.00  0.00    +0.044 A 
ATOM     28  C   UNL     1       5.599   0.048  23.475  0.00  0.00    +0.125 A 
BRANCH  28  10
ATOM      3  O   UNL     1       7.385  -1.456  21.576  0.00  0.00    -0.273 OA
ATOM     10  N   UNL     1       6.983  -0.163  23.504  0.00  0.00    -0.268 N 
ATOM     29  C   UNL     1       7.765  -0.875  22.588  0.00  0.00    +0.244 C 
ATOM     32  H   UNL     1       7.457   0.262  24.297  0.00  0.00    +0.156 HD
BRANCH  29  30
ATOM     30  C   UNL     1       9.228  -0.881  22.975  0.00  0.00    +0.255 C 
BRANCH  30   4
ATOM      4  O   UNL     1       9.762   0.408  22.755  0.00  0.00    -0.374 OA
ATOM     31  C   UNL     1       9.857   1.156  23.963  0.00  0.00    +0.194 C 
ENDBRANCH  30   4
ENDBRANCH  29  30
ENDBRANCH  28  10
ENDBRANCH  23  24
BRANCH  20  12
ATOM      5  N   UNL     1      -1.964   2.354  25.397  0.00  0.00    -0.288 NA
ATOM     12  C   UNL     1      -1.525   2.483  23.993  0.00  0.00    +0.146 C 
ATOM     13  C   UNL     1      -2.548   3.643  25.768  0.00  0.00    +0.085 C 
ATOM     14  C   UNL     1      -1.214   3.982  23.818  0.00  0.00    +0.030 C 
ATOM     17  C   UNL     1      -1.567   4.620  25.153  0.00  0.00    +0.017 C 
BRANCH   5  11
ATOM      2  O   UNL     1      -3.225  -3.622  24.683  0.00  0.00    -0.276 OA
ATOM      6  N   UNL     1      -3.852  -1.399  24.924  0.00  0.00    -0.302 N 
ATOM     11  C   UNL     1      -2.895   1.247  25.608  0.00  0.00    +0.060 C 
ATOM     15  C   UNL     1      -2.126  -0.017  26.015  0.00  0.00    +0.038 C 
ATOM     16  C   UNL     1      -3.709   0.993  24.333  0.00  0.00    +0.038 C 
ATOM     18  C   UNL     1      -3.071  -1.210  26.148  0.00  0.00    +0.109 C 
ATOM     19  C   UNL     1      -4.622  -0.223  24.499  0.00  0.00    +0.109 C 
ATOM     21  C   UNL     1      -3.852  -2.637  24.284  0.00  0.00    +0.212 C 
ATOM     22  C   UNL     1      -4.680  -2.749  23.029  0.00  0.00    +0.109 C 
ENDBRANCH   5  11
ENDBRANCH  20  12
TORSDOF 6
ENDMDL
