MODEL 1
REMARK VINA RESULT:       0.0      0.000      0.000
REMARK  Name = 71693951
REMARK  6 active torsions:
REMARK  status: ('A' for Active; 'I' for Inactive)
REMARK    1  A    between atoms: O_4  and  C_12
REMARK    2  A    between atoms: O_5  and  C_14
REMARK    3  A    between atoms: N_9  and  C_11
REMARK    4  A    between atoms: C_10  and  C_15
REMARK    5  A    between atoms: C_18  and  C_22
REMARK    6  A    between atoms: C_21  and  C_24
REMARK                            x       y       z     vdW  Elec       q    Type
REMARK                         _______ _______ _______ _____ _____    ______ ____
ROOT
ATOM     10  C   UNL     1      -2.316  -0.927  25.577  0.00  0.00    +0.044 C 
ATOM     11  C   UNL     1      -1.707  -1.459  24.260  0.00  0.00    +0.112 C 
ATOM     12  C   UNL     1      -1.929  -2.969  24.350  0.00  0.00    +0.164 C 
ATOM     13  C   UNL     1      -3.334  -2.003  26.036  0.00  0.00    +0.044 C 
ATOM     14  C   UNL     1      -3.324  -3.078  24.952  0.00  0.00    +0.145 C 
ENDROOT
BRANCH  10  15
ATOM     15  C   UNL     1      -2.898   0.464  25.440  0.00  0.00    -0.042 A 
ATOM     16  C   UNL     1      -2.073   1.582  25.561  0.00  0.00    +0.004 A 
ATOM     17  C   UNL     1      -4.262   0.628  25.196  0.00  0.00    +0.004 A 
ATOM     19  C   UNL     1      -2.610   2.863  25.436  0.00  0.00    +0.012 A 
ATOM     20  C   UNL     1      -4.799   1.909  25.070  0.00  0.00    +0.012 A 
ATOM     21  C   UNL     1      -3.973   3.026  25.191  0.00  0.00    +0.055 A 
BRANCH  21  24
ATOM      1  F   UNL     1      -5.879   4.461  25.363  0.00  0.00    -0.166 F 
ATOM      2  F   UNL     1      -4.445   4.915  23.802  0.00  0.00    -0.166 F 
ATOM      3  F   UNL     1      -3.942   5.302  25.881  0.00  0.00    -0.166 F 
ATOM     24  C   UNL     1      -4.549   4.395  25.060  0.00  0.00    +0.417 C 
ENDBRANCH  21  24
ENDBRANCH  10  15
BRANCH  11   9
ATOM      6  O   UNL     1      -0.580   0.643  22.660  0.00  0.00    -0.270 OA
ATOM      9  N   UNL     1      -0.311  -1.126  24.136  0.00  0.00    -0.305 N 
ATOM     18  C   UNL     1       0.142  -0.087  23.334  0.00  0.00    +0.245 C 
ATOM     31  H   UNL     1       0.345  -1.706  24.647  0.00  0.00    +0.149 HD
BRANCH  18  22
ATOM      7  O   UNL     1       4.635  -1.821  23.939  0.00  0.00    -0.485 OA
ATOM      8  O   UNL     1       5.723   0.720  23.120  0.00  0.00    -0.485 OA
ATOM     22  C   UNL     1       1.614   0.111  23.294  0.00  0.00    +0.040 A 
ATOM     23  C   UNL     1       2.467  -0.944  23.620  0.00  0.00    +0.062 A 
ATOM     25  C   UNL     1       2.141   1.351  22.935  0.00  0.00    +0.017 A 
ATOM     26  C   UNL     1       3.849  -0.753  23.588  0.00  0.00    +0.163 A 
ATOM     27  C   UNL     1       3.522   1.539  22.891  0.00  0.00    +0.050 A 
ATOM     28  C   UNL     1       4.377   0.481  23.203  0.00  0.00    +0.162 A 
ATOM     29  C   UNL     1       5.983  -1.425  24.205  0.00  0.00    +0.270 C 
ATOM     30  C   UNL     1       6.482  -0.493  23.118  0.00  0.00    +0.270 C 
ENDBRANCH  18  22
ENDBRANCH  11   9
BRANCH  12   4
ATOM      4  O   UNL     1      -1.868  -3.597  23.083  0.00  0.00    -0.387 OA
ATOM     32  H   UNL     1      -2.675  -4.130  22.983  0.00  0.00    +0.210 HD
ENDBRANCH  12   4
BRANCH  14   5
ATOM      5  O   UNL     1      -4.322  -2.762  23.987  0.00  0.00    -0.389 OA
ATOM     33  H   UNL     1      -4.014  -3.099  23.127  0.00  0.00    +0.210 HD
ENDBRANCH  14   5
TORSDOF 6
ENDMDL
