MODEL 1
REMARK VINA RESULT:       3.2      0.000      0.000
REMARK  Name = 11879616
REMARK  7 active torsions:
REMARK  status: ('A' for Active; 'I' for Inactive)
REMARK    1  A    between atoms: S_1  and  N_8
REMARK    2  A    between atoms: S_1  and  C_21
REMARK    3  A    between atoms: O_4  and  C_20
REMARK    4  A    between atoms: O_4  and  C_24
REMARK    5  A    between atoms: N_8  and  C_16
REMARK    6  A    between atoms: N_9  and  C_17
REMARK    7  A    between atoms: N_13  and  C_29
REMARK                            x       y       z     vdW  Elec       q    Type
REMARK                         _______ _______ _______ _____ _____    ______ ____
ROOT
ATOM      2  O   UNL     1      -4.280   4.172  26.220  0.00  0.00    -0.370 OA
ATOM      3  O   UNL     1      -2.055   4.664  24.032  0.00  0.00    -0.370 OA
ATOM     14  C   UNL     1      -2.958   3.587  24.328  0.00  0.00    +0.170 C 
ATOM     15  C   UNL     1      -3.074   3.485  25.837  0.00  0.00    +0.175 C 
ATOM     16  C   UNL     1      -4.352   3.935  23.865  0.00  0.00    +0.133 C 
ATOM     17  C   UNL     1      -1.865   4.228  26.370  0.00  0.00    +0.171 C 
ATOM     18  C   UNL     1      -4.921   4.692  25.047  0.00  0.00    +0.183 C 
ATOM     19  C   UNL     1      -1.552   5.220  25.256  0.00  0.00    +0.190 C 
ENDROOT
BRANCH  17   9
ATOM      9  N   UNL     1      -0.764   3.329  26.726  0.00  0.00    -0.187 N 
ATOM     10  N   UNL     1      -0.490   3.053  28.005  0.00  0.00    -0.041 NA
ATOM     11  N   UNL     1       0.921   1.978  26.654  0.00  0.00    -0.071 NA
ATOM     12  N   UNL     1       0.546   2.223  27.955  0.00  0.00    -0.020 NA
ATOM     20  C   UNL     1       0.093   2.674  25.910  0.00  0.00    +0.342 A 
BRANCH  20   4
ATOM      4  O   UNL     1       0.084   2.739  24.592  0.00  0.00    -0.423 OA
BRANCH   4  24
ATOM     24  C   UNL     1       0.410   1.657  23.786  0.00  0.00    +0.134 A 
ATOM     28  C   UNL     1       1.742   1.342  23.594  0.00  0.00    +0.069 A 
ATOM     29  C   UNL     1       2.071   0.256  22.783  0.00  0.00    +0.033 A 
ATOM     30  C   UNL     1      -0.605   0.928  23.199  0.00  0.00    +0.046 A 
ATOM     37  C   UNL     1       1.061  -0.496  22.181  0.00  0.00    +0.023 A 
ATOM     38  C   UNL     1      -0.276  -0.160  22.388  0.00  0.00    +0.005 A 
BRANCH  29  13
ATOM      7  O   UNL     1       5.748  -0.459  24.060  0.00  0.00    -0.377 OA
ATOM     13  N   UNL     1       3.402  -0.079  22.576  0.00  0.00    -0.325 N 
ATOM     31  C   UNL     1       3.883  -1.440  22.837  0.00  0.00    +0.133 C 
ATOM     32  C   UNL     1       4.472   0.921  22.531  0.00  0.00    +0.133 C 
ATOM     34  C   UNL     1       4.688  -1.420  24.136  0.00  0.00    +0.178 C 
ATOM     35  C   UNL     1       5.244   0.865  23.844  0.00  0.00    +0.178 C 
ENDBRANCH  29  13
ENDBRANCH   4  24
ENDBRANCH  20   4
ENDBRANCH  17   9
BRANCH  16   8
ATOM      8  N   UNL     1      -5.134   2.695  23.645  0.00  0.00    -0.182 NA
ATOM     41  H   UNL     1      -5.584   2.571  22.730  0.00  0.00    +0.148 HD
BRANCH   8   1
ATOM      1  S   UNL     1      -5.599   1.743  24.972  0.00  0.00    +0.059 S 
ATOM      5  O   UNL     1      -6.961   1.282  24.782  0.00  0.00    -0.153 OA
ATOM      6  O   UNL     1      -5.224   2.431  26.193  0.00  0.00    -0.153 OA
BRANCH   1  21
ATOM     21  C   UNL     1      -4.523   0.348  24.816  0.00  0.00    +0.106 A 
ATOM     22  C   UNL     1      -3.289   0.373  25.441  0.00  0.00    +0.037 A 
ATOM     23  C   UNL     1      -4.935  -0.740  24.072  0.00  0.00    +0.029 A 
ATOM     25  C   UNL     1      -2.423  -0.726  25.326  0.00  0.00    -0.016 A 
ATOM     26  C   UNL     1      -4.089  -1.841  23.947  0.00  0.00    +0.010 A 
ATOM     27  C   UNL     1      -2.829  -1.850  24.567  0.00  0.00    -0.018 A 
ATOM     33  C   UNL     1      -1.163  -0.736  25.947  0.00  0.00    +0.008 A 
ATOM     36  C   UNL     1      -1.963  -2.950  24.453  0.00  0.00    +0.008 A 
ATOM     39  C   UNL     1      -0.316  -1.837  25.823  0.00  0.00    +0.001 A 
ATOM     40  C   UNL     1      -0.714  -2.942  25.076  0.00  0.00    +0.001 A 
ENDBRANCH   1  21
ENDBRANCH   8   1
ENDBRANCH  16   8
TORSDOF 7
ENDMDL
MODEL 2
REMARK VINA RESULT:       7.0      1.458      1.693
REMARK  Name = 11879616
REMARK  7 active torsions:
REMARK  status: ('A' for Active; 'I' for Inactive)
REMARK    1  A    between atoms: S_1  and  N_8
REMARK    2  A    between atoms: S_1  and  C_21
REMARK    3  A    between atoms: O_4  and  C_20
REMARK    4  A    between atoms: O_4  and  C_24
REMARK    5  A    between atoms: N_8  and  C_16
REMARK    6  A    between atoms: N_9  and  C_17
REMARK    7  A    between atoms: N_13  and  C_29
REMARK                            x       y       z     vdW  Elec       q    Type
REMARK                         _______ _______ _______ _____ _____    ______ ____
ROOT
ATOM      2  O   UNL     1      -3.247   3.139  26.261  0.00  0.00    -0.370 OA
ATOM      3  O   UNL     1      -3.668   5.787  24.591  0.00  0.00    -0.370 OA
ATOM     14  C   UNL     1      -3.815   4.385  24.313  0.00  0.00    +0.170 C 
ATOM     15  C   UNL     1      -2.698   3.653  25.033  0.00  0.00    +0.175 C 
ATOM     16  C   UNL     1      -5.080   3.859  24.947  0.00  0.00    +0.133 C 
ATOM     17  C   UNL     1      -1.667   4.723  25.337  0.00  0.00    +0.171 C 
ATOM     18  C   UNL     1      -4.631   3.500  26.349  0.00  0.00    +0.183 C 
ATOM     19  C   UNL     1      -2.502   5.997  25.399  0.00  0.00    +0.190 C 
ENDROOT
BRANCH  17   9
ATOM      9  N   UNL     1      -0.575   4.745  24.361  0.00  0.00    -0.187 N 
ATOM     10  N   UNL     1      -0.263   5.867  23.705  0.00  0.00    -0.041 NA
ATOM     11  N   UNL     1       1.078   4.198  23.080  0.00  0.00    -0.071 NA
ATOM     12  N   UNL     1       0.753   5.526  22.921  0.00  0.00    -0.020 NA
ATOM     20  C   UNL     1       0.242   3.735  23.980  0.00  0.00    +0.342 A 
BRANCH  20   4
ATOM      4  O   UNL     1       0.188   2.500  24.443  0.00  0.00    -0.423 OA
BRANCH   4  24
ATOM     24  C   UNL     1       0.577   1.401  23.691  0.00  0.00    +0.134 A 
ATOM     28  C   UNL     1       1.925   1.118  23.567  0.00  0.00    +0.069 A 
ATOM     29  C   UNL     1       2.317   0.014  22.810  0.00  0.00    +0.033 A 
ATOM     30  C   UNL     1      -0.391   0.622  23.089  0.00  0.00    +0.046 A 
ATOM     37  C   UNL     1       1.355  -0.787  22.193  0.00  0.00    +0.023 A 
ATOM     38  C   UNL     1       0.002  -0.483  22.333  0.00  0.00    +0.005 A 
BRANCH  29  13
ATOM      7  O   UNL     1       5.977  -0.441  24.246  0.00  0.00    -0.377 OA
ATOM     13  N   UNL     1       3.666  -0.289  22.671  0.00  0.00    -0.325 N 
ATOM     31  C   UNL     1       4.185  -1.600  23.072  0.00  0.00    +0.133 C 
ATOM     32  C   UNL     1       4.701   0.741  22.560  0.00  0.00    +0.133 C 
ATOM     34  C   UNL     1       4.949  -1.429  24.385  0.00  0.00    +0.178 C 
ATOM     35  C   UNL     1       5.435   0.838  23.893  0.00  0.00    +0.178 C 
ENDBRANCH  29  13
ENDBRANCH   4  24
ENDBRANCH  20   4
ENDBRANCH  17   9
BRANCH  16   8
ATOM      8  N   UNL     1      -5.528   2.635  24.239  0.00  0.00    -0.182 NA
ATOM     41  H   UNL     1      -5.686   2.702  23.226  0.00  0.00    +0.148 HD
BRANCH   8   1
ATOM      1  S   UNL     1      -6.141   1.325  25.126  0.00  0.00    +0.059 S 
ATOM      5  O   UNL     1      -7.360   0.847  24.502  0.00  0.00    -0.153 OA
ATOM      6  O   UNL     1      -6.129   1.669  26.535  0.00  0.00    -0.153 OA
BRANCH   1  21
ATOM     21  C   UNL     1      -4.888   0.101  24.884  0.00  0.00    +0.106 A 
ATOM     22  C   UNL     1      -3.683   0.227  25.551  0.00  0.00    +0.037 A 
ATOM     23  C   UNL     1      -5.137  -0.958  24.033  0.00  0.00    +0.029 A 
ATOM     25  C   UNL     1      -2.677  -0.736  25.369  0.00  0.00    -0.016 A 
ATOM     26  C   UNL     1      -4.150  -1.924  23.840  0.00  0.00    +0.010 A 
ATOM     27  C   UNL     1      -2.914  -1.828  24.500  0.00  0.00    -0.018 A 
ATOM     33  C   UNL     1      -1.441  -0.640  26.030  0.00  0.00    +0.008 A 
ATOM     36  C   UNL     1      -1.909  -2.792  24.318  0.00  0.00    +0.008 A 
ATOM     39  C   UNL     1      -0.454  -1.607  25.838  0.00  0.00    +0.001 A 
ATOM     40  C   UNL     1      -0.686  -2.680  24.983  0.00  0.00    +0.001 A 
ENDBRANCH   1  21
ENDBRANCH   8   1
ENDBRANCH  16   8
TORSDOF 7
ENDMDL
MODEL 3
REMARK VINA RESULT:       7.2      2.524      6.374
REMARK  Name = 11879616
REMARK  7 active torsions:
REMARK  status: ('A' for Active; 'I' for Inactive)
REMARK    1  A    between atoms: S_1  and  N_8
REMARK    2  A    between atoms: S_1  and  C_21
REMARK    3  A    between atoms: O_4  and  C_20
REMARK    4  A    between atoms: O_4  and  C_24
REMARK    5  A    between atoms: N_8  and  C_16
REMARK    6  A    between atoms: N_9  and  C_17
REMARK    7  A    between atoms: N_13  and  C_29
REMARK                            x       y       z     vdW  Elec       q    Type
REMARK                         _______ _______ _______ _____ _____    ______ ____
ROOT
ATOM      2  O   UNL     1      -2.349  -1.303  26.166  0.00  0.00    -0.370 OA
ATOM      3  O   UNL     1      -3.847  -1.108  23.392  0.00  0.00    -0.370 OA
ATOM     14  C   UNL     1      -2.620  -0.575  23.915  0.00  0.00    +0.170 C 
ATOM     15  C   UNL     1      -2.857  -0.216  25.370  0.00  0.00    +0.175 C 
ATOM     16  C   UNL     1      -1.563  -1.651  23.961  0.00  0.00    +0.133 C 
ATOM     17  C   UNL     1      -4.365  -0.136  25.508  0.00  0.00    +0.171 C 
ATOM     18  C   UNL     1      -1.809  -2.311  25.302  0.00  0.00    +0.183 C 
ATOM     19  C   UNL     1      -4.861  -1.065  24.406  0.00  0.00    +0.190 C 
ENDROOT
BRANCH  17   9
ATOM      9  N   UNL     1      -4.865   1.239  25.432  0.00  0.00    -0.187 N 
ATOM     10  N   UNL     1      -6.060   1.564  25.935  0.00  0.00    -0.041 NA
ATOM     11  N   UNL     1      -5.074   3.355  25.045  0.00  0.00    -0.071 NA
ATOM     12  N   UNL     1      -6.183   2.864  25.695  0.00  0.00    -0.020 NA
ATOM     20  C   UNL     1      -4.269   2.328  24.894  0.00  0.00    +0.342 A 
BRANCH  20   4
ATOM      4  O   UNL     1      -3.082   2.336  24.317  0.00  0.00    -0.423 OA
BRANCH   4  24
ATOM     24  C   UNL     1      -1.992   3.005  24.857  0.00  0.00    +0.134 A 
ATOM     28  C   UNL     1      -1.188   2.348  25.770  0.00  0.00    +0.069 A 
ATOM     29  C   UNL     1      -0.093   3.020  26.314  0.00  0.00    +0.033 A 
ATOM     30  C   UNL     1      -1.743   4.306  24.467  0.00  0.00    +0.046 A 
ATOM     37  C   UNL     1       0.177   4.335  25.933  0.00  0.00    +0.023 A 
ATOM     38  C   UNL     1      -0.647   4.978  25.011  0.00  0.00    +0.005 A 
BRANCH  29  13
ATOM      7  O   UNL     1       1.957   2.898  29.696  0.00  0.00    -0.377 OA
ATOM     13  N   UNL     1       0.728   2.380  27.233  0.00  0.00    -0.325 N 
ATOM     31  C   UNL     1       0.170   1.799  28.459  0.00  0.00    +0.133 C 
ATOM     32  C   UNL     1       2.172   2.612  27.300  0.00  0.00    +0.133 C 
ATOM     34  C   UNL     1       0.539   2.710  29.629  0.00  0.00    +0.178 C 
ATOM     35  C   UNL     1       2.466   3.503  28.501  0.00  0.00    +0.178 C 
ENDBRANCH  29  13
ENDBRANCH   4  24
ENDBRANCH  20   4
ENDBRANCH  17   9
BRANCH  16   8
ATOM      8  N   UNL     1      -0.214  -1.035  23.950  0.00  0.00    -0.182 NA
ATOM     41  H   UNL     1       0.332  -1.068  24.819  0.00  0.00    +0.148 HD
BRANCH   8   1
ATOM      1  S   UNL     1       0.219   0.025  22.696  0.00  0.00    +0.059 S 
ATOM      5  O   UNL     1      -0.396   1.318  22.923  0.00  0.00    -0.153 OA
ATOM      6  O   UNL     1       0.042  -0.656  21.428  0.00  0.00    -0.153 OA
BRANCH   1  21
ATOM     21  C   UNL     1       1.961   0.197  22.949  0.00  0.00    +0.106 A 
ATOM     22  C   UNL     1       2.697  -0.903  23.355  0.00  0.00    +0.037 A 
ATOM     23  C   UNL     1       2.554   1.425  22.736  0.00  0.00    +0.029 A 
ATOM     25  C   UNL     1       4.081  -0.782  23.560  0.00  0.00    -0.016 A 
ATOM     26  C   UNL     1       3.927   1.563  22.934  0.00  0.00    +0.010 A 
ATOM     27  C   UNL     1       4.705   0.470  23.347  0.00  0.00    -0.018 A 
ATOM     33  C   UNL     1       4.859  -1.877  23.972  0.00  0.00    +0.008 A 
ATOM     36  C   UNL     1       6.090   0.590  23.552  0.00  0.00    +0.008 A 
ATOM     39  C   UNL     1       6.232  -1.740  24.171  0.00  0.00    +0.001 A 
ATOM     40  C   UNL     1       6.847  -0.508  23.962  0.00  0.00    +0.001 A 
ENDBRANCH   1  21
ENDBRANCH   8   1
ENDBRANCH  16   8
TORSDOF 7
ENDMDL
