MODEL 1
REMARK VINA RESULT:       2.7      0.000      0.000
REMARK  Name = 28990967
REMARK  10 active torsions:
REMARK  status: ('A' for Active; 'I' for Inactive)
REMARK    1  A    between atoms: N_3  and  C_19
REMARK    2  A    between atoms: N_4  and  C_14
REMARK    3  A    between atoms: N_4  and  C_18
REMARK    4  A    between atoms: N_6  and  C_30
REMARK    5  A    between atoms: N_6  and  C_32
REMARK    6  A    between atoms: N_6  and  C_33
REMARK    7  A    between atoms: C_8  and  C_15
REMARK    8  A    between atoms: C_9  and  C_14
REMARK    9  A    between atoms: C_17  and  C_20
REMARK   10  A    between atoms: C_18  and  C_21
REMARK                            x       y       z     vdW  Elec       q    Type
REMARK                         _______ _______ _______ _____ _____    ______ ____
ROOT
ATOM      2  N   UNL     1      -3.928  -1.679  25.795  0.00  0.00    -0.298 NA
ATOM      7  C   UNL     1      -2.937  -2.126  23.429  0.00  0.00    +0.002 C 
ATOM      8  C   UNL     1      -1.801  -2.031  24.485  0.00  0.00    +0.055 C 
ATOM      9  C   UNL     1      -4.496  -0.716  24.816  0.00  0.00    +0.071 C 
ATOM     10  C   UNL     1      -3.770  -0.829  23.458  0.00  0.00    +0.024 C 
ATOM     11  C   UNL     1      -3.867  -3.274  23.879  0.00  0.00    +0.019 C 
ATOM     12  C   UNL     1      -2.448  -1.565  25.821  0.00  0.00    +0.094 C 
ATOM     13  C   UNL     1      -4.279  -3.047  25.344  0.00  0.00    +0.085 C 
ENDROOT
BRANCH   8  15
ATOM      3  N   UNL     1      -0.604   0.091  23.776  0.00  0.00    -0.270 N 
ATOM      5  N   UNL     1       0.602   0.621  23.504  0.00  0.00    -0.171 NA
ATOM     15  C   UNL     1      -0.559  -1.225  24.133  0.00  0.00    +0.044 A 
ATOM     16  C   UNL     1       0.767  -1.581  24.089  0.00  0.00    +0.053 A 
ATOM     17  C   UNL     1       1.434  -0.406  23.697  0.00  0.00    +0.093 A 
ATOM     19  C   UNL     1      -1.780   0.923  23.671  0.00  0.00    +0.172 C 
BRANCH  17  20
ATOM      1  F   UNL     1       6.917   0.218  22.941  0.00  0.00    -0.205 F 
ATOM     20  C   UNL     1       2.851  -0.244  23.501  0.00  0.00    +0.002 A 
ATOM     22  C   UNL     1       3.729  -1.257  23.890  0.00  0.00    +0.013 A 
ATOM     23  C   UNL     1       3.347   0.925  22.924  0.00  0.00    +0.013 A 
ATOM     26  C   UNL     1       5.102  -1.101  23.701  0.00  0.00    +0.039 A 
ATOM     27  C   UNL     1       4.721   1.081  22.735  0.00  0.00    +0.039 A 
ATOM     31  C   UNL     1       5.598   0.068  23.123  0.00  0.00    +0.123 A 
ENDBRANCH  17  20
ENDBRANCH   8  15
BRANCH   9  14
ATOM     14  C   UNL     1      -4.497   0.721  25.345  0.00  0.00    +0.100 C 
BRANCH  14   4
ATOM      4  N   UNL     1      -5.856   1.192  25.553  0.00  0.00    -0.311 NA
ATOM     34  H   UNL     1      -6.206   0.812  26.433  0.00  0.00    +0.122 HD
BRANCH   4  18
ATOM     18  C   UNL     1      -5.900   2.648  25.615  0.00  0.00    +0.116 C 
BRANCH  18  21
ATOM     21  C   UNL     1      -4.555   3.262  25.331  0.00  0.00    -0.033 A 
ATOM     24  C   UNL     1      -4.150   3.474  24.012  0.00  0.00    +0.007 A 
ATOM     25  C   UNL     1      -3.714   3.618  26.385  0.00  0.00    +0.007 A 
ATOM     28  C   UNL     1      -2.903   4.042  23.749  0.00  0.00    +0.023 A 
ATOM     29  C   UNL     1      -2.467   4.186  26.122  0.00  0.00    +0.023 A 
ATOM     30  C   UNL     1      -2.063   4.399  24.804  0.00  0.00    +0.029 A 
BRANCH  30   6
ATOM      6  N   UNL     1      -0.802   4.974  24.537  0.00  0.00    -0.336 N 
ATOM     32  C   UNL     1      -0.537   6.355  24.888  0.00  0.00    +0.129 C 
ATOM     33  C   UNL     1       0.241   4.194  23.902  0.00  0.00    +0.129 C 
ENDBRANCH  30   6
ENDBRANCH  18  21
ENDBRANCH   4  18
ENDBRANCH  14   4
ENDBRANCH   9  14
TORSDOF 7
ENDMDL
MODEL 2
REMARK VINA RESULT:       2.7      1.377      4.892
REMARK  Name = 28990967
REMARK  10 active torsions:
REMARK  status: ('A' for Active; 'I' for Inactive)
REMARK    1  A    between atoms: N_3  and  C_19
REMARK    2  A    between atoms: N_4  and  C_14
REMARK    3  A    between atoms: N_4  and  C_18
REMARK    4  A    between atoms: N_6  and  C_30
REMARK    5  A    between atoms: N_6  and  C_32
REMARK    6  A    between atoms: N_6  and  C_33
REMARK    7  A    between atoms: C_8  and  C_15
REMARK    8  A    between atoms: C_9  and  C_14
REMARK    9  A    between atoms: C_17  and  C_20
REMARK   10  A    between atoms: C_18  and  C_21
REMARK                            x       y       z     vdW  Elec       q    Type
REMARK                         _______ _______ _______ _____ _____    ______ ____
ROOT
ATOM      2  N   UNL     1      -3.673   4.236  24.420  0.00  0.00    -0.298 NA
ATOM      7  C   UNL     1      -1.198   4.538  25.172  0.00  0.00    +0.002 C 
ATOM      8  C   UNL     1      -1.264   3.816  23.798  0.00  0.00    +0.055 C 
ATOM      9  C   UNL     1      -3.505   3.758  25.818  0.00  0.00    +0.071 C 
ATOM     10  C   UNL     1      -2.011   3.736  26.209  0.00  0.00    +0.024 C 
ATOM     11  C   UNL     1      -1.906   5.899  24.995  0.00  0.00    +0.019 C 
ATOM     12  C   UNL     1      -2.761   3.494  23.515  0.00  0.00    +0.094 C 
ATOM     13  C   UNL     1      -3.298   5.670  24.382  0.00  0.00    +0.085 C 
ENDROOT
BRANCH   8  15
ATOM      3  N   UNL     1      -0.814   1.428  23.070  0.00  0.00    -0.270 N 
ATOM      5  N   UNL     1       0.141   0.489  22.951  0.00  0.00    -0.171 NA
ATOM     15  C   UNL     1      -0.362   2.612  23.575  0.00  0.00    +0.044 A 
ATOM     16  C   UNL     1       0.981   2.434  23.803  0.00  0.00    +0.053 A 
ATOM     17  C   UNL     1       1.235   1.111  23.400  0.00  0.00    +0.093 A 
ATOM     19  C   UNL     1      -2.167   1.113  22.673  0.00  0.00    +0.172 C 
BRANCH  17  20
ATOM      1  F   UNL     1       6.134  -1.535  23.541  0.00  0.00    -0.205 F 
ATOM     20  C   UNL     1       2.501   0.426  23.437  0.00  0.00    +0.002 A 
ATOM     22  C   UNL     1       3.678   1.122  23.156  0.00  0.00    +0.013 A 
ATOM     23  C   UNL     1       2.551  -0.931  23.753  0.00  0.00    +0.013 A 
ATOM     26  C   UNL     1       4.905   0.459  23.191  0.00  0.00    +0.039 A 
ATOM     27  C   UNL     1       3.779  -1.594  23.787  0.00  0.00    +0.039 A 
ATOM     31  C   UNL     1       4.956  -0.899  23.507  0.00  0.00    +0.123 A 
ENDBRANCH  17  20
ENDBRANCH   8  15
BRANCH   9  14
ATOM     14  C   UNL     1      -4.177   2.404  26.056  0.00  0.00    +0.100 C 
BRANCH  14   4
ATOM      4  N   UNL     1      -5.433   2.317  25.328  0.00  0.00    -0.311 NA
ATOM     34  H   UNL     1      -5.305   2.723  24.401  0.00  0.00    +0.122 HD
BRANCH   4  18
ATOM     18  C   UNL     1      -5.858   0.930  25.184  0.00  0.00    +0.116 C 
BRANCH  18  21
ATOM     21  C   UNL     1      -4.687   0.000  25.007  0.00  0.00    -0.033 A 
ATOM     24  C   UNL     1      -4.745  -1.021  24.057  0.00  0.00    +0.007 A 
ATOM     25  C   UNL     1      -3.545   0.160  25.791  0.00  0.00    +0.007 A 
ATOM     28  C   UNL     1      -3.660  -1.882  23.893  0.00  0.00    +0.023 A 
ATOM     29  C   UNL     1      -2.460  -0.703  25.628  0.00  0.00    +0.023 A 
ATOM     30  C   UNL     1      -2.518  -1.722  24.678  0.00  0.00    +0.029 A 
BRANCH  30   6
ATOM      6  N   UNL     1      -1.421  -2.594  24.511  0.00  0.00    -0.336 N 
ATOM     32  C   UNL     1      -0.246  -2.463  25.351  0.00  0.00    +0.129 C 
ATOM     33  C   UNL     1      -1.452  -3.627  23.496  0.00  0.00    +0.129 C 
ENDBRANCH  30   6
ENDBRANCH  18  21
ENDBRANCH   4  18
ENDBRANCH  14   4
ENDBRANCH   9  14
TORSDOF 7
ENDMDL
MODEL 3
REMARK VINA RESULT:       3.5     13.930     17.411
REMARK  Name = 28990967
REMARK  10 active torsions:
REMARK  status: ('A' for Active; 'I' for Inactive)
REMARK    1  A    between atoms: N_3  and  C_19
REMARK    2  A    between atoms: N_4  and  C_14
REMARK    3  A    between atoms: N_4  and  C_18
REMARK    4  A    between atoms: N_6  and  C_30
REMARK    5  A    between atoms: N_6  and  C_32
REMARK    6  A    between atoms: N_6  and  C_33
REMARK    7  A    between atoms: C_8  and  C_15
REMARK    8  A    between atoms: C_9  and  C_14
REMARK    9  A    between atoms: C_17  and  C_20
REMARK   10  A    between atoms: C_18  and  C_21
REMARK                            x       y       z     vdW  Elec       q    Type
REMARK                         _______ _______ _______ _____ _____    ______ ____
ROOT
ATOM      2  N   UNL     1      -0.420 -10.141  14.219  0.00  0.00    -0.298 NA
ATOM      7  C   UNL     1      -1.729  -9.477  16.370  0.00  0.00    +0.002 C 
ATOM      8  C   UNL     1      -2.491 -10.584  15.591  0.00  0.00    +0.055 C 
ATOM      9  C   UNL     1      -0.561  -8.663  14.293  0.00  0.00    +0.071 C 
ATOM     10  C   UNL     1      -1.507  -8.263  15.445  0.00  0.00    +0.024 C 
ATOM     11  C   UNL     1      -0.336 -10.050  16.710  0.00  0.00    +0.019 C 
ATOM     12  C   UNL     1      -1.760 -10.781  14.231  0.00  0.00    +0.094 C 
ATOM     13  C   UNL     1       0.317 -10.589  15.425  0.00  0.00    +0.085 C 
ENDROOT
BRANCH   8  15
ATOM      3  N   UNL     1      -4.867 -10.461  16.471  0.00  0.00    -0.270 N 
ATOM      5  N   UNL     1      -6.154 -10.315  16.110  0.00  0.00    -0.171 NA
ATOM     15  C   UNL     1      -3.996 -10.437  15.422  0.00  0.00    +0.044 A 
ATOM     16  C   UNL     1      -4.766 -10.267  14.298  0.00  0.00    +0.053 A 
ATOM     17  C   UNL     1      -6.085 -10.197  14.782  0.00  0.00    +0.093 A 
ATOM     19  C   UNL     1      -4.540 -10.622  17.869  0.00  0.00    +0.172 C 
BRANCH  17  20
ATOM      1  F   UNL     1     -10.712  -9.518  11.757  0.00  0.00    -0.205 F 
ATOM     20  C   UNL     1      -7.281 -10.022  14.000  0.00  0.00    +0.002 A 
ATOM     22  C   UNL     1      -7.255 -10.249  12.623  0.00  0.00    +0.013 A 
ATOM     23  C   UNL     1      -8.467  -9.625  14.619  0.00  0.00    +0.013 A 
ATOM     26  C   UNL     1      -8.414 -10.078  11.866  0.00  0.00    +0.039 A 
ATOM     27  C   UNL     1      -9.626  -9.455  13.860  0.00  0.00    +0.039 A 
ATOM     31  C   UNL     1      -9.599  -9.681  12.484  0.00  0.00    +0.123 A 
ENDBRANCH  17  20
ENDBRANCH   8  15
BRANCH   9  14
ATOM     14  C   UNL     1      -0.996  -8.052  12.959  0.00  0.00    +0.100 C 
BRANCH  14   4
ATOM      4  N   UNL     1      -0.179  -8.559  11.868  0.00  0.00    -0.311 NA
ATOM     34  H   UNL     1       0.781  -8.663  12.197  0.00  0.00    +0.122 HD
BRANCH   4  18
ATOM     18  C   UNL     1      -0.666  -9.853  11.408  0.00  0.00    +0.116 C 
BRANCH  18  21
ATOM     21  C   UNL     1      -2.069  -9.763  10.866  0.00  0.00    -0.033 A 
ATOM     24  C   UNL     1      -2.451  -8.660  10.101  0.00  0.00    +0.007 A 
ATOM     25  C   UNL     1      -2.985 -10.781  11.127  0.00  0.00    +0.007 A 
ATOM     28  C   UNL     1      -3.749  -8.576   9.599  0.00  0.00    +0.023 A 
ATOM     29  C   UNL     1      -4.284 -10.697  10.626  0.00  0.00    +0.023 A 
ATOM     30  C   UNL     1      -4.666  -9.595   9.861  0.00  0.00    +0.029 A 
BRANCH  30   6
ATOM      6  N   UNL     1      -5.979  -9.510   9.353  0.00  0.00    -0.336 N 
ATOM     32  C   UNL     1      -6.631  -8.221   9.220  0.00  0.00    +0.129 C 
ATOM     33  C   UNL     1      -6.696 -10.707   8.963  0.00  0.00    +0.129 C 
ENDBRANCH  30   6
ENDBRANCH  18  21
ENDBRANCH   4  18
ENDBRANCH  14   4
ENDBRANCH   9  14
TORSDOF 7
ENDMDL
MODEL 4
REMARK VINA RESULT:       4.0      2.418      4.051
REMARK  Name = 28990967
REMARK  10 active torsions:
REMARK  status: ('A' for Active; 'I' for Inactive)
REMARK    1  A    between atoms: N_3  and  C_19
REMARK    2  A    between atoms: N_4  and  C_14
REMARK    3  A    between atoms: N_4  and  C_18
REMARK    4  A    between atoms: N_6  and  C_30
REMARK    5  A    between atoms: N_6  and  C_32
REMARK    6  A    between atoms: N_6  and  C_33
REMARK    7  A    between atoms: C_8  and  C_15
REMARK    8  A    between atoms: C_9  and  C_14
REMARK    9  A    between atoms: C_17  and  C_20
REMARK   10  A    between atoms: C_18  and  C_21
REMARK                            x       y       z     vdW  Elec       q    Type
REMARK                         _______ _______ _______ _____ _____    ______ ____
ROOT
ATOM      2  N   UNL     1      -5.323   2.417  26.311  0.00  0.00    -0.298 NA
ATOM      7  C   UNL     1      -5.123   1.499  23.882  0.00  0.00    +0.002 C 
ATOM      8  C   UNL     1      -4.335   0.595  24.871  0.00  0.00    +0.055 C 
ATOM      9  C   UNL     1      -4.923   3.510  25.386  0.00  0.00    +0.071 C 
ATOM     10  C   UNL     1      -4.599   2.946  23.985  0.00  0.00    +0.024 C 
ATOM     11  C   UNL     1      -6.590   1.511  24.364  0.00  0.00    +0.019 C 
ATOM     12  C   UNL     1      -4.332   1.312  26.252  0.00  0.00    +0.094 C 
ATOM     13  C   UNL     1      -6.631   1.889  25.854  0.00  0.00    +0.085 C 
ENDROOT
BRANCH   8  15
ATOM      3  N   UNL     1      -2.538  -1.172  24.584  0.00  0.00    -0.270 N 
ATOM      5  N   UNL     1      -1.277  -1.384  24.168  0.00  0.00    -0.171 NA
ATOM     15  C   UNL     1      -2.948   0.123  24.462  0.00  0.00    +0.044 A 
ATOM     16  C   UNL     1      -1.881   0.806  23.931  0.00  0.00    +0.053 A 
ATOM     17  C   UNL     1      -0.882  -0.171  23.770  0.00  0.00    +0.093 A 
ATOM     19  C   UNL     1      -3.306  -2.282  25.100  0.00  0.00    +0.172 C 
BRANCH  17  20
ATOM      1  F   UNL     1       4.246   0.609  21.743  0.00  0.00    -0.205 F 
ATOM     20  C   UNL     1       0.444   0.030  23.246  0.00  0.00    +0.002 A 
ATOM     22  C   UNL     1       1.321   0.906  23.886  0.00  0.00    +0.013 A 
ATOM     23  C   UNL     1       0.851  -0.651  22.098  0.00  0.00    +0.013 A 
ATOM     26  C   UNL     1       2.606   1.102  23.378  0.00  0.00    +0.039 A 
ATOM     27  C   UNL     1       2.136  -0.455  21.591  0.00  0.00    +0.039 A 
ATOM     31  C   UNL     1       3.013   0.421  22.230  0.00  0.00    +0.123 A 
ENDBRANCH  17  20
ENDBRANCH   8  15
BRANCH   9  14
ATOM     14  C   UNL     1      -3.773   4.352  25.942  0.00  0.00    +0.100 C 
BRANCH  14   4
ATOM      4  N   UNL     1      -2.823   4.683  24.892  0.00  0.00    -0.311 NA
ATOM     34  H   UNL     1      -2.255   5.474  25.199  0.00  0.00    +0.122 HD
BRANCH   4  18
ATOM     18  C   UNL     1      -1.947   3.554  24.605  0.00  0.00    +0.116 C 
BRANCH  18  21
ATOM     21  C   UNL     1      -0.982   3.292  25.732  0.00  0.00    -0.033 A 
ATOM     24  C   UNL     1       0.392   3.375  25.506  0.00  0.00    +0.007 A 
ATOM     25  C   UNL     1      -1.463   2.967  27.000  0.00  0.00    +0.007 A 
ATOM     28  C   UNL     1       1.285   3.133  26.549  0.00  0.00    +0.023 A 
ATOM     29  C   UNL     1      -0.569   2.723  28.043  0.00  0.00    +0.023 A 
ATOM     30  C   UNL     1       0.805   2.807  27.818  0.00  0.00    +0.029 A 
BRANCH  30   6
ATOM      6  N   UNL     1       1.709   2.562  28.872  0.00  0.00    -0.336 N 
ATOM     32  C   UNL     1       3.130   2.784  28.685  0.00  0.00    +0.129 C 
ATOM     33  C   UNL     1       1.232   2.080  30.153  0.00  0.00    +0.129 C 
ENDBRANCH  30   6
ENDBRANCH  18  21
ENDBRANCH   4  18
ENDBRANCH  14   4
ENDBRANCH   9  14
TORSDOF 7
ENDMDL
MODEL 5
REMARK VINA RESULT:       4.1      1.827      2.368
REMARK  Name = 28990967
REMARK  10 active torsions:
REMARK  status: ('A' for Active; 'I' for Inactive)
REMARK    1  A    between atoms: N_3  and  C_19
REMARK    2  A    between atoms: N_4  and  C_14
REMARK    3  A    between atoms: N_4  and  C_18
REMARK    4  A    between atoms: N_6  and  C_30
REMARK    5  A    between atoms: N_6  and  C_32
REMARK    6  A    between atoms: N_6  and  C_33
REMARK    7  A    between atoms: C_8  and  C_15
REMARK    8  A    between atoms: C_9  and  C_14
REMARK    9  A    between atoms: C_17  and  C_20
REMARK   10  A    between atoms: C_18  and  C_21
REMARK                            x       y       z     vdW  Elec       q    Type
REMARK                         _______ _______ _______ _____ _____    ______ ____
ROOT
ATOM      2  N   UNL     1      -3.749  -0.485  25.895  0.00  0.00    -0.298 NA
ATOM      7  C   UNL     1      -3.024  -1.445  23.585  0.00  0.00    +0.002 C 
ATOM      8  C   UNL     1      -1.805  -1.359  24.545  0.00  0.00    +0.055 C 
ATOM      9  C   UNL     1      -4.252   0.387  24.801  0.00  0.00    +0.071 C 
ATOM     10  C   UNL     1      -3.660  -0.048  23.442  0.00  0.00    +0.024 C 
ATOM     11  C   UNL     1      -4.067  -2.352  24.272  0.00  0.00    +0.019 C 
ATOM     12  C   UNL     1      -2.271  -0.596  25.818  0.00  0.00    +0.094 C 
ATOM     13  C   UNL     1      -4.325  -1.837  25.699  0.00  0.00    +0.085 C 
ENDROOT
BRANCH   8  15
ATOM      3  N   UNL     1      -0.434   0.155  23.040  0.00  0.00    -0.270 N 
ATOM      5  N   UNL     1       0.819   0.494  22.688  0.00  0.00    -0.171 NA
ATOM     15  C   UNL     1      -0.494  -0.818  23.994  0.00  0.00    +0.044 A 
ATOM     16  C   UNL     1       0.810  -1.139  24.285  0.00  0.00    +0.053 A 
ATOM     17  C   UNL     1       1.573  -0.300  23.453  0.00  0.00    +0.093 A 
ATOM     19  C   UNL     1      -1.549   0.819  22.405  0.00  0.00    +0.172 C 
BRANCH  17  20
ATOM      1  F   UNL     1       7.130  -0.081  23.139  0.00  0.00    -0.205 F 
ATOM     20  C   UNL     1       3.009  -0.243  23.371  0.00  0.00    +0.002 A 
ATOM     22  C   UNL     1       3.779  -1.289  23.882  0.00  0.00    +0.013 A 
ATOM     23  C   UNL     1       3.632   0.857  22.782  0.00  0.00    +0.013 A 
ATOM     26  C   UNL     1       5.171  -1.234  23.804  0.00  0.00    +0.039 A 
ATOM     27  C   UNL     1       5.024   0.912  22.704  0.00  0.00    +0.039 A 
ATOM     31  C   UNL     1       5.793  -0.134  23.215  0.00  0.00    +0.123 A 
ENDBRANCH  17  20
ENDBRANCH   8  15
BRANCH   9  14
ATOM     14  C   UNL     1      -4.007   1.872  25.081  0.00  0.00    +0.100 C 
BRANCH  14   4
ATOM      4  N   UNL     1      -3.868   2.614  23.839  0.00  0.00    -0.311 NA
ATOM     34  H   UNL     1      -4.780   2.993  23.578  0.00  0.00    +0.122 HD
BRANCH   4  18
ATOM     18  C   UNL     1      -2.923   3.714  23.989  0.00  0.00    +0.116 C 
BRANCH  18  21
ATOM     21  C   UNL     1      -1.895   3.427  25.052  0.00  0.00    -0.033 A 
ATOM     24  C   UNL     1      -2.210   3.624  26.397  0.00  0.00    +0.007 A 
ATOM     25  C   UNL     1      -0.630   2.965  24.692  0.00  0.00    +0.007 A 
ATOM     28  C   UNL     1      -1.258   3.359  27.381  0.00  0.00    +0.023 A 
ATOM     29  C   UNL     1       0.323   2.701  25.676  0.00  0.00    +0.023 A 
ATOM     30  C   UNL     1       0.008   2.896  27.021  0.00  0.00    +0.029 A 
BRANCH  30   6
ATOM      6  N   UNL     1       0.970   2.628  28.017  0.00  0.00    -0.336 N 
ATOM     32  C   UNL     1       2.347   3.048  27.838  0.00  0.00    +0.129 C 
ATOM     33  C   UNL     1       0.598   1.925  29.228  0.00  0.00    +0.129 C 
ENDBRANCH  30   6
ENDBRANCH  18  21
ENDBRANCH   4  18
ENDBRANCH  14   4
ENDBRANCH   9  14
TORSDOF 7
ENDMDL
MODEL 6
REMARK VINA RESULT:       4.3      3.140      5.746
REMARK  Name = 28990967
REMARK  10 active torsions:
REMARK  status: ('A' for Active; 'I' for Inactive)
REMARK    1  A    between atoms: N_3  and  C_19
REMARK    2  A    between atoms: N_4  and  C_14
REMARK    3  A    between atoms: N_4  and  C_18
REMARK    4  A    between atoms: N_6  and  C_30
REMARK    5  A    between atoms: N_6  and  C_32
REMARK    6  A    between atoms: N_6  and  C_33
REMARK    7  A    between atoms: C_8  and  C_15
REMARK    8  A    between atoms: C_9  and  C_14
REMARK    9  A    between atoms: C_17  and  C_20
REMARK   10  A    between atoms: C_18  and  C_21
REMARK                            x       y       z     vdW  Elec       q    Type
REMARK                         _______ _______ _______ _____ _____    ______ ____
ROOT
ATOM      2  N   UNL     1      -4.582   2.196  23.567  0.00  0.00    -0.298 NA
ATOM      7  C   UNL     1      -4.288   3.581  25.753  0.00  0.00    +0.002 C 
ATOM      8  C   UNL     1      -2.988   3.623  24.904  0.00  0.00    +0.055 C 
ATOM      9  C   UNL     1      -5.010   1.390  24.741  0.00  0.00    +0.071 C 
ATOM     10  C   UNL     1      -4.651   2.113  26.058  0.00  0.00    +0.024 C 
ATOM     11  C   UNL     1      -5.416   4.153  24.868  0.00  0.00    +0.019 C 
ATOM     12  C   UNL     1      -3.168   2.619  23.729  0.00  0.00    +0.094 C 
ATOM     13  C   UNL     1      -5.427   3.413  23.519  0.00  0.00    +0.085 C 
ENDROOT
BRANCH   8  15
ATOM      3  N   UNL     1      -0.455   3.691  25.025  0.00  0.00    -0.270 N 
ATOM      5  N   UNL     1       0.603   3.469  25.826  0.00  0.00    -0.171 NA
ATOM     15  C   UNL     1      -1.657   3.442  25.619  0.00  0.00    +0.044 A 
ATOM     16  C   UNL     1      -1.366   3.027  26.896  0.00  0.00    +0.053 A 
ATOM     17  C   UNL     1       0.039   3.064  26.967  0.00  0.00    +0.093 A 
ATOM     19  C   UNL     1      -0.231   4.150  23.674  0.00  0.00    +0.172 C 
BRANCH  17  20
ATOM      1  F   UNL     1       3.193   1.723  31.357  0.00  0.00    -0.205 F 
ATOM     20  C   UNL     1       0.853   2.717  28.102  0.00  0.00    +0.002 A 
ATOM     22  C   UNL     1       2.244   2.701  27.983  0.00  0.00    +0.013 A 
ATOM     23  C   UNL     1       0.253   2.398  29.320  0.00  0.00    +0.013 A 
ATOM     26  C   UNL     1       3.034   2.364  29.083  0.00  0.00    +0.039 A 
ATOM     27  C   UNL     1       1.044   2.062  30.419  0.00  0.00    +0.039 A 
ATOM     31  C   UNL     1       2.434   2.045  30.301  0.00  0.00    +0.123 A 
ENDBRANCH  17  20
ENDBRANCH   8  15
BRANCH   9  14
ATOM     14  C   UNL     1      -4.453  -0.036  24.703  0.00  0.00    +0.100 C 
BRANCH  14   4
ATOM      4  N   UNL     1      -4.128  -0.498  26.043  0.00  0.00    -0.311 NA
ATOM     34  H   UNL     1      -4.977  -0.855  26.484  0.00  0.00    +0.122 HD
BRANCH   4  18
ATOM     18  C   UNL     1      -3.132  -1.561  26.002  0.00  0.00    +0.116 C 
BRANCH  18  21
ATOM     21  C   UNL     1      -1.952  -1.190  25.142  0.00  0.00    -0.033 A 
ATOM     24  C   UNL     1      -1.279   0.012  25.364  0.00  0.00    +0.007 A 
ATOM     25  C   UNL     1      -1.533  -2.047  24.125  0.00  0.00    +0.007 A 
ATOM     28  C   UNL     1      -0.186   0.356  24.567  0.00  0.00    +0.023 A 
ATOM     29  C   UNL     1      -0.441  -1.702  23.327  0.00  0.00    +0.023 A 
ATOM     30  C   UNL     1       0.232  -0.502  23.550  0.00  0.00    +0.029 A 
BRANCH  30   6
ATOM      6  N   UNL     1       1.337  -0.153  22.745  0.00  0.00    -0.336 N 
ATOM     32  C   UNL     1       2.431   0.622  23.298  0.00  0.00    +0.129 C 
ATOM     33  C   UNL     1       1.391  -0.558  21.354  0.00  0.00    +0.129 C 
ENDBRANCH  30   6
ENDBRANCH  18  21
ENDBRANCH   4  18
ENDBRANCH  14   4
ENDBRANCH   9  14
TORSDOF 7
ENDMDL
