MODEL 1
REMARK VINA RESULT:      -4.9      0.000      0.000
REMARK  Name = 51137603
REMARK  6 active torsions:
REMARK  status: ('A' for Active; 'I' for Inactive)
REMARK    1  A    between atoms: O_3  and  C_18
REMARK    2  A    between atoms: O_3  and  C_21
REMARK    3  A    between atoms: N_4  and  C_12
REMARK    4  A    between atoms: C_8  and  C_13
REMARK    5  A    between atoms: C_12  and  C_14
REMARK    6  A    between atoms: C_15  and  C_18
REMARK                            x       y       z     vdW  Elec       q    Type
REMARK                         _______ _______ _______ _____ _____    ______ ____
ROOT
ATOM      2  O   UNL     1      -3.269   2.083  24.568  0.00  0.00    -0.421 OA
ATOM      5  N   UNL     1      -3.279   4.311  24.761  0.00  0.00    -0.112 NA
ATOM      6  N   UNL     1      -4.570   3.860  24.963  0.00  0.00    -0.109 NA
ATOM     13  C   UNL     1      -2.554   3.241  24.534  0.00  0.00    +0.222 A 
ATOM     15  C   UNL     1      -4.517   2.553  24.841  0.00  0.00    +0.254 A 
ENDROOT
BRANCH  13   8
ATOM      4  N   UNL     1       0.598   1.579  23.683  0.00  0.00    -0.297 NA
ATOM      8  C   UNL     1      -1.075   3.122  24.249  0.00  0.00    +0.092 C 
ATOM      9  C   UNL     1      -0.199   2.839  25.481  0.00  0.00    +0.029 C 
ATOM     10  C   UNL     1      -0.745   1.987  23.268  0.00  0.00    +0.097 C 
ATOM     11  C   UNL     1       0.551   1.556  25.145  0.00  0.00    +0.085 C 
BRANCH   4  12
ATOM     12  C   UNL     1       0.987   0.294  23.121  0.00  0.00    +0.119 C 
BRANCH  12  14
ATOM      7  N   UNL     1       5.238  -0.323  23.326  0.00  0.00    -0.263 NA
ATOM     14  C   UNL     1       2.475   0.077  23.193  0.00  0.00    -0.031 A 
ATOM     16  C   UNL     1       2.983  -1.146  23.619  0.00  0.00    +0.024 A 
ATOM     17  C   UNL     1       3.346   1.099  22.833  0.00  0.00    +0.024 A 
ATOM     19  C   UNL     1       4.360  -1.294  23.667  0.00  0.00    +0.111 A 
ATOM     20  C   UNL     1       4.707   0.850  22.917  0.00  0.00    +0.111 A 
ENDBRANCH  12  14
ENDBRANCH   4  12
ENDBRANCH  13   8
BRANCH  15  18
ATOM     18  C   UNL     1      -5.590   1.560  24.959  0.00  0.00    +0.326 C 
BRANCH  18   3
ATOM      3  O   UNL     1      -5.195   0.505  25.841  0.00  0.00    -0.483 OA
BRANCH   3  21
ATOM      1  F   UNL     1      -1.576  -3.122  23.853  0.00  0.00    -0.205 F 
ATOM     21  C   UNL     1      -4.295  -0.397  25.346  0.00  0.00    +0.121 A 
ATOM     22  C   UNL     1      -4.601  -1.131  24.201  0.00  0.00    +0.048 A 
ATOM     23  C   UNL     1      -3.071  -0.584  25.988  0.00  0.00    +0.048 A 
ATOM     24  C   UNL     1      -3.683  -2.051  23.696  0.00  0.00    +0.042 A 
ATOM     25  C   UNL     1      -2.153  -1.505  25.484  0.00  0.00    +0.042 A 
ATOM     26  C   UNL     1      -2.458  -2.238  24.338  0.00  0.00    +0.124 A 
ENDBRANCH   3  21
ENDBRANCH  18   3
ENDBRANCH  15  18
TORSDOF 6
ENDMDL
MODEL 2
REMARK VINA RESULT:      -4.6      2.457      3.827
REMARK  Name = 51137603
REMARK  6 active torsions:
REMARK  status: ('A' for Active; 'I' for Inactive)
REMARK    1  A    between atoms: O_3  and  C_18
REMARK    2  A    between atoms: O_3  and  C_21
REMARK    3  A    between atoms: N_4  and  C_12
REMARK    4  A    between atoms: C_8  and  C_13
REMARK    5  A    between atoms: C_12  and  C_14
REMARK    6  A    between atoms: C_15  and  C_18
REMARK                            x       y       z     vdW  Elec       q    Type
REMARK                         _______ _______ _______ _____ _____    ______ ____
ROOT
ATOM      2  O   UNL     1      -3.640   0.939  25.500  0.00  0.00    -0.421 OA
ATOM      5  N   UNL     1      -3.725  -0.801  24.098  0.00  0.00    -0.112 NA
ATOM      6  N   UNL     1      -5.008  -0.310  24.245  0.00  0.00    -0.109 NA
ATOM     13  C   UNL     1      -2.960  -0.043  24.847  0.00  0.00    +0.222 A 
ATOM     15  C   UNL     1      -4.911   0.707  25.072  0.00  0.00    +0.254 A 
ENDROOT
BRANCH  13   8
ATOM      4  N   UNL     1       0.586  -0.312  23.967  0.00  0.00    -0.297 NA
ATOM      8  C   UNL     1      -1.468  -0.110  25.079  0.00  0.00    +0.092 C 
ATOM      9  C   UNL     1      -0.909  -1.527  25.287  0.00  0.00    +0.029 C 
ATOM     10  C   UNL     1      -0.655   0.462  23.909  0.00  0.00    +0.097 C 
ATOM     11  C   UNL     1       0.161  -1.689  24.214  0.00  0.00    +0.085 C 
BRANCH   4  12
ATOM     12  C   UNL     1       1.377  -0.187  22.751  0.00  0.00    +0.119 C 
BRANCH  12  14
ATOM      7  N   UNL     1       5.596  -0.132  23.580  0.00  0.00    -0.263 NA
ATOM     14  C   UNL     1       2.854  -0.168  23.041  0.00  0.00    -0.031 A 
ATOM     16  C   UNL     1       3.473  -1.289  23.585  0.00  0.00    +0.024 A 
ATOM     17  C   UNL     1       3.604   0.970  22.766  0.00  0.00    +0.024 A 
ATOM     19  C   UNL     1       4.834  -1.220  23.833  0.00  0.00    +0.111 A 
ATOM     20  C   UNL     1       4.959   0.937  23.052  0.00  0.00    +0.111 A 
ENDBRANCH  12  14
ENDBRANCH   4  12
ENDBRANCH  13   8
BRANCH  15  18
ATOM     18  C   UNL     1      -5.957   1.601  25.580  0.00  0.00    +0.326 C 
BRANCH  18   3
ATOM      3  O   UNL     1      -5.779   2.921  25.057  0.00  0.00    -0.483 OA
BRANCH   3  21
ATOM      1  F   UNL     1      -0.668   4.938  25.193  0.00  0.00    -0.205 F 
ATOM     21  C   UNL     1      -4.508   3.422  25.090  0.00  0.00    +0.121 A 
ATOM     22  C   UNL     1      -3.973   3.885  26.292  0.00  0.00    +0.048 A 
ATOM     23  C   UNL     1      -3.746   3.471  23.923  0.00  0.00    +0.048 A 
ATOM     24  C   UNL     1      -2.676   4.397  26.327  0.00  0.00    +0.042 A 
ATOM     25  C   UNL     1      -2.449   3.983  23.958  0.00  0.00    +0.042 A 
ATOM     26  C   UNL     1      -1.914   4.446  25.160  0.00  0.00    +0.124 A 
ENDBRANCH   3  21
ENDBRANCH  18   3
ENDBRANCH  15  18
TORSDOF 6
ENDMDL
MODEL 3
REMARK VINA RESULT:      -4.6      1.698      2.420
REMARK  Name = 51137603
REMARK  6 active torsions:
REMARK  status: ('A' for Active; 'I' for Inactive)
REMARK    1  A    between atoms: O_3  and  C_18
REMARK    2  A    between atoms: O_3  and  C_21
REMARK    3  A    between atoms: N_4  and  C_12
REMARK    4  A    between atoms: C_8  and  C_13
REMARK    5  A    between atoms: C_12  and  C_14
REMARK    6  A    between atoms: C_15  and  C_18
REMARK                            x       y       z     vdW  Elec       q    Type
REMARK                         _______ _______ _______ _____ _____    ______ ____
ROOT
ATOM      2  O   UNL     1      -2.398   2.911  25.875  0.00  0.00    -0.421 OA
ATOM      5  N   UNL     1      -0.713   4.215  25.197  0.00  0.00    -0.112 NA
ATOM      6  N   UNL     1      -1.839   5.006  25.326  0.00  0.00    -0.109 NA
ATOM     13  C   UNL     1      -1.085   3.001  25.528  0.00  0.00    +0.222 A 
ATOM     15  C   UNL     1      -2.798   4.203  25.725  0.00  0.00    +0.254 A 
ENDROOT
BRANCH  13   8
ATOM      4  N   UNL     1       0.861   0.186  24.219  0.00  0.00    -0.297 NA
ATOM      8  C   UNL     1      -0.278   1.725  25.574  0.00  0.00    +0.092 C 
ATOM      9  C   UNL     1      -1.104   0.432  25.458  0.00  0.00    +0.029 C 
ATOM     10  C   UNL     1       0.755   1.629  24.442  0.00  0.00    +0.097 C 
ATOM     11  C   UNL     1      -0.517  -0.304  24.260  0.00  0.00    +0.085 C 
BRANCH   4  12
ATOM     12  C   UNL     1       1.525  -0.135  22.964  0.00  0.00    +0.119 C 
BRANCH  12  14
ATOM      7  N   UNL     1       5.800  -0.295  23.411  0.00  0.00    -0.263 NA
ATOM     14  C   UNL     1       3.021  -0.192  23.121  0.00  0.00    -0.031 A 
ATOM     16  C   UNL     1       3.623  -1.312  23.684  0.00  0.00    +0.024 A 
ATOM     17  C   UNL     1       3.807   0.877  22.702  0.00  0.00    +0.024 A 
ATOM     19  C   UNL     1       5.003  -1.315  23.806  0.00  0.00    +0.111 A 
ATOM     20  C   UNL     1       5.179   0.775  22.868  0.00  0.00    +0.111 A 
ENDBRANCH  12  14
ENDBRANCH   4  12
ENDBRANCH  13   8
BRANCH  15  18
ATOM     18  C   UNL     1      -4.204   4.502  26.023  0.00  0.00    +0.326 C 
BRANCH  18   3
ATOM      3  O   UNL     1      -5.056   3.910  25.038  0.00  0.00    -0.483 OA
BRANCH   3  21
ATOM      1  F   UNL     1      -3.892  -1.259  23.578  0.00  0.00    -0.205 F 
ATOM     21  C   UNL     1      -4.767   2.625  24.675  0.00  0.00    +0.121 A 
ATOM     22  C   UNL     1      -5.241   1.561  25.441  0.00  0.00    +0.048 A 
ATOM     23  C   UNL     1      -3.997   2.378  23.538  0.00  0.00    +0.048 A 
ATOM     24  C   UNL     1      -4.946   0.249  25.070  0.00  0.00    +0.042 A 
ATOM     25  C   UNL     1      -3.702   1.066  23.168  0.00  0.00    +0.042 A 
ATOM     26  C   UNL     1      -4.176   0.001  23.934  0.00  0.00    +0.124 A 
ENDBRANCH   3  21
ENDBRANCH  18   3
ENDBRANCH  15  18
TORSDOF 6
ENDMDL
MODEL 4
REMARK VINA RESULT:      -3.9      2.801      6.498
REMARK  Name = 51137603
REMARK  6 active torsions:
REMARK  status: ('A' for Active; 'I' for Inactive)
REMARK    1  A    between atoms: O_3  and  C_18
REMARK    2  A    between atoms: O_3  and  C_21
REMARK    3  A    between atoms: N_4  and  C_12
REMARK    4  A    between atoms: C_8  and  C_13
REMARK    5  A    between atoms: C_12  and  C_14
REMARK    6  A    between atoms: C_15  and  C_18
REMARK                            x       y       z     vdW  Elec       q    Type
REMARK                         _______ _______ _______ _____ _____    ______ ____
ROOT
ATOM      2  O   UNL     1      -1.796  -0.234  24.203  0.00  0.00    -0.421 OA
ATOM      5  N   UNL     1      -3.160  -2.007  24.207  0.00  0.00    -0.112 NA
ATOM      6  N   UNL     1      -1.863  -2.467  24.325  0.00  0.00    -0.109 NA
ATOM     13  C   UNL     1      -3.074  -0.699  24.139  0.00  0.00    +0.222 A 
ATOM     15  C   UNL     1      -1.100  -1.398  24.319  0.00  0.00    +0.254 A 
ENDROOT
BRANCH  13   8
ATOM      4  N   UNL     1      -4.732   2.542  24.556  0.00  0.00    -0.297 NA
ATOM      8  C   UNL     1      -4.168   0.333  24.002  0.00  0.00    +0.092 C 
ATOM      9  C   UNL     1      -5.206   0.330  25.138  0.00  0.00    +0.029 C 
ATOM     10  C   UNL     1      -3.634   1.772  23.968  0.00  0.00    +0.097 C 
ATOM     11  C   UNL     1      -5.181   1.747  25.698  0.00  0.00    +0.085 C 
BRANCH   4  12
ATOM     12  C   UNL     1      -4.326   3.885  24.942  0.00  0.00    +0.119 C 
BRANCH  12  14
ATOM      7  N   UNL     1      -0.063   4.195  25.423  0.00  0.00    -0.263 NA
ATOM     14  C   UNL     1      -2.834   3.993  25.110  0.00  0.00    -0.031 A 
ATOM     16  C   UNL     1      -2.126   2.974  25.740  0.00  0.00    +0.024 A 
ATOM     17  C   UNL     1      -2.158   5.112  24.637  0.00  0.00    +0.024 A 
ATOM     19  C   UNL     1      -0.755   3.122  25.870  0.00  0.00    +0.111 A 
ATOM     20  C   UNL     1      -0.785   5.164  24.817  0.00  0.00    +0.111 A 
ENDBRANCH  12  14
ENDBRANCH   4  12
ENDBRANCH  13   8
BRANCH  15  18
ATOM     18  C   UNL     1       0.361  -1.292  24.420  0.00  0.00    +0.326 C 
BRANCH  18   3
ATOM      3  O   UNL     1       0.880  -0.536  23.322  0.00  0.00    -0.483 OA
BRANCH   3  21
ATOM      1  F   UNL     1       6.328   0.176  23.195  0.00  0.00    -0.205 F 
ATOM     21  C   UNL     1       2.234  -0.359  23.290  0.00  0.00    +0.121 A 
ATOM     22  C   UNL     1       2.771   0.829  22.794  0.00  0.00    +0.048 A 
ATOM     23  C   UNL     1       3.081  -1.366  23.754  0.00  0.00    +0.048 A 
ATOM     24  C   UNL     1       4.153   1.009  22.762  0.00  0.00    +0.042 A 
ATOM     25  C   UNL     1       4.463  -1.185  23.722  0.00  0.00    +0.042 A 
ATOM     26  C   UNL     1       5.000   0.002  23.225  0.00  0.00    +0.124 A 
ENDBRANCH   3  21
ENDBRANCH  18   3
ENDBRANCH  15  18
TORSDOF 6
ENDMDL
MODEL 5
REMARK VINA RESULT:      -3.6      2.522      5.932
REMARK  Name = 51137603
REMARK  6 active torsions:
REMARK  status: ('A' for Active; 'I' for Inactive)
REMARK    1  A    between atoms: O_3  and  C_18
REMARK    2  A    between atoms: O_3  and  C_21
REMARK    3  A    between atoms: N_4  and  C_12
REMARK    4  A    between atoms: C_8  and  C_13
REMARK    5  A    between atoms: C_12  and  C_14
REMARK    6  A    between atoms: C_15  and  C_18
REMARK                            x       y       z     vdW  Elec       q    Type
REMARK                         _______ _______ _______ _____ _____    ______ ____
ROOT
ATOM      2  O   UNL     1      -0.010   0.895  25.303  0.00  0.00    -0.421 OA
ATOM      5  N   UNL     1       0.487   2.051  23.455  0.00  0.00    -0.112 NA
ATOM      6  N   UNL     1       0.724   0.715  23.198  0.00  0.00    -0.109 NA
ATOM     13  C   UNL     1       0.060   2.110  24.694  0.00  0.00    +0.222 A 
ATOM     15  C   UNL     1       0.419   0.076  24.304  0.00  0.00    +0.254 A 
ENDROOT
BRANCH  13   8
ATOM      4  N   UNL     1      -2.217   4.573  26.169  0.00  0.00    -0.297 NA
ATOM      8  C   UNL     1      -0.352   3.310  25.515  0.00  0.00    +0.092 C 
ATOM      9  C   UNL     1      -0.363   4.644  24.751  0.00  0.00    +0.029 C 
ATOM     10  C   UNL     1      -1.769   3.181  26.093  0.00  0.00    +0.097 C 
ATOM     11  C   UNL     1      -1.780   5.179  24.912  0.00  0.00    +0.085 C 
BRANCH   4  12
ATOM     12  C   UNL     1      -3.655   4.684  26.367  0.00  0.00    +0.119 C 
BRANCH  12  14
ATOM      7  N   UNL     1      -5.798   1.538  24.364  0.00  0.00    -0.263 NA
ATOM     14  C   UNL     1      -4.405   3.583  25.665  0.00  0.00    -0.031 A 
ATOM     16  C   UNL     1      -4.034   3.192  24.383  0.00  0.00    +0.024 A 
ATOM     17  C   UNL     1      -5.471   2.953  26.298  0.00  0.00    +0.024 A 
ATOM     19  C   UNL     1      -4.756   2.174  23.781  0.00  0.00    +0.111 A 
ATOM     20  C   UNL     1      -6.128   1.945  25.610  0.00  0.00    +0.111 A 
ENDBRANCH  12  14
ENDBRANCH   4  12
ENDBRANCH  13   8
BRANCH  15  18
ATOM     18  C   UNL     1       0.477  -1.360  24.601  0.00  0.00    +0.326 C 
BRANCH  18   3
ATOM      3  O   UNL     1      -0.528  -1.709  25.558  0.00  0.00    -0.483 OA
BRANCH   3  21
ATOM      1  F   UNL     1      -5.637  -2.332  23.629  0.00  0.00    -0.205 F 
ATOM     21  C   UNL     1      -1.798  -1.864  25.078  0.00  0.00    +0.121 A 
ATOM     22  C   UNL     1      -2.099  -2.931  24.232  0.00  0.00    +0.048 A 
ATOM     23  C   UNL     1      -2.794  -0.955  25.435  0.00  0.00    +0.048 A 
ATOM     24  C   UNL     1      -3.395  -3.089  23.742  0.00  0.00    +0.042 A 
ATOM     25  C   UNL     1      -4.091  -1.113  24.945  0.00  0.00    +0.042 A 
ATOM     26  C   UNL     1      -4.391  -2.180  24.099  0.00  0.00    +0.124 A 
ENDBRANCH   3  21
ENDBRANCH  18   3
ENDBRANCH  15  18
TORSDOF 6
ENDMDL
MODEL 6
REMARK VINA RESULT:      -3.6      3.146      7.328
REMARK  Name = 51137603
REMARK  6 active torsions:
REMARK  status: ('A' for Active; 'I' for Inactive)
REMARK    1  A    between atoms: O_3  and  C_18
REMARK    2  A    between atoms: O_3  and  C_21
REMARK    3  A    between atoms: N_4  and  C_12
REMARK    4  A    between atoms: C_8  and  C_13
REMARK    5  A    between atoms: C_12  and  C_14
REMARK    6  A    between atoms: C_15  and  C_18
REMARK                            x       y       z     vdW  Elec       q    Type
REMARK                         _______ _______ _______ _____ _____    ______ ____
ROOT
ATOM      2  O   UNL     1       0.338   1.084  23.748  0.00  0.00    -0.421 OA
ATOM      5  N   UNL     1      -0.589  -0.175  25.347  0.00  0.00    -0.112 NA
ATOM      6  N   UNL     1      -0.194  -1.012  24.322  0.00  0.00    -0.109 NA
ATOM     13  C   UNL     1      -0.259   1.038  24.971  0.00  0.00    +0.222 A 
ATOM     15  C   UNL     1       0.342  -0.234  23.409  0.00  0.00    +0.254 A 
ENDROOT
BRANCH  13   8
ATOM      4  N   UNL     1      -1.956   4.127  25.971  0.00  0.00    -0.297 NA
ATOM      8  C   UNL     1      -0.447   2.354  25.688  0.00  0.00    +0.092 C 
ATOM      9  C   UNL     1       0.059   3.587  24.920  0.00  0.00    +0.029 C 
ATOM     10  C   UNL     1      -1.919   2.664  25.994  0.00  0.00    +0.097 C 
ATOM     11  C   UNL     1      -1.151   4.507  24.810  0.00  0.00    +0.085 C 
BRANCH   4  12
ATOM     12  C   UNL     1      -3.313   4.648  25.898  0.00  0.00    +0.119 C 
BRANCH  12  14
ATOM      7  N   UNL     1      -6.137   1.606  24.775  0.00  0.00    -0.263 NA
ATOM     14  C   UNL     1      -4.302   3.584  25.505  0.00  0.00    -0.031 A 
ATOM     16  C   UNL     1      -5.346   3.250  26.362  0.00  0.00    +0.024 A 
ATOM     17  C   UNL     1      -4.175   2.931  24.284  0.00  0.00    +0.024 A 
ATOM     19  C   UNL     1      -6.229   2.263  25.953  0.00  0.00    +0.111 A 
ATOM     20  C   UNL     1      -5.111   1.958  23.969  0.00  0.00    +0.111 A 
ENDBRANCH  12  14
ENDBRANCH   4  12
ENDBRANCH  13   8
BRANCH  15  18
ATOM     18  C   UNL     1       0.931  -0.585  22.111  0.00  0.00    +0.326 C 
BRANCH  18   3
ATOM      3  O   UNL     1       2.082   0.225  21.855  0.00  0.00    -0.483 OA
BRANCH   3  21
ATOM      1  F   UNL     1       6.546  -0.835  24.881  0.00  0.00    -0.205 F 
ATOM     21  C   UNL     1       3.192  -0.039  22.607  0.00  0.00    +0.121 A 
ATOM     22  C   UNL     1       4.162   0.947  22.789  0.00  0.00    +0.048 A 
ATOM     23  C   UNL     1       3.356  -1.294  23.194  0.00  0.00    +0.048 A 
ATOM     24  C   UNL     1       5.295   0.678  23.557  0.00  0.00    +0.042 A 
ATOM     25  C   UNL     1       4.489  -1.562  23.961  0.00  0.00    +0.042 A 
ATOM     26  C   UNL     1       5.458  -0.576  24.143  0.00  0.00    +0.124 A 
ENDBRANCH   3  21
ENDBRANCH  18   3
ENDBRANCH  15  18
TORSDOF 6
ENDMDL
MODEL 7
REMARK VINA RESULT:      -3.2      2.702      6.932
REMARK  Name = 51137603
REMARK  6 active torsions:
REMARK  status: ('A' for Active; 'I' for Inactive)
REMARK    1  A    between atoms: O_3  and  C_18
REMARK    2  A    between atoms: O_3  and  C_21
REMARK    3  A    between atoms: N_4  and  C_12
REMARK    4  A    between atoms: C_8  and  C_13
REMARK    5  A    between atoms: C_12  and  C_14
REMARK    6  A    between atoms: C_15  and  C_18
REMARK                            x       y       z     vdW  Elec       q    Type
REMARK                         _______ _______ _______ _____ _____    ______ ____
ROOT
ATOM      2  O   UNL     1      -0.681   1.119  23.717  0.00  0.00    -0.421 OA
ATOM      5  N   UNL     1       0.451   2.829  24.609  0.00  0.00    -0.112 NA
ATOM      6  N   UNL     1       1.348   2.038  23.917  0.00  0.00    -0.109 NA
ATOM     13  C   UNL     1      -0.721   2.255  24.465  0.00  0.00    +0.222 A 
ATOM     15  C   UNL     1       0.643   1.052  23.412  0.00  0.00    +0.254 A 
ENDROOT
BRANCH  13   8
ATOM      4  N   UNL     1      -4.276   1.928  25.290  0.00  0.00    -0.297 NA
ATOM      8  C   UNL     1      -2.070   2.672  25.002  0.00  0.00    +0.092 C 
ATOM      9  C   UNL     1      -2.986   3.369  23.981  0.00  0.00    +0.029 C 
ATOM     10  C   UNL     1      -2.898   1.489  25.523  0.00  0.00    +0.097 C 
ATOM     11  C   UNL     1      -4.259   2.533  23.959  0.00  0.00    +0.085 C 
BRANCH   4  12
ATOM     12  C   UNL     1      -5.232   0.835  25.391  0.00  0.00    +0.119 C 
BRANCH  12  14
ATOM      7  N   UNL     1      -3.410  -2.971  24.559  0.00  0.00    -0.263 NA
ATOM     14  C   UNL     1      -4.594  -0.497  25.099  0.00  0.00    -0.031 A 
ATOM     16  C   UNL     1      -4.774  -1.101  23.859  0.00  0.00    +0.024 A 
ATOM     17  C   UNL     1      -3.823  -1.128  26.069  0.00  0.00    +0.024 A 
ATOM     19  C   UNL     1      -4.166  -2.327  23.641  0.00  0.00    +0.111 A 
ATOM     20  C   UNL     1      -3.258  -2.353  25.751  0.00  0.00    +0.111 A 
ENDBRANCH  12  14
ENDBRANCH   4  12
ENDBRANCH  13   8
BRANCH  15  18
ATOM     18  C   UNL     1       1.078  -0.080  22.585  0.00  0.00    +0.326 C 
BRANCH  18   3
ATOM      3  O   UNL     1       2.341   0.207  21.977  0.00  0.00    -0.483 OA
BRANCH   3  21
ATOM      1  F   UNL     1       6.814  -0.964  24.947  0.00  0.00    -0.205 F 
ATOM     21  C   UNL     1       3.453  -0.084  22.715  0.00  0.00    +0.121 A 
ATOM     22  C   UNL     1       3.577  -1.331  23.327  0.00  0.00    +0.048 A 
ATOM     23  C   UNL     1       4.464   0.866  22.858  0.00  0.00    +0.048 A 
ATOM     24  C   UNL     1       4.712  -1.629  24.081  0.00  0.00    +0.042 A 
ATOM     25  C   UNL     1       5.600   0.568  23.611  0.00  0.00    +0.042 A 
ATOM     26  C   UNL     1       5.724  -0.679  24.223  0.00  0.00    +0.124 A 
ENDBRANCH   3  21
ENDBRANCH  18   3
ENDBRANCH  15  18
TORSDOF 6
ENDMDL
MODEL 8
REMARK VINA RESULT:      -3.0      1.165      1.726
REMARK  Name = 51137603
REMARK  6 active torsions:
REMARK  status: ('A' for Active; 'I' for Inactive)
REMARK    1  A    between atoms: O_3  and  C_18
REMARK    2  A    between atoms: O_3  and  C_21
REMARK    3  A    between atoms: N_4  and  C_12
REMARK    4  A    between atoms: C_8  and  C_13
REMARK    5  A    between atoms: C_12  and  C_14
REMARK    6  A    between atoms: C_15  and  C_18
REMARK                            x       y       z     vdW  Elec       q    Type
REMARK                         _______ _______ _______ _____ _____    ______ ____
ROOT
ATOM      2  O   UNL     1      -3.878   2.324  24.563  0.00  0.00    -0.421 OA
ATOM      5  N   UNL     1      -4.208   4.517  24.853  0.00  0.00    -0.112 NA
ATOM      6  N   UNL     1      -5.402   3.870  25.106  0.00  0.00    -0.109 NA
ATOM     13  C   UNL     1      -3.347   3.577  24.540  0.00  0.00    +0.222 A 
ATOM     15  C   UNL     1      -5.163   2.591  24.926  0.00  0.00    +0.254 A 
ENDROOT
BRANCH  13   8
ATOM      4  N   UNL     1       0.197   2.651  24.438  0.00  0.00    -0.297 NA
ATOM      8  C   UNL     1      -1.887   3.692  24.167  0.00  0.00    +0.092 C 
ATOM      9  C   UNL     1      -1.030   4.506  25.152  0.00  0.00    +0.029 C 
ATOM     10  C   UNL     1      -1.185   2.331  24.073  0.00  0.00    +0.097 C 
ATOM     11  C   UNL     1       0.084   3.559  25.579  0.00  0.00    +0.085 C 
BRANCH   4  12
ATOM     12  C   UNL     1       0.979   1.464  24.750  0.00  0.00    +0.119 C 
BRANCH  12  14
ATOM      7  N   UNL     1       2.806  -0.220  21.240  0.00  0.00    -0.263 NA
ATOM     14  C   UNL     1       1.618   0.874  23.521  0.00  0.00    -0.031 A 
ATOM     16  C   UNL     1       0.884   0.040  22.684  0.00  0.00    +0.024 A 
ATOM     17  C   UNL     1       2.944   1.163  23.218  0.00  0.00    +0.024 A 
ATOM     19  C   UNL     1       1.519  -0.477  21.566  0.00  0.00    +0.111 A 
ATOM     20  C   UNL     1       3.486   0.595  22.076  0.00  0.00    +0.111 A 
ENDBRANCH  12  14
ENDBRANCH   4  12
ENDBRANCH  13   8
BRANCH  15  18
ATOM     18  C   UNL     1      -6.067   1.443  25.060  0.00  0.00    +0.326 C 
BRANCH  18   3
ATOM      3  O   UNL     1      -5.500   0.465  25.937  0.00  0.00    -0.483 OA
BRANCH   3  21
ATOM      1  F   UNL     1      -1.573  -2.741  23.816  0.00  0.00    -0.205 F 
ATOM     21  C   UNL     1      -4.524  -0.332  25.409  0.00  0.00    +0.121 A 
ATOM     22  C   UNL     1      -3.282  -0.422  26.037  0.00  0.00    +0.048 A 
ATOM     23  C   UNL     1      -4.769  -1.056  24.242  0.00  0.00    +0.048 A 
ATOM     24  C   UNL     1      -2.285  -1.235  25.499  0.00  0.00    +0.042 A 
ATOM     25  C   UNL     1      -3.772  -1.870  23.704  0.00  0.00    +0.042 A 
ATOM     26  C   UNL     1      -2.530  -1.959  24.333  0.00  0.00    +0.124 A 
ENDBRANCH   3  21
ENDBRANCH  18   3
ENDBRANCH  15  18
TORSDOF 6
ENDMDL
MODEL 9
REMARK VINA RESULT:      -2.8      2.747      7.306
REMARK  Name = 51137603
REMARK  6 active torsions:
REMARK  status: ('A' for Active; 'I' for Inactive)
REMARK    1  A    between atoms: O_3  and  C_18
REMARK    2  A    between atoms: O_3  and  C_21
REMARK    3  A    between atoms: N_4  and  C_12
REMARK    4  A    between atoms: C_8  and  C_13
REMARK    5  A    between atoms: C_12  and  C_14
REMARK    6  A    between atoms: C_15  and  C_18
REMARK                            x       y       z     vdW  Elec       q    Type
REMARK                         _______ _______ _______ _____ _____    ______ ____
ROOT
ATOM      2  O   UNL     1      -1.422   0.179  23.809  0.00  0.00    -0.421 OA
ATOM      5  N   UNL     1      -1.392  -1.972  24.419  0.00  0.00    -0.112 NA
ATOM      6  N   UNL     1      -0.100  -1.603  24.096  0.00  0.00    -0.109 NA
ATOM     13  C   UNL     1      -2.130  -0.902  24.238  0.00  0.00    +0.222 A 
ATOM     15  C   UNL     1      -0.165  -0.339  23.746  0.00  0.00    +0.254 A 
ENDROOT
BRANCH  13   8
ATOM      4  N   UNL     1      -5.243   0.907  24.915  0.00  0.00    -0.297 NA
ATOM      8  C   UNL     1      -3.615  -0.712  24.434  0.00  0.00    +0.092 C 
ATOM      9  C   UNL     1      -4.105  -0.889  25.881  0.00  0.00    +0.029 C 
ATOM     10  C   UNL     1      -4.098   0.688  24.028  0.00  0.00    +0.097 C 
ATOM     11  C   UNL     1      -4.807   0.420  26.223  0.00  0.00    +0.085 C 
BRANCH   4  12
ATOM     12  C   UNL     1      -5.657   2.302  24.953  0.00  0.00    +0.119 C 
BRANCH  12  14
ATOM      7  N   UNL     1      -2.301   4.959  25.371  0.00  0.00    -0.263 NA
ATOM     14  C   UNL     1      -4.482   3.232  25.099  0.00  0.00    -0.031 A 
ATOM     16  C   UNL     1      -3.738   3.598  23.982  0.00  0.00    +0.024 A 
ATOM     17  C   UNL     1      -4.137   3.728  26.351  0.00  0.00    +0.024 A 
ATOM     19  C   UNL     1      -2.667   4.456  24.170  0.00  0.00    +0.111 A 
ATOM     20  C   UNL     1      -3.048   4.581  26.433  0.00  0.00    +0.111 A 
ENDBRANCH  12  14
ENDBRANCH   4  12
ENDBRANCH  13   8
BRANCH  15  18
ATOM     18  C   UNL     1       0.905   0.567  23.310  0.00  0.00    +0.326 C 
BRANCH  18   3
ATOM      3  O   UNL     1       1.842  -0.134  22.487  0.00  0.00    -0.483 OA
BRANCH   3  21
ATOM      1  F   UNL     1       7.032  -0.306  24.287  0.00  0.00    -0.205 F 
ATOM     21  C   UNL     1       3.133  -0.177  22.935  0.00  0.00    +0.121 A 
ATOM     22  C   UNL     1       3.960   0.936  22.784  0.00  0.00    +0.048 A 
ATOM     23  C   UNL     1       3.622  -1.333  23.541  0.00  0.00    +0.048 A 
ATOM     24  C   UNL     1       5.277   0.892  23.241  0.00  0.00    +0.042 A 
ATOM     25  C   UNL     1       4.940  -1.377  23.998  0.00  0.00    +0.042 A 
ATOM     26  C   UNL     1       5.767  -0.264  23.848  0.00  0.00    +0.124 A 
ENDBRANCH   3  21
ENDBRANCH  18   3
ENDBRANCH  15  18
TORSDOF 6
ENDMDL
MODEL 10
REMARK VINA RESULT:      -2.5      2.326      4.664
REMARK  Name = 51137603
REMARK  6 active torsions:
REMARK  status: ('A' for Active; 'I' for Inactive)
REMARK    1  A    between atoms: O_3  and  C_18
REMARK    2  A    between atoms: O_3  and  C_21
REMARK    3  A    between atoms: N_4  and  C_12
REMARK    4  A    between atoms: C_8  and  C_13
REMARK    5  A    between atoms: C_12  and  C_14
REMARK    6  A    between atoms: C_15  and  C_18
REMARK                            x       y       z     vdW  Elec       q    Type
REMARK                         _______ _______ _______ _____ _____    ______ ____
ROOT
ATOM      2  O   UNL     1      -4.054   1.465  24.279  0.00  0.00    -0.421 OA
ATOM      5  N   UNL     1      -5.836   1.262  25.614  0.00  0.00    -0.112 NA
ATOM      6  N   UNL     1      -5.817   2.553  25.122  0.00  0.00    -0.109 NA
ATOM     13  C   UNL     1      -4.790   0.663  25.096  0.00  0.00    +0.222 A 
ATOM     15  C   UNL     1      -4.760   2.627  24.347  0.00  0.00    +0.254 A 
ENDROOT
BRANCH  13   8
ATOM      4  N   UNL     1      -2.384  -2.100  25.169  0.00  0.00    -0.297 NA
ATOM      8  C   UNL     1      -4.303  -0.756  25.277  0.00  0.00    +0.092 C 
ATOM      9  C   UNL     1      -4.355  -1.625  24.009  0.00  0.00    +0.029 C 
ATOM     10  C   UNL     1      -2.842  -0.832  25.742  0.00  0.00    +0.097 C 
ATOM     11  C   UNL     1      -2.927  -2.118  23.811  0.00  0.00    +0.085 C 
BRANCH   4  12
ATOM     12  C   UNL     1      -0.934  -2.226  25.187  0.00  0.00    +0.119 C 
BRANCH  12  14
ATOM      7  N   UNL     1       0.984   1.006  23.096  0.00  0.00    -0.263 NA
ATOM     14  C   UNL     1      -0.263  -1.095  24.456  0.00  0.00    -0.031 A 
ATOM     16  C   UNL     1      -0.578   0.223  24.768  0.00  0.00    +0.024 A 
ATOM     17  C   UNL     1       0.675  -1.364  23.465  0.00  0.00    +0.024 A 
ATOM     19  C   UNL     1       0.067   1.228  24.066  0.00  0.00    +0.111 A 
ATOM     20  C   UNL     1       1.264  -0.287  22.822  0.00  0.00    +0.111 A 
ENDBRANCH  12  14
ENDBRANCH   4  12
ENDBRANCH  13   8
BRANCH  15  18
ATOM     18  C   UNL     1      -4.252   3.760  23.564  0.00  0.00    +0.326 C 
BRANCH  18   3
ATOM      3  O   UNL     1      -3.579   4.690  24.418  0.00  0.00    -0.483 OA
BRANCH   3  21
ATOM      1  F   UNL     1       0.956   2.867  26.931  0.00  0.00    -0.205 F 
ATOM     21  C   UNL     1      -2.451   4.236  25.043  0.00  0.00    +0.121 A 
ATOM     22  C   UNL     1      -1.195   4.530  24.513  0.00  0.00    +0.048 A 
ATOM     23  C   UNL     1      -2.556   3.480  26.210  0.00  0.00    +0.048 A 
ATOM     24  C   UNL     1      -0.044   4.067  25.151  0.00  0.00    +0.042 A 
ATOM     25  C   UNL     1      -1.405   3.018  26.848  0.00  0.00    +0.042 A 
ATOM     26  C   UNL     1      -0.149   3.311  26.318  0.00  0.00    +0.124 A 
ENDBRANCH   3  21
ENDBRANCH  18   3
ENDBRANCH  15  18
TORSDOF 6
ENDMDL
