MODEL 1
REMARK VINA RESULT:      -4.2      0.000      0.000
REMARK  Name = 38026580
REMARK  8 active torsions:
REMARK  status: ('A' for Active; 'I' for Inactive)
REMARK    1  A    between atoms: S_1  and  N_6
REMARK    2  A    between atoms: S_1  and  C_15
REMARK    3  A    between atoms: N_5  and  C_14
REMARK    4  A    between atoms: N_6  and  C_9
REMARK    5  A    between atoms: C_10  and  C_13
REMARK    6  A    between atoms: C_15  and  C_16
REMARK    7  A    between atoms: C_16  and  C_18
REMARK    8  A    between atoms: C_17  and  C_19
REMARK                            x       y       z     vdW  Elec       q    Type
REMARK                         _______ _______ _______ _____ _____    ______ ____
ROOT
ATOM      5  N   UNL     1      -2.561  -0.740  24.745  0.00  0.00    -0.293 NA
ATOM      9  C   UNL     1      -4.162   0.890  24.275  0.00  0.00    +0.092 C 
ATOM     10  C   UNL     1      -2.066  -0.100  23.511  0.00  0.00    +0.147 C 
ATOM     11  C   UNL     1      -3.009   1.100  23.296  0.00  0.00    +0.050 C 
ATOM     12  C   UNL     1      -4.014  -0.551  24.739  0.00  0.00    +0.105 C 
ATOM     14  C   UNL     1      -2.198  -2.148  24.847  0.00  0.00    +0.105 C 
ENDROOT
BRANCH  10  13
ATOM      2  O   UNL     1      -0.361   1.599  23.932  0.00  0.00    -0.336 OA
ATOM      7  N   UNL     1       0.464  -0.402  23.356  0.00  0.00    -0.190 NA
ATOM      8  N   UNL     1       1.033   1.738  23.930  0.00  0.00    -0.056 NA
ATOM     13  C   UNL     1      -0.610   0.310  23.583  0.00  0.00    +0.245 A 
ATOM     17  C   UNL     1       1.448   0.517  23.581  0.00  0.00    +0.202 A 
BRANCH  17  19
ATOM     19  C   UNL     1       2.837   0.182  23.450  0.00  0.00    +0.022 A 
ATOM     20  C   UNL     1       3.737   1.127  22.957  0.00  0.00    +0.012 A 
ATOM     21  C   UNL     1       3.287  -1.087  23.813  0.00  0.00    +0.012 A 
ATOM     22  C   UNL     1       5.088   0.803  22.830  0.00  0.00    +0.001 A 
ATOM     23  C   UNL     1       4.637  -1.411  23.686  0.00  0.00    +0.001 A 
ATOM     24  C   UNL     1       5.538  -0.466  23.194  0.00  0.00    +0.000 A 
ENDBRANCH  17  19
ENDBRANCH  10  13
BRANCH   9   6
ATOM      6  N   UNL     1      -4.018   1.813  25.430  0.00  0.00    -0.190 NA
ATOM     25  H   UNL     1      -4.017   1.399  26.370  0.00  0.00    +0.148 HD
BRANCH   6   1
ATOM      1  S   UNL     1      -4.426   3.452  25.227  0.00  0.00    +0.030 S 
ATOM      3  O   UNL     1      -5.715   3.721  25.833  0.00  0.00    -0.158 OA
ATOM      4  O   UNL     1      -4.163   3.817  23.848  0.00  0.00    -0.158 OA
BRANCH   1  15
ATOM     15  C   UNL     1      -3.178   4.228  26.228  0.00  0.00    +0.185 C 
BRANCH  15  16
ATOM     16  C   UNL     1      -1.781   3.869  25.747  0.00  0.00    +0.021 C 
ATOM     18  C   UNL     1      -1.132   5.030  25.011  0.00  0.00    +0.005 C 
ENDBRANCH  15  16
ENDBRANCH   1  15
ENDBRANCH   6   1
ENDBRANCH   9   6
TORSDOF 6
ENDMDL
MODEL 2
REMARK VINA RESULT:      -2.9      1.716      2.422
REMARK  Name = 38026580
REMARK  8 active torsions:
REMARK  status: ('A' for Active; 'I' for Inactive)
REMARK    1  A    between atoms: S_1  and  N_6
REMARK    2  A    between atoms: S_1  and  C_15
REMARK    3  A    between atoms: N_5  and  C_14
REMARK    4  A    between atoms: N_6  and  C_9
REMARK    5  A    between atoms: C_10  and  C_13
REMARK    6  A    between atoms: C_15  and  C_16
REMARK    7  A    between atoms: C_16  and  C_18
REMARK    8  A    between atoms: C_17  and  C_19
REMARK                            x       y       z     vdW  Elec       q    Type
REMARK                         _______ _______ _______ _____ _____    ______ ____
ROOT
ATOM      5  N   UNL     1      -1.749  -0.607  24.633  0.00  0.00    -0.293 NA
ATOM      9  C   UNL     1      -2.894   1.416  24.430  0.00  0.00    +0.092 C 
ATOM     10  C   UNL     1      -1.467  -0.174  23.251  0.00  0.00    +0.147 C 
ATOM     11  C   UNL     1      -2.056   1.247  23.165  0.00  0.00    +0.050 C 
ATOM     12  C   UNL     1      -3.031   0.008  24.990  0.00  0.00    +0.105 C 
ATOM     14  C   UNL     1      -1.783  -2.056  24.785  0.00  0.00    +0.105 C 
ENDROOT
BRANCH  10  13
ATOM      2  O   UNL     1       0.303  -0.281  21.568  0.00  0.00    -0.336 OA
ATOM      7  N   UNL     1       1.050  -0.202  23.678  0.00  0.00    -0.190 NA
ATOM      8  N   UNL     1       1.701  -0.311  21.487  0.00  0.00    -0.056 NA
ATOM     13  C   UNL     1       0.004  -0.217  22.892  0.00  0.00    +0.245 A 
ATOM     17  C   UNL     1       2.068  -0.261  22.771  0.00  0.00    +0.202 A 
BRANCH  17  19
ATOM     19  C   UNL     1       3.443  -0.268  23.180  0.00  0.00    +0.022 A 
ATOM     20  C   UNL     1       3.998  -1.420  23.738  0.00  0.00    +0.012 A 
ATOM     21  C   UNL     1       4.225   0.877  23.023  0.00  0.00    +0.012 A 
ATOM     22  C   UNL     1       5.335  -1.428  24.137  0.00  0.00    +0.001 A 
ATOM     23  C   UNL     1       5.561   0.869  23.420  0.00  0.00    +0.001 A 
ATOM     24  C   UNL     1       6.117  -0.284  23.978  0.00  0.00    +0.000 A 
ENDBRANCH  17  19
ENDBRANCH  10  13
BRANCH   9   6
ATOM      6  N   UNL     1      -2.175   2.281  25.401  0.00  0.00    -0.190 NA
ATOM     25  H   UNL     1      -1.617   1.816  26.126  0.00  0.00    +0.148 HD
BRANCH   6   1
ATOM      1  S   UNL     1      -2.723   3.873  25.644  0.00  0.00    +0.030 S 
ATOM      3  O   UNL     1      -1.827   4.811  24.998  0.00  0.00    -0.158 OA
ATOM      4  O   UNL     1      -3.073   4.022  27.043  0.00  0.00    -0.158 OA
BRANCH   1  15
ATOM     15  C   UNL     1      -4.243   3.842  24.719  0.00  0.00    +0.185 C 
BRANCH  15  16
ATOM     16  C   UNL     1      -5.423   3.482  25.607  0.00  0.00    +0.021 C 
ATOM     18  C   UNL     1      -6.072   2.181  25.166  0.00  0.00    +0.005 C 
ENDBRANCH  15  16
ENDBRANCH   1  15
ENDBRANCH   6   1
ENDBRANCH   9   6
TORSDOF 6
ENDMDL
MODEL 3
REMARK VINA RESULT:      -2.1      2.518      4.026
REMARK  Name = 38026580
REMARK  8 active torsions:
REMARK  status: ('A' for Active; 'I' for Inactive)
REMARK    1  A    between atoms: S_1  and  N_6
REMARK    2  A    between atoms: S_1  and  C_15
REMARK    3  A    between atoms: N_5  and  C_14
REMARK    4  A    between atoms: N_6  and  C_9
REMARK    5  A    between atoms: C_10  and  C_13
REMARK    6  A    between atoms: C_15  and  C_16
REMARK    7  A    between atoms: C_16  and  C_18
REMARK    8  A    between atoms: C_17  and  C_19
REMARK                            x       y       z     vdW  Elec       q    Type
REMARK                         _______ _______ _______ _____ _____    ______ ____
ROOT
ATOM      5  N   UNL     1      -3.803   2.575  24.145  0.00  0.00    -0.293 NA
ATOM      9  C   UNL     1      -4.927   0.788  25.137  0.00  0.00    +0.092 C 
ATOM     10  C   UNL     1      -2.972   2.238  25.316  0.00  0.00    +0.147 C 
ATOM     11  C   UNL     1      -3.597   0.942  25.869  0.00  0.00    +0.050 C 
ATOM     12  C   UNL     1      -5.162   2.139  24.479  0.00  0.00    +0.105 C 
ATOM     14  C   UNL     1      -3.758   3.990  23.797  0.00  0.00    +0.105 C 
ENDROOT
BRANCH  10  13
ATOM      2  O   UNL     1      -0.628   2.727  25.807  0.00  0.00    -0.336 OA
ATOM      7  N   UNL     1      -0.933   1.406  24.024  0.00  0.00    -0.190 NA
ATOM      8  N   UNL     1       0.650   2.438  25.314  0.00  0.00    -0.056 NA
ATOM     13  C   UNL     1      -1.502   2.081  24.991  0.00  0.00    +0.245 A 
ATOM     17  C   UNL     1       0.387   1.655  24.263  0.00  0.00    +0.202 A 
BRANCH  17  19
ATOM     19  C   UNL     1       1.420   1.105  23.434  0.00  0.00    +0.022 A 
ATOM     20  C   UNL     1       1.122   0.076  22.540  0.00  0.00    +0.012 A 
ATOM     21  C   UNL     1       2.723   1.597  23.521  0.00  0.00    +0.012 A 
ATOM     22  C   UNL     1       2.126  -0.459  21.732  0.00  0.00    +0.001 A 
ATOM     23  C   UNL     1       3.726   1.062  22.714  0.00  0.00    +0.001 A 
ATOM     24  C   UNL     1       3.428   0.034  21.820  0.00  0.00    +0.000 A 
ENDBRANCH  17  19
ENDBRANCH  10  13
BRANCH   9   6
ATOM      6  N   UNL     1      -4.813  -0.269  24.099  0.00  0.00    -0.190 NA
ATOM     25  H   UNL     1      -5.493  -0.253  23.330  0.00  0.00    +0.148 HD
BRANCH   6   1
ATOM      1  S   UNL     1      -4.005  -1.715  24.486  0.00  0.00    +0.030 S 
ATOM      3  O   UNL     1      -4.560  -2.814  23.722  0.00  0.00    -0.158 OA
ATOM      4  O   UNL     1      -3.890  -1.797  25.930  0.00  0.00    -0.158 OA
BRANCH   1  15
ATOM     15  C   UNL     1      -2.382  -1.367  23.845  0.00  0.00    +0.185 C 
BRANCH  15  16
ATOM     16  C   UNL     1      -1.350  -2.335  24.399  0.00  0.00    +0.021 C 
ATOM     18  C   UNL     1      -0.417  -1.649  25.383  0.00  0.00    +0.005 C 
ENDBRANCH  15  16
ENDBRANCH   1  15
ENDBRANCH   6   1
ENDBRANCH   9   6
TORSDOF 6
ENDMDL
MODEL 4
REMARK VINA RESULT:      -2.0      2.364      3.709
REMARK  Name = 38026580
REMARK  8 active torsions:
REMARK  status: ('A' for Active; 'I' for Inactive)
REMARK    1  A    between atoms: S_1  and  N_6
REMARK    2  A    between atoms: S_1  and  C_15
REMARK    3  A    between atoms: N_5  and  C_14
REMARK    4  A    between atoms: N_6  and  C_9
REMARK    5  A    between atoms: C_10  and  C_13
REMARK    6  A    between atoms: C_15  and  C_16
REMARK    7  A    between atoms: C_16  and  C_18
REMARK    8  A    between atoms: C_17  and  C_19
REMARK                            x       y       z     vdW  Elec       q    Type
REMARK                         _______ _______ _______ _____ _____    ______ ____
ROOT
ATOM      5  N   UNL     1      -2.546   1.709  22.895  0.00  0.00    -0.293 NA
ATOM      9  C   UNL     1      -3.368   1.641  25.077  0.00  0.00    +0.092 C 
ATOM     10  C   UNL     1      -1.369   2.020  23.729  0.00  0.00    +0.147 C 
ATOM     11  C   UNL     1      -1.852   1.791  25.174  0.00  0.00    +0.050 C 
ATOM     12  C   UNL     1      -3.713   2.128  23.678  0.00  0.00    +0.105 C 
ATOM     14  C   UNL     1      -2.510   2.355  21.588  0.00  0.00    +0.105 C 
ENDROOT
BRANCH  10  13
ATOM      2  O   UNL     1      -0.339   0.164  22.517  0.00  0.00    -0.336 OA
ATOM      7  N   UNL     1       1.084   1.318  23.805  0.00  0.00    -0.190 NA
ATOM      8  N   UNL     1       0.913  -0.445  22.357  0.00  0.00    -0.056 NA
ATOM     13  C   UNL     1      -0.149   1.192  23.385  0.00  0.00    +0.245 A 
ATOM     17  C   UNL     1       1.699   0.292  23.148  0.00  0.00    +0.202 A 
BRANCH  17  19
ATOM     19  C   UNL     1       3.101   0.030  23.302  0.00  0.00    +0.022 A 
ATOM     20  C   UNL     1       4.029   1.044  23.064  0.00  0.00    +0.012 A 
ATOM     21  C   UNL     1       3.536  -1.238  23.688  0.00  0.00    +0.012 A 
ATOM     22  C   UNL     1       5.393   0.791  23.213  0.00  0.00    +0.001 A 
ATOM     23  C   UNL     1       4.899  -1.491  23.837  0.00  0.00    +0.001 A 
ATOM     24  C   UNL     1       5.828  -0.477  23.600  0.00  0.00    +0.000 A 
ENDBRANCH  17  19
ENDBRANCH  10  13
BRANCH   9   6
ATOM      6  N   UNL     1      -3.746   0.212  25.225  0.00  0.00    -0.190 NA
ATOM     25  H   UNL     1      -4.747  -0.014  25.234  0.00  0.00    +0.148 HD
BRANCH   6   1
ATOM      1  S   UNL     1      -2.628  -0.864  25.922  0.00  0.00    +0.030 S 
ATOM      3  O   UNL     1      -3.268  -1.639  26.966  0.00  0.00    -0.158 OA
ATOM      4  O   UNL     1      -1.401  -0.136  26.183  0.00  0.00    -0.158 OA
BRANCH   1  15
ATOM     15  C   UNL     1      -2.316  -1.949  24.547  0.00  0.00    +0.185 C 
BRANCH  15  16
ATOM     16  C   UNL     1      -3.437  -2.962  24.377  0.00  0.00    +0.021 C 
ATOM     18  C   UNL     1      -4.561  -2.407  23.517  0.00  0.00    +0.005 C 
ENDBRANCH  15  16
ENDBRANCH   1  15
ENDBRANCH   6   1
ENDBRANCH   9   6
TORSDOF 6
ENDMDL
MODEL 5
REMARK VINA RESULT:      -2.0      3.186      5.250
REMARK  Name = 38026580
REMARK  8 active torsions:
REMARK  status: ('A' for Active; 'I' for Inactive)
REMARK    1  A    between atoms: S_1  and  N_6
REMARK    2  A    between atoms: S_1  and  C_15
REMARK    3  A    between atoms: N_5  and  C_14
REMARK    4  A    between atoms: N_6  and  C_9
REMARK    5  A    between atoms: C_10  and  C_13
REMARK    6  A    between atoms: C_15  and  C_16
REMARK    7  A    between atoms: C_16  and  C_18
REMARK    8  A    between atoms: C_17  and  C_19
REMARK                            x       y       z     vdW  Elec       q    Type
REMARK                         _______ _______ _______ _____ _____    ______ ____
ROOT
ATOM      5  N   UNL     1      -0.920   4.145  24.463  0.00  0.00    -0.293 NA
ATOM      9  C   UNL     1      -2.506   5.067  25.904  0.00  0.00    +0.092 C 
ATOM     10  C   UNL     1      -0.936   3.221  25.613  0.00  0.00    +0.147 C 
ATOM     11  C   UNL     1      -2.112   3.710  26.482  0.00  0.00    +0.050 C 
ATOM     12  C   UNL     1      -1.353   5.444  24.987  0.00  0.00    +0.105 C 
ATOM     14  C   UNL     1       0.382   4.229  23.813  0.00  0.00    +0.105 C 
ENDROOT
BRANCH  10  13
ATOM      2  O   UNL     1       0.085   1.093  24.980  0.00  0.00    -0.336 OA
ATOM      7  N   UNL     1      -2.152   1.043  25.070  0.00  0.00    -0.190 NA
ATOM      8  N   UNL     1      -0.289  -0.213  24.637  0.00  0.00    -0.056 NA
ATOM     13  C   UNL     1      -1.071   1.765  25.219  0.00  0.00    +0.245 A 
ATOM     17  C   UNL     1      -1.623  -0.163  24.713  0.00  0.00    +0.202 A 
BRANCH  17  19
ATOM     19  C   UNL     1      -2.453  -1.300  24.439  0.00  0.00    +0.022 A 
ATOM     20  C   UNL     1      -3.788  -1.117  24.077  0.00  0.00    +0.012 A 
ATOM     21  C   UNL     1      -1.928  -2.589  24.537  0.00  0.00    +0.012 A 
ATOM     22  C   UNL     1      -4.597  -2.222  23.810  0.00  0.00    +0.001 A 
ATOM     23  C   UNL     1      -2.736  -3.693  24.270  0.00  0.00    +0.001 A 
ATOM     24  C   UNL     1      -4.071  -3.510  23.907  0.00  0.00    +0.000 A 
ENDBRANCH  17  19
ENDBRANCH  10  13
BRANCH   9   6
ATOM      6  N   UNL     1      -3.759   4.935  25.117  0.00  0.00    -0.190 NA
ATOM     25  H   UNL     1      -4.068   5.753  24.578  0.00  0.00    +0.148 HD
BRANCH   6   1
ATOM      1  S   UNL     1      -4.884   3.737  25.558  0.00  0.00    +0.030 S 
ATOM      3  O   UNL     1      -6.224   4.288  25.551  0.00  0.00    -0.158 OA
ATOM      4  O   UNL     1      -4.371   3.043  26.723  0.00  0.00    -0.158 OA
BRANCH   1  15
ATOM     15  C   UNL     1      -4.741   2.627  24.175  0.00  0.00    +0.185 C 
BRANCH  15  16
ATOM     16  C   UNL     1      -3.971   3.266  23.031  0.00  0.00    +0.021 C 
ATOM     18  C   UNL     1      -3.084   2.254  22.326  0.00  0.00    +0.005 C 
ENDBRANCH  15  16
ENDBRANCH   1  15
ENDBRANCH   6   1
ENDBRANCH   9   6
TORSDOF 6
ENDMDL
MODEL 6
REMARK VINA RESULT:      -1.8      1.472      3.122
REMARK  Name = 38026580
REMARK  8 active torsions:
REMARK  status: ('A' for Active; 'I' for Inactive)
REMARK    1  A    between atoms: S_1  and  N_6
REMARK    2  A    between atoms: S_1  and  C_15
REMARK    3  A    between atoms: N_5  and  C_14
REMARK    4  A    between atoms: N_6  and  C_9
REMARK    5  A    between atoms: C_10  and  C_13
REMARK    6  A    between atoms: C_15  and  C_16
REMARK    7  A    between atoms: C_16  and  C_18
REMARK    8  A    between atoms: C_17  and  C_19
REMARK                            x       y       z     vdW  Elec       q    Type
REMARK                         _______ _______ _______ _____ _____    ______ ____
ROOT
ATOM      5  N   UNL     1      -2.613   2.250  23.001  0.00  0.00    -0.293 NA
ATOM      9  C   UNL     1      -3.219   3.136  25.072  0.00  0.00    +0.092 C 
ATOM     10  C   UNL     1      -1.331   2.676  23.595  0.00  0.00    +0.147 C 
ATOM     11  C   UNL     1      -1.693   3.086  25.036  0.00  0.00    +0.050 C 
ATOM     12  C   UNL     1      -3.639   3.101  23.611  0.00  0.00    +0.105 C 
ATOM     14  C   UNL     1      -2.629   2.340  21.546  0.00  0.00    +0.105 C 
ENDROOT
BRANCH  10  13
ATOM      2  O   UNL     1      -0.685   0.321  23.505  0.00  0.00    -0.336 OA
ATOM      7  N   UNL     1       1.045   1.743  23.538  0.00  0.00    -0.190 NA
ATOM      8  N   UNL     1       0.471  -0.470  23.466  0.00  0.00    -0.056 NA
ATOM     13  C   UNL     1      -0.257   1.610  23.546  0.00  0.00    +0.245 A 
ATOM     17  C   UNL     1       1.448   0.441  23.489  0.00  0.00    +0.202 A 
BRANCH  17  19
ATOM     19  C   UNL     1       2.837   0.082  23.461  0.00  0.00    +0.022 A 
ATOM     20  C   UNL     1       3.792   1.022  23.071  0.00  0.00    +0.012 A 
ATOM     21  C   UNL     1       3.233  -1.206  23.822  0.00  0.00    +0.012 A 
ATOM     22  C   UNL     1       5.143   0.675  23.045  0.00  0.00    +0.001 A 
ATOM     23  C   UNL     1       4.583  -1.553  23.796  0.00  0.00    +0.001 A 
ATOM     24  C   UNL     1       5.538  -0.613  23.407  0.00  0.00    +0.000 A 
ENDBRANCH  17  19
ENDBRANCH  10  13
BRANCH   9   6
ATOM      6  N   UNL     1      -3.746   1.942  25.782  0.00  0.00    -0.190 NA
ATOM     25  H   UNL     1      -3.065   1.320  26.233  0.00  0.00    +0.148 HD
BRANCH   6   1
ATOM      1  S   UNL     1      -5.285   1.351  25.361  0.00  0.00    +0.030 S 
ATOM      3  O   UNL     1      -5.875   2.186  24.334  0.00  0.00    -0.158 OA
ATOM      4  O   UNL     1      -6.007   1.059  26.585  0.00  0.00    -0.158 OA
BRANCH   1  15
ATOM     15  C   UNL     1      -4.849  -0.205  24.619  0.00  0.00    +0.185 C 
BRANCH  15  16
ATOM     16  C   UNL     1      -3.680  -0.854  25.343  0.00  0.00    +0.021 C 
ATOM     18  C   UNL     1      -3.423  -2.262  24.832  0.00  0.00    +0.005 C 
ENDBRANCH  15  16
ENDBRANCH   1  15
ENDBRANCH   6   1
ENDBRANCH   9   6
TORSDOF 6
ENDMDL
MODEL 7
REMARK VINA RESULT:      -1.7      1.825      2.434
REMARK  Name = 38026580
REMARK  8 active torsions:
REMARK  status: ('A' for Active; 'I' for Inactive)
REMARK    1  A    between atoms: S_1  and  N_6
REMARK    2  A    between atoms: S_1  and  C_15
REMARK    3  A    between atoms: N_5  and  C_14
REMARK    4  A    between atoms: N_6  and  C_9
REMARK    5  A    between atoms: C_10  and  C_13
REMARK    6  A    between atoms: C_15  and  C_16
REMARK    7  A    between atoms: C_16  and  C_18
REMARK    8  A    between atoms: C_17  and  C_19
REMARK                            x       y       z     vdW  Elec       q    Type
REMARK                         _______ _______ _______ _____ _____    ______ ____
ROOT
ATOM      5  N   UNL     1      -3.806   0.750  24.882  0.00  0.00    -0.293 NA
ATOM      9  C   UNL     1      -4.161   2.899  24.048  0.00  0.00    +0.092 C 
ATOM     10  C   UNL     1      -3.025   0.780  23.631  0.00  0.00    +0.147 C 
ATOM     11  C   UNL     1      -3.095   2.249  23.170  0.00  0.00    +0.050 C 
ATOM     12  C   UNL     1      -4.880   1.732  24.706  0.00  0.00    +0.105 C 
ATOM     14  C   UNL     1      -4.329  -0.573  25.201  0.00  0.00    +0.105 C 
ENDROOT
BRANCH  10  13
ATOM      2  O   UNL     1      -1.419  -0.775  24.620  0.00  0.00    -0.336 OA
ATOM      7  N   UNL     1      -0.501   0.742  23.252  0.00  0.00    -0.190 NA
ATOM      8  N   UNL     1      -0.044  -1.041  24.610  0.00  0.00    -0.056 NA
ATOM     13  C   UNL     1      -1.602   0.289  23.794  0.00  0.00    +0.245 A 
ATOM     17  C   UNL     1       0.429  -0.105  23.782  0.00  0.00    +0.202 A 
BRANCH  17  19
ATOM     19  C   UNL     1       1.823   0.010  23.463  0.00  0.00    +0.022 A 
ATOM     20  C   UNL     1       2.669  -1.086  23.636  0.00  0.00    +0.012 A 
ATOM     21  C   UNL     1       2.332   1.216  22.981  0.00  0.00    +0.012 A 
ATOM     22  C   UNL     1       4.025  -0.976  23.326  0.00  0.00    +0.001 A 
ATOM     23  C   UNL     1       3.687   1.326  22.671  0.00  0.00    +0.001 A 
ATOM     24  C   UNL     1       4.534   0.230  22.843  0.00  0.00    +0.000 A 
ENDBRANCH  17  19
ENDBRANCH  10  13
BRANCH   9   6
ATOM      6  N   UNL     1      -3.516   3.747  25.082  0.00  0.00    -0.190 NA
ATOM     25  H   UNL     1      -4.117   4.393  25.608  0.00  0.00    +0.148 HD
BRANCH   6   1
ATOM      1  S   UNL     1      -1.844   4.044  24.975  0.00  0.00    +0.030 S 
ATOM      3  O   UNL     1      -1.548   5.390  25.421  0.00  0.00    -0.158 OA
ATOM      4  O   UNL     1      -1.383   3.571  23.683  0.00  0.00    -0.158 OA
BRANCH   1  15
ATOM     15  C   UNL     1      -1.230   2.912  26.202  0.00  0.00    +0.185 C 
BRANCH  15  16
ATOM     16  C   UNL     1       0.278   2.750  26.100  0.00  0.00    +0.021 C 
ATOM     18  C   UNL     1       0.910   2.554  27.468  0.00  0.00    +0.005 C 
ENDBRANCH  15  16
ENDBRANCH   1  15
ENDBRANCH   6   1
ENDBRANCH   9   6
TORSDOF 6
ENDMDL
MODEL 8
REMARK VINA RESULT:      -1.2      1.587      3.738
REMARK  Name = 38026580
REMARK  8 active torsions:
REMARK  status: ('A' for Active; 'I' for Inactive)
REMARK    1  A    between atoms: S_1  and  N_6
REMARK    2  A    between atoms: S_1  and  C_15
REMARK    3  A    between atoms: N_5  and  C_14
REMARK    4  A    between atoms: N_6  and  C_9
REMARK    5  A    between atoms: C_10  and  C_13
REMARK    6  A    between atoms: C_15  and  C_16
REMARK    7  A    between atoms: C_16  and  C_18
REMARK    8  A    between atoms: C_17  and  C_19
REMARK                            x       y       z     vdW  Elec       q    Type
REMARK                         _______ _______ _______ _____ _____    ______ ____
ROOT
ATOM      5  N   UNL     1      -1.851   4.424  24.889  0.00  0.00    -0.293 NA
ATOM      9  C   UNL     1      -3.730   3.558  25.967  0.00  0.00    +0.092 C 
ATOM     10  C   UNL     1      -1.331   3.258  25.629  0.00  0.00    +0.147 C 
ATOM     11  C   UNL     1      -2.590   2.568  26.189  0.00  0.00    +0.050 C 
ATOM     12  C   UNL     1      -3.038   4.869  25.625  0.00  0.00    +0.105 C 
ATOM     14  C   UNL     1      -0.872   5.494  24.741  0.00  0.00    +0.105 C 
ENDROOT
BRANCH  10  13
ATOM      2  O   UNL     1      -1.149   1.577  23.864  0.00  0.00    -0.336 OA
ATOM      7  N   UNL     1       0.807   2.138  24.798  0.00  0.00    -0.190 NA
ATOM      8  N   UNL     1      -0.173   0.811  23.214  0.00  0.00    -0.056 NA
ATOM     13  C   UNL     1      -0.487   2.330  24.781  0.00  0.00    +0.245 A 
ATOM     17  C   UNL     1       0.953   1.198  23.820  0.00  0.00    +0.202 A 
BRANCH  17  19
ATOM     19  C   UNL     1       2.238   0.666  23.471  0.00  0.00    +0.022 A 
ATOM     20  C   UNL     1       2.511  -0.687  23.674  0.00  0.00    +0.012 A 
ATOM     21  C   UNL     1       3.217   1.501  22.930  0.00  0.00    +0.012 A 
ATOM     22  C   UNL     1       3.761  -1.206  23.335  0.00  0.00    +0.001 A 
ATOM     23  C   UNL     1       4.466   0.983  22.590  0.00  0.00    +0.001 A 
ATOM     24  C   UNL     1       4.738  -0.371  22.793  0.00  0.00    +0.000 A 
ENDBRANCH  17  19
ENDBRANCH  10  13
BRANCH   9   6
ATOM      6  N   UNL     1      -4.570   3.114  24.826  0.00  0.00    -0.190 NA
ATOM     25  H   UNL     1      -4.894   3.833  24.168  0.00  0.00    +0.148 HD
BRANCH   6   1
ATOM      1  S   UNL     1      -5.408   1.639  24.948  0.00  0.00    +0.030 S 
ATOM      3  O   UNL     1      -6.636   1.700  24.182  0.00  0.00    -0.158 OA
ATOM      4  O   UNL     1      -5.421   1.241  26.343  0.00  0.00    -0.158 OA
BRANCH   1  15
ATOM     15  C   UNL     1      -4.286   0.551  24.097  0.00  0.00    +0.185 C 
BRANCH  15  16
ATOM     16  C   UNL     1      -4.037  -0.719  24.894  0.00  0.00    +0.021 C 
ATOM     18  C   UNL     1      -4.198  -1.958  24.029  0.00  0.00    +0.005 C 
ENDBRANCH  15  16
ENDBRANCH   1  15
ENDBRANCH   6   1
ENDBRANCH   9   6
TORSDOF 6
ENDMDL
MODEL 9
REMARK VINA RESULT:      -0.7      2.147      6.339
REMARK  Name = 38026580
REMARK  8 active torsions:
REMARK  status: ('A' for Active; 'I' for Inactive)
REMARK    1  A    between atoms: S_1  and  N_6
REMARK    2  A    between atoms: S_1  and  C_15
REMARK    3  A    between atoms: N_5  and  C_14
REMARK    4  A    between atoms: N_6  and  C_9
REMARK    5  A    between atoms: C_10  and  C_13
REMARK    6  A    between atoms: C_15  and  C_16
REMARK    7  A    between atoms: C_16  and  C_18
REMARK    8  A    between atoms: C_17  and  C_19
REMARK                            x       y       z     vdW  Elec       q    Type
REMARK                         _______ _______ _______ _____ _____    ______ ____
ROOT
ATOM      5  N   UNL     1      -2.572   4.229  25.897  0.00  0.00    -0.293 NA
ATOM      9  C   UNL     1      -1.111   4.757  24.156  0.00  0.00    +0.092 C 
ATOM     10  C   UNL     1      -3.297   3.808  24.683  0.00  0.00    +0.147 C 
ATOM     11  C   UNL     1      -2.271   3.974  23.546  0.00  0.00    +0.050 C 
ATOM     12  C   UNL     1      -1.660   5.294  25.469  0.00  0.00    +0.105 C 
ATOM     14  C   UNL     1      -3.455   4.669  26.970  0.00  0.00    +0.105 C 
ENDROOT
BRANCH  10  13
ATOM      2  O   UNL     1      -5.174   2.287  25.055  0.00  0.00    -0.336 OA
ATOM      7  N   UNL     1      -3.239   1.257  24.599  0.00  0.00    -0.190 NA
ATOM      8  N   UNL     1      -5.450   0.914  25.078  0.00  0.00    -0.056 NA
ATOM     13  C   UNL     1      -3.852   2.401  24.766  0.00  0.00    +0.245 A 
ATOM     17  C   UNL     1      -4.259   0.374  24.800  0.00  0.00    +0.202 A 
BRANCH  17  19
ATOM     19  C   UNL     1      -4.057  -1.044  24.715  0.00  0.00    +0.022 A 
ATOM     20  C   UNL     1      -3.360  -1.710  25.724  0.00  0.00    +0.012 A 
ATOM     21  C   UNL     1      -4.555  -1.757  23.624  0.00  0.00    +0.012 A 
ATOM     22  C   UNL     1      -3.163  -3.089  25.642  0.00  0.00    +0.001 A 
ATOM     23  C   UNL     1      -4.359  -3.134  23.543  0.00  0.00    +0.001 A 
ATOM     24  C   UNL     1      -3.663  -3.801  24.552  0.00  0.00    +0.000 A 
ENDBRANCH  17  19
ENDBRANCH  10  13
BRANCH   9   6
ATOM      6  N   UNL     1       0.031   3.845  24.419  0.00  0.00    -0.190 NA
ATOM     25  H   UNL     1       0.977   4.239  24.348  0.00  0.00    +0.148 HD
BRANCH   6   1
ATOM      1  S   UNL     1      -0.202   2.168  24.255  0.00  0.00    +0.030 S 
ATOM      3  O   UNL     1      -1.035   1.892  23.102  0.00  0.00    -0.158 OA
ATOM      4  O   UNL     1      -0.537   1.628  25.559  0.00  0.00    -0.158 OA
BRANCH   1  15
ATOM     15  C   UNL     1       1.453   1.641  23.872  0.00  0.00    +0.185 C 
BRANCH  15  16
ATOM     16  C   UNL     1       1.451   0.355  23.062  0.00  0.00    +0.021 C 
ATOM     18  C   UNL     1       2.785   0.133  22.369  0.00  0.00    +0.005 C 
ENDBRANCH  15  16
ENDBRANCH   1  15
ENDBRANCH   6   1
ENDBRANCH   9   6
TORSDOF 6
ENDMDL
MODEL 10
REMARK VINA RESULT:      -0.5      3.094      4.698
REMARK  Name = 38026580
REMARK  8 active torsions:
REMARK  status: ('A' for Active; 'I' for Inactive)
REMARK    1  A    between atoms: S_1  and  N_6
REMARK    2  A    between atoms: S_1  and  C_15
REMARK    3  A    between atoms: N_5  and  C_14
REMARK    4  A    between atoms: N_6  and  C_9
REMARK    5  A    between atoms: C_10  and  C_13
REMARK    6  A    between atoms: C_15  and  C_16
REMARK    7  A    between atoms: C_16  and  C_18
REMARK    8  A    between atoms: C_17  and  C_19
REMARK                            x       y       z     vdW  Elec       q    Type
REMARK                         _______ _______ _______ _____ _____    ______ ____
ROOT
ATOM      5  N   UNL     1      -5.485   2.711  25.932  0.00  0.00    -0.293 NA
ATOM      9  C   UNL     1      -4.446   4.525  24.897  0.00  0.00    +0.092 C 
ATOM     10  C   UNL     1      -5.179   2.219  24.576  0.00  0.00    +0.147 C 
ATOM     11  C   UNL     1      -4.325   3.337  23.946  0.00  0.00    +0.050 C 
ATOM     12  C   UNL     1      -5.607   4.167  25.812  0.00  0.00    +0.105 C 
ATOM     14  C   UNL     1      -6.685   2.112  26.503  0.00  0.00    +0.105 C 
ENDROOT
BRANCH  10  13
ATOM      2  O   UNL     1      -5.227  -0.192  24.178  0.00  0.00    -0.336 OA
ATOM      7  N   UNL     1      -3.242   0.582  24.869  0.00  0.00    -0.190 NA
ATOM      8  N   UNL     1      -4.378  -1.304  24.245  0.00  0.00    -0.056 NA
ATOM     13  C   UNL     1      -4.480   0.876  24.562  0.00  0.00    +0.245 A 
ATOM     17  C   UNL     1      -3.226  -0.767  24.660  0.00  0.00    +0.202 A 
BRANCH  17  19
ATOM     19  C   UNL     1      -2.043  -1.549  24.873  0.00  0.00    +0.022 A 
ATOM     20  C   UNL     1      -0.996  -1.035  25.638  0.00  0.00    +0.012 A 
ATOM     21  C   UNL     1      -1.938  -2.823  24.314  0.00  0.00    +0.012 A 
ATOM     22  C   UNL     1       0.155  -1.795  25.847  0.00  0.00    +0.001 A 
ATOM     23  C   UNL     1      -0.788  -3.583  24.523  0.00  0.00    +0.001 A 
ATOM     24  C   UNL     1       0.259  -3.069  25.289  0.00  0.00    +0.000 A 
ENDBRANCH  17  19
ENDBRANCH  10  13
BRANCH   9   6
ATOM      6  N   UNL     1      -3.198   4.667  25.689  0.00  0.00    -0.190 NA
ATOM     25  H   UNL     1      -3.200   5.348  26.458  0.00  0.00    +0.148 HD
BRANCH   6   1
ATOM      1  S   UNL     1      -1.725   4.177  24.995  0.00  0.00    +0.030 S 
ATOM      3  O   UNL     1      -0.767   5.263  25.044  0.00  0.00    -0.158 OA
ATOM      4  O   UNL     1      -2.016   3.499  23.747  0.00  0.00    -0.158 OA
BRANCH   1  15
ATOM     15  C   UNL     1      -1.207   2.938  26.162  0.00  0.00    +0.185 C 
BRANCH  15  16
ATOM     16  C   UNL     1       0.227   2.503  25.908  0.00  0.00    +0.021 C 
ATOM     18  C   UNL     1       0.394   1.932  24.510  0.00  0.00    +0.005 C 
ENDBRANCH  15  16
ENDBRANCH   1  15
ENDBRANCH   6   1
ENDBRANCH   9   6
TORSDOF 6
ENDMDL
