MODEL 1
REMARK VINA RESULT:      -2.6      0.000      0.000
REMARK  Name = 51136866
REMARK  11 active torsions:
REMARK  status: ('A' for Active; 'I' for Inactive)
REMARK    1  A    between atoms: O_2  and  C_27
REMARK    2  A    between atoms: O_2  and  C_28
REMARK    3  A    between atoms: O_3  and  C_29
REMARK    4  A    between atoms: O_3  and  C_30
REMARK    5  A    between atoms: N_4  and  C_12
REMARK    6  A    between atoms: C_8  and  C_13
REMARK    7  A    between atoms: C_12  and  C_14
REMARK    8  A    between atoms: C_14  and  C_15
REMARK    9  A    between atoms: C_15  and  C_16
REMARK   10  A    between atoms: C_17  and  C_20
REMARK   11  A    between atoms: C_28  and  C_29
REMARK                            x       y       z     vdW  Elec       q    Type
REMARK                         _______ _______ _______ _____ _____    ______ ____
ROOT
ATOM      1  O   UNL     1      -2.352   2.979  25.699  0.00  0.00    -0.336 OA
ATOM      5  N   UNL     1      -2.193   1.941  23.721  0.00  0.00    -0.190 NA
ATOM      6  N   UNL     1      -1.011   2.599  25.566  0.00  0.00    -0.056 NA
ATOM     13  C   UNL     1      -2.977   2.553  24.570  0.00  0.00    +0.245 A 
ATOM     17  C   UNL     1      -0.996   1.993  24.376  0.00  0.00    +0.204 A 
ENDROOT
BRANCH  17  20
ATOM      7  N   UNL     1       2.579   1.588  23.432  0.00  0.00    -0.221 NA
ATOM     20  C   UNL     1       0.196   1.428  23.812  0.00  0.00    +0.041 A 
ATOM     23  C   UNL     1       0.159   0.224  23.118  0.00  0.00    +0.018 A 
ATOM     25  C   UNL     1       1.419   2.066  23.940  0.00  0.00    +0.126 A 
ATOM     26  C   UNL     1       1.330  -0.299  22.580  0.00  0.00    +0.068 A 
ATOM     27  C   UNL     1       2.503   0.416  22.764  0.00  0.00    +0.215 A 
BRANCH  27   2
ATOM      2  O   UNL     1       3.671  -0.079  22.245  0.00  0.00    -0.474 OA
BRANCH   2  28
ATOM     28  C   UNL     1       4.851   0.677  22.491  0.00  0.00    +0.258 C 
BRANCH  28  29
ATOM     29  C   UNL     1       5.818  -0.166  23.303  0.00  0.00    +0.200 C 
BRANCH  29   3
ATOM      3  O   UNL     1       5.107  -0.799  24.360  0.00  0.00    -0.380 OA
ATOM     30  C   UNL     1       4.686  -2.105  23.994  0.00  0.00    +0.194 C 
ENDBRANCH  29   3
ENDBRANCH  28  29
ENDBRANCH   2  28
ENDBRANCH  27   2
ENDBRANCH  17  20
BRANCH  13   8
ATOM      4  N   UNL     1      -5.239   2.220  25.554  0.00  0.00    -0.291 NA
ATOM      8  C   UNL     1      -4.459   2.849  24.468  0.00  0.00    +0.146 C 
ATOM      9  C   UNL     1      -4.774   4.352  24.581  0.00  0.00    +0.030 C 
ATOM     10  C   UNL     1      -6.401   3.081  25.780  0.00  0.00    +0.085 C 
ATOM     11  C   UNL     1      -5.783   4.464  25.714  0.00  0.00    +0.017 C 
BRANCH   4  12
ATOM     12  C   UNL     1      -5.624   0.845  25.264  0.00  0.00    +0.085 C 
BRANCH  12  14
ATOM     14  C   UNL     1      -4.744   0.272  24.154  0.00  0.00    +0.020 C 
BRANCH  14  15
ATOM     15  C   UNL     1      -4.488  -1.221  24.368  0.00  0.00    +0.036 C 
BRANCH  15  16
ATOM     16  C   UNL     1      -3.075  -1.485  24.824  0.00  0.00    -0.047 A 
ATOM     18  C   UNL     1      -2.304  -2.453  24.182  0.00  0.00    +0.003 A 
ATOM     19  C   UNL     1      -2.540  -0.761  25.890  0.00  0.00    +0.003 A 
ATOM     21  C   UNL     1      -0.997  -2.697  24.604  0.00  0.00    +0.000 A 
ATOM     22  C   UNL     1      -1.233  -1.004  26.312  0.00  0.00    +0.000 A 
ATOM     24  C   UNL     1      -0.462  -1.973  25.669  0.00  0.00    +0.000 A 
ENDBRANCH  15  16
ENDBRANCH  14  15
ENDBRANCH  12  14
ENDBRANCH   4  12
ENDBRANCH  13   8
TORSDOF 10
ENDMDL
MODEL 2
REMARK VINA RESULT:      -2.3      1.283      1.763
REMARK  Name = 51136866
REMARK  11 active torsions:
REMARK  status: ('A' for Active; 'I' for Inactive)
REMARK    1  A    between atoms: O_2  and  C_27
REMARK    2  A    between atoms: O_2  and  C_28
REMARK    3  A    between atoms: O_3  and  C_29
REMARK    4  A    between atoms: O_3  and  C_30
REMARK    5  A    between atoms: N_4  and  C_12
REMARK    6  A    between atoms: C_8  and  C_13
REMARK    7  A    between atoms: C_12  and  C_14
REMARK    8  A    between atoms: C_14  and  C_15
REMARK    9  A    between atoms: C_15  and  C_16
REMARK   10  A    between atoms: C_17  and  C_20
REMARK   11  A    between atoms: C_28  and  C_29
REMARK                            x       y       z     vdW  Elec       q    Type
REMARK                         _______ _______ _______ _____ _____    ______ ____
ROOT
ATOM      1  O   UNL     1      -3.208   2.165  22.773  0.00  0.00    -0.336 OA
ATOM      5  N   UNL     1      -1.481   2.484  24.162  0.00  0.00    -0.190 NA
ATOM      6  N   UNL     1      -2.154   1.397  22.265  0.00  0.00    -0.056 NA
ATOM     13  C   UNL     1      -2.727   2.773  23.889  0.00  0.00    +0.245 A 
ATOM     17  C   UNL     1      -1.171   1.636  23.137  0.00  0.00    +0.204 A 
ENDROOT
BRANCH  17  20
ATOM      7  N   UNL     1       2.496   1.140  23.510  0.00  0.00    -0.221 NA
ATOM     20  C   UNL     1       0.131   1.047  23.015  0.00  0.00    +0.041 A 
ATOM     23  C   UNL     1       0.317  -0.141  22.316  0.00  0.00    +0.018 A 
ATOM     25  C   UNL     1       1.243   1.643  23.588  0.00  0.00    +0.126 A 
ATOM     26  C   UNL     1       1.591  -0.688  22.213  0.00  0.00    +0.068 A 
ATOM     27  C   UNL     1       2.637  -0.015  22.823  0.00  0.00    +0.215 A 
BRANCH  27   2
ATOM      2  O   UNL     1       3.903  -0.534  22.736  0.00  0.00    -0.474 OA
BRANCH   2  28
ATOM     28  C   UNL     1       4.359  -1.296  23.847  0.00  0.00    +0.258 C 
BRANCH  28  29
ATOM     29  C   UNL     1       5.499  -0.555  24.521  0.00  0.00    +0.200 C 
BRANCH  29   3
ATOM      3  O   UNL     1       6.177   0.234  23.551  0.00  0.00    -0.380 OA
ATOM     30  C   UNL     1       7.200  -0.506  22.901  0.00  0.00    +0.194 C 
ENDBRANCH  29   3
ENDBRANCH  28  29
ENDBRANCH   2  28
ENDBRANCH  27   2
ENDBRANCH  17  20
BRANCH  13   8
ATOM      4  N   UNL     1      -4.518   2.935  25.609  0.00  0.00    -0.291 NA
ATOM      8  C   UNL     1      -3.689   3.674  24.634  0.00  0.00    +0.146 C 
ATOM      9  C   UNL     1      -2.971   4.750  25.468  0.00  0.00    +0.030 C 
ATOM     10  C   UNL     1      -4.832   3.879  26.683  0.00  0.00    +0.085 C 
ATOM     11  C   UNL     1      -3.503   4.580  26.884  0.00  0.00    +0.017 C 
BRANCH   4  12
ATOM     12  C   UNL     1      -5.718   2.354  25.021  0.00  0.00    +0.085 C 
BRANCH  12  14
ATOM     14  C   UNL     1      -5.545   0.847  24.844  0.00  0.00    +0.020 C 
BRANCH  14  15
ATOM     15  C   UNL     1      -4.616   0.269  25.914  0.00  0.00    +0.036 C 
BRANCH  15  16
ATOM     16  C   UNL     1      -3.664  -0.747  25.337  0.00  0.00    -0.047 A 
ATOM     18  C   UNL     1      -4.140  -1.740  24.482  0.00  0.00    +0.003 A 
ATOM     19  C   UNL     1      -2.308  -0.695  25.660  0.00  0.00    +0.003 A 
ATOM     21  C   UNL     1      -3.259  -2.682  23.948  0.00  0.00    +0.000 A 
ATOM     22  C   UNL     1      -1.427  -1.635  25.125  0.00  0.00    +0.000 A 
ATOM     24  C   UNL     1      -1.903  -2.629  24.269  0.00  0.00    +0.000 A 
ENDBRANCH  15  16
ENDBRANCH  14  15
ENDBRANCH  12  14
ENDBRANCH   4  12
ENDBRANCH  13   8
TORSDOF 10
ENDMDL
MODEL 3
REMARK VINA RESULT:      -1.2      1.763      3.564
REMARK  Name = 51136866
REMARK  11 active torsions:
REMARK  status: ('A' for Active; 'I' for Inactive)
REMARK    1  A    between atoms: O_2  and  C_27
REMARK    2  A    between atoms: O_2  and  C_28
REMARK    3  A    between atoms: O_3  and  C_29
REMARK    4  A    between atoms: O_3  and  C_30
REMARK    5  A    between atoms: N_4  and  C_12
REMARK    6  A    between atoms: C_8  and  C_13
REMARK    7  A    between atoms: C_12  and  C_14
REMARK    8  A    between atoms: C_14  and  C_15
REMARK    9  A    between atoms: C_15  and  C_16
REMARK   10  A    between atoms: C_17  and  C_20
REMARK   11  A    between atoms: C_28  and  C_29
REMARK                            x       y       z     vdW  Elec       q    Type
REMARK                         _______ _______ _______ _____ _____    ______ ____
ROOT
ATOM      1  O   UNL     1      -2.641  -0.845  24.592  0.00  0.00    -0.336 OA
ATOM      5  N   UNL     1      -1.637   1.120  24.212  0.00  0.00    -0.190 NA
ATOM      6  N   UNL     1      -1.374  -1.149  24.078  0.00  0.00    -0.056 NA
ATOM     13  C   UNL     1      -2.714   0.511  24.637  0.00  0.00    +0.245 A 
ATOM     17  C   UNL     1      -0.843   0.061  23.878  0.00  0.00    +0.204 A 
ENDROOT
BRANCH  17  20
ATOM      7  N   UNL     1       2.583   1.433  23.415  0.00  0.00    -0.221 NA
ATOM     20  C   UNL     1       0.477   0.247  23.348  0.00  0.00    +0.041 A 
ATOM     23  C   UNL     1       0.940  -0.531  22.293  0.00  0.00    +0.018 A 
ATOM     25  C   UNL     1       1.328   1.207  23.869  0.00  0.00    +0.126 A 
ATOM     26  C   UNL     1       2.224  -0.327  21.798  0.00  0.00    +0.068 A 
ATOM     27  C   UNL     1       2.998   0.658  22.390  0.00  0.00    +0.215 A 
BRANCH  27   2
ATOM      2  O   UNL     1       4.267   0.878  21.920  0.00  0.00    -0.474 OA
BRANCH   2  28
ATOM     28  C   UNL     1       5.297   0.051  22.449  0.00  0.00    +0.258 C 
BRANCH  28  29
ATOM     29  C   UNL     1       5.518   0.406  23.907  0.00  0.00    +0.200 C 
BRANCH  29   3
ATOM      3  O   UNL     1       5.463  -0.782  24.688  0.00  0.00    -0.380 OA
ATOM     30  C   UNL     1       4.725  -1.803  24.031  0.00  0.00    +0.194 C 
ENDBRANCH  29   3
ENDBRANCH  28  29
ENDBRANCH   2  28
ENDBRANCH  27   2
ENDBRANCH  17  20
BRANCH  13   8
ATOM      4  N   UNL     1      -4.641   2.026  24.207  0.00  0.00    -0.291 NA
ATOM      8  C   UNL     1      -4.005   1.099  25.166  0.00  0.00    +0.146 C 
ATOM      9  C   UNL     1      -5.076   0.028  25.443  0.00  0.00    +0.030 C 
ATOM     10  C   UNL     1      -6.081   1.957  24.460  0.00  0.00    +0.085 C 
ATOM     11  C   UNL     1      -6.296   0.468  24.647  0.00  0.00    +0.017 C 
BRANCH   4  12
ATOM     12  C   UNL     1      -4.132   3.388  24.301  0.00  0.00    +0.085 C 
BRANCH  12  14
ATOM     14  C   UNL     1      -4.790   4.120  25.468  0.00  0.00    +0.020 C 
BRANCH  14  15
ATOM     15  C   UNL     1      -3.767   4.459  26.555  0.00  0.00    +0.036 C 
BRANCH  15  16
ATOM     16  C   UNL     1      -2.353   4.272  26.067  0.00  0.00    -0.047 A 
ATOM     18  C   UNL     1      -1.572   3.234  26.574  0.00  0.00    +0.003 A 
ATOM     19  C   UNL     1      -1.825   5.139  25.110  0.00  0.00    +0.003 A 
ATOM     21  C   UNL     1      -0.263   3.061  26.123  0.00  0.00    +0.000 A 
ATOM     22  C   UNL     1      -0.517   4.966  24.658  0.00  0.00    +0.000 A 
ATOM     24  C   UNL     1       0.265   3.927  25.166  0.00  0.00    +0.000 A 
ENDBRANCH  15  16
ENDBRANCH  14  15
ENDBRANCH  12  14
ENDBRANCH   4  12
ENDBRANCH  13   8
TORSDOF 10
ENDMDL
MODEL 4
REMARK VINA RESULT:       1.3      2.057      7.219
REMARK  Name = 51136866
REMARK  11 active torsions:
REMARK  status: ('A' for Active; 'I' for Inactive)
REMARK    1  A    between atoms: O_2  and  C_27
REMARK    2  A    between atoms: O_2  and  C_28
REMARK    3  A    between atoms: O_3  and  C_29
REMARK    4  A    between atoms: O_3  and  C_30
REMARK    5  A    between atoms: N_4  and  C_12
REMARK    6  A    between atoms: C_8  and  C_13
REMARK    7  A    between atoms: C_12  and  C_14
REMARK    8  A    between atoms: C_14  and  C_15
REMARK    9  A    between atoms: C_15  and  C_16
REMARK   10  A    between atoms: C_17  and  C_20
REMARK   11  A    between atoms: C_28  and  C_29
REMARK                            x       y       z     vdW  Elec       q    Type
REMARK                         _______ _______ _______ _____ _____    ______ ____
ROOT
ATOM      1  O   UNL     1       1.275   3.046  23.875  0.00  0.00    -0.336 OA
ATOM      5  N   UNL     1      -0.463   1.683  24.243  0.00  0.00    -0.190 NA
ATOM      6  N   UNL     1       0.187   3.875  24.173  0.00  0.00    -0.056 NA
ATOM     13  C   UNL     1       0.806   1.772  23.937  0.00  0.00    +0.245 A 
ATOM     17  C   UNL     1      -0.801   2.998  24.378  0.00  0.00    +0.204 A 
ENDROOT
BRANCH  17  20
ATOM      7  N   UNL     1      -3.675   4.260  26.372  0.00  0.00    -0.221 NA
ATOM     20  C   UNL     1      -2.134   3.403  24.717  0.00  0.00    +0.041 A 
ATOM     23  C   UNL     1      -3.161   3.342  23.782  0.00  0.00    +0.018 A 
ATOM     25  C   UNL     1      -2.439   3.865  25.987  0.00  0.00    +0.126 A 
ATOM     26  C   UNL     1      -4.445   3.740  24.140  0.00  0.00    +0.068 A 
ATOM     27  C   UNL     1      -4.646   4.187  25.436  0.00  0.00    +0.215 A 
BRANCH  27   2
ATOM      2  O   UNL     1      -5.903   4.586  25.814  0.00  0.00    -0.474 OA
BRANCH   2  28
ATOM     28  C   UNL     1      -6.854   3.556  26.057  0.00  0.00    +0.258 C 
BRANCH  28  29
ATOM     29  C   UNL     1      -6.149   2.369  26.684  0.00  0.00    +0.200 C 
BRANCH  29   3
ATOM      3  O   UNL     1      -6.356   1.222  25.868  0.00  0.00    -0.380 OA
ATOM     30  C   UNL     1      -6.851   1.578  24.585  0.00  0.00    +0.194 C 
ENDBRANCH  29   3
ENDBRANCH  28  29
ENDBRANCH   2  28
ENDBRANCH  27   2
ENDBRANCH  17  20
BRANCH  13   8
ATOM      4  N   UNL     1       1.343  -0.254  22.595  0.00  0.00    -0.291 NA
ATOM      8  C   UNL     1       1.805   0.671  23.651  0.00  0.00    +0.146 C 
ATOM      9  C   UNL     1       3.152   1.210  23.135  0.00  0.00    +0.030 C 
ATOM     10  C   UNL     1       2.547  -0.764  21.937  0.00  0.00    +0.085 C 
ATOM     11  C   UNL     1       3.393   0.488  21.817  0.00  0.00    +0.017 C 
BRANCH   4  12
ATOM     12  C   UNL     1       0.498  -1.328  23.101  0.00  0.00    +0.085 C 
BRANCH  12  14
ATOM     14  C   UNL     1       0.480  -1.313  24.628  0.00  0.00    +0.020 C 
BRANCH  14  15
ATOM     15  C   UNL     1      -0.553  -2.298  25.178  0.00  0.00    +0.036 C 
BRANCH  15  16
ATOM     16  C   UNL     1      -1.960  -1.882  24.831  0.00  0.00    -0.047 A 
ATOM     18  C   UNL     1      -2.412  -0.606  25.165  0.00  0.00    +0.003 A 
ATOM     19  C   UNL     1      -2.810  -2.775  24.178  0.00  0.00    +0.003 A 
ATOM     21  C   UNL     1      -3.714  -0.221  24.844  0.00  0.00    +0.000 A 
ATOM     22  C   UNL     1      -4.112  -2.390  23.857  0.00  0.00    +0.000 A 
ATOM     24  C   UNL     1      -4.564  -1.113  24.191  0.00  0.00    +0.000 A 
ENDBRANCH  15  16
ENDBRANCH  14  15
ENDBRANCH  12  14
ENDBRANCH   4  12
ENDBRANCH  13   8
TORSDOF 10
ENDMDL
