MODEL 1
REMARK VINA RESULT:       5.2      0.000      0.000
REMARK  Name = 51138156
REMARK  11 active torsions:
REMARK  status: ('A' for Active; 'I' for Inactive)
REMARK    1  A    between atoms: N_5  and  C_21
REMARK    2  A    between atoms: N_6  and  C_26
REMARK    3  A    between atoms: C_8  and  C_12
REMARK    4  A    between atoms: C_11  and  C_19
REMARK    5  A    between atoms: C_12  and  C_16
REMARK    6  A    between atoms: C_16  and  C_23
REMARK    7  A    between atoms: C_16  and  C_24
REMARK    8  A    between atoms: C_21  and  C_25
REMARK    9  A    between atoms: C_26  and  C_28
REMARK   10  A    between atoms: C_29  and  C_31
REMARK   11  A    between atoms: C_32  and  C_34
REMARK                            x       y       z     vdW  Elec       q    Type
REMARK                         _______ _______ _______ _____ _____    ______ ____
ROOT
ATOM      4  N   UNL     1       0.579  -1.020  23.638  0.00  0.00    -0.299 NA
ATOM      5  N   UNL     1      -2.122   3.149  24.547  0.00  0.00    -0.340 N 
ATOM      8  C   UNL     1      -0.796  -1.341  23.234  0.00  0.00    +0.085 C 
ATOM      9  C   UNL     1      -1.858  -0.292  23.582  0.00  0.00    -0.021 A 
ATOM     10  C   UNL     1      -1.589   1.060  23.938  0.00  0.00    +0.008 A 
ATOM     11  C   UNL     1       1.149   0.149  22.982  0.00  0.00    +0.145 C 
ATOM     13  C   UNL     1      -0.388   1.839  24.071  0.00  0.00    -0.020 A 
ATOM     14  C   UNL     1       1.021   1.398  23.851  0.00  0.00    +0.065 C 
ATOM     15  C   UNL     1      -2.654   1.924  24.221  0.00  0.00    +0.050 A 
ATOM     17  C   UNL     1      -0.762   3.111  24.455  0.00  0.00    +0.091 A 
ATOM     18  C   UNL     1      -3.226  -0.651  23.474  0.00  0.00    +0.006 A 
ATOM     20  C   UNL     1      -3.994   1.538  24.154  0.00  0.00    +0.026 A 
ATOM     22  C   UNL     1      -4.263   0.234  23.762  0.00  0.00    +0.002 A 
ATOM     35  H   UNL     1       0.653  -0.946  24.652  0.00  0.00    +0.123 HD
ENDROOT
BRANCH  11  19
ATOM      1  O   UNL     1       3.301   0.433  21.991  0.00  0.00    -0.274 OA
ATOM      6  N   UNL     1       3.013  -1.219  23.607  0.00  0.00    -0.307 N 
ATOM     19  C   UNL     1       2.600  -0.174  22.797  0.00  0.00    +0.231 C 
ATOM     36  H   UNL     1       2.353  -1.635  24.258  0.00  0.00    +0.149 HD
BRANCH   6  26
ATOM     26  C   UNL     1       4.361  -1.737  23.603  0.00  0.00    +0.178 C 
BRANCH  26  28
ATOM      3  O   UNL     1       6.636  -0.934  23.309  0.00  0.00    -0.463 OA
ATOM     28  C   UNL     1       5.384  -0.647  23.750  0.00  0.00    +0.122 A 
ATOM     30  C   UNL     1       5.330   0.631  24.256  0.00  0.00    +0.046 A 
ATOM     32  C   UNL     1       7.391   0.173  23.534  0.00  0.00    +0.102 A 
ATOM     33  C   UNL     1       6.634   1.164  24.116  0.00  0.00    +0.045 A 
ATOM     34  C   UNL     1       8.801   0.092  23.130  0.00  0.00    +0.086 C 
ENDBRANCH  26  28
ENDBRANCH   6  26
ENDBRANCH  11  19
BRANCH   8  12
ATOM     12  C   UNL     1      -1.083  -2.708  23.881  0.00  0.00    +0.026 C 
BRANCH  12  16
ATOM     16  C   UNL     1      -1.463  -2.601  25.361  0.00  0.00    -0.015 C 
ATOM     23  C   UNL     1      -0.976  -1.301  26.002  0.00  0.00    +0.007 C 
ATOM     24  C   UNL     1      -2.984  -2.709  25.500  0.00  0.00    +0.007 C 
ENDBRANCH  12  16
ENDBRANCH   8  12
BRANCH   5  21
ATOM     21  C   UNL     1      -2.880   4.325  24.917  0.00  0.00    +0.180 C 
BRANCH  21  25
ATOM      2  O   UNL     1      -6.377   4.277  25.805  0.00  0.00    -0.360 OA
ATOM      7  N   UNL     1      -5.263   4.869  25.220  0.00  0.00    -0.081 NA
ATOM     25  C   UNL     1      -4.265   4.007  25.427  0.00  0.00    +0.103 A 
ATOM     27  C   UNL     1      -4.682   2.865  26.131  0.00  0.00    +0.072 A 
ATOM     29  C   UNL     1      -6.018   3.084  26.345  0.00  0.00    +0.135 A 
ATOM     31  C   UNL     1      -7.080   2.319  27.008  0.00  0.00    +0.089 C 
ENDBRANCH  21  25
ENDBRANCH   5  21
TORSDOF 7
ENDMDL
MODEL 2
REMARK VINA RESULT:       7.2      1.638      8.864
REMARK  Name = 51138156
REMARK  11 active torsions:
REMARK  status: ('A' for Active; 'I' for Inactive)
REMARK    1  A    between atoms: N_5  and  C_21
REMARK    2  A    between atoms: N_6  and  C_26
REMARK    3  A    between atoms: C_8  and  C_12
REMARK    4  A    between atoms: C_11  and  C_19
REMARK    5  A    between atoms: C_12  and  C_16
REMARK    6  A    between atoms: C_16  and  C_23
REMARK    7  A    between atoms: C_16  and  C_24
REMARK    8  A    between atoms: C_21  and  C_25
REMARK    9  A    between atoms: C_26  and  C_28
REMARK   10  A    between atoms: C_29  and  C_31
REMARK   11  A    between atoms: C_32  and  C_34
REMARK                            x       y       z     vdW  Elec       q    Type
REMARK                         _______ _______ _______ _____ _____    ______ ____
ROOT
ATOM      4  N   UNL     1      -2.156   1.033  25.279  0.00  0.00    -0.299 NA
ATOM      5  N   UNL     1       2.175   0.104  22.853  0.00  0.00    -0.340 N 
ATOM      8  C   UNL     1      -1.621  -0.197  25.878  0.00  0.00    +0.085 C 
ATOM      9  C   UNL     1      -0.391  -0.797  25.188  0.00  0.00    -0.021 A 
ATOM     10  C   UNL     1       0.448  -0.110  24.265  0.00  0.00    +0.008 A 
ATOM     11  C   UNL     1      -1.254   2.175  25.324  0.00  0.00    +0.145 C 
ATOM     13  C   UNL     1       0.459   1.223  23.724  0.00  0.00    -0.020 A 
ATOM     14  C   UNL     1      -0.490   2.338  24.012  0.00  0.00    +0.065 C 
ATOM     15  C   UNL     1       1.553  -0.770  23.713  0.00  0.00    +0.050 A 
ATOM     17  C   UNL     1       1.530   1.306  22.856  0.00  0.00    +0.091 A 
ATOM     18  C   UNL     1       0.007  -2.113  25.536  0.00  0.00    +0.006 A 
ATOM     20  C   UNL     1       1.902  -2.083  24.034  0.00  0.00    +0.026 A 
ATOM     22  C   UNL     1       1.114  -2.742  24.968  0.00  0.00    +0.002 A 
ATOM     35  H   UNL     1      -2.486   0.861  24.329  0.00  0.00    +0.123 HD
ENDROOT
BRANCH  11  19
ATOM      1  O   UNL     1      -2.228   3.930  26.614  0.00  0.00    -0.274 OA
ATOM      6  N   UNL     1      -2.830   3.709  24.376  0.00  0.00    -0.307 N 
ATOM     19  C   UNL     1      -2.140   3.366  25.527  0.00  0.00    +0.231 C 
ATOM     36  H   UNL     1      -2.662   3.187  23.520  0.00  0.00    +0.149 HD
BRANCH   6  26
ATOM     26  C   UNL     1      -3.765   4.808  24.313  0.00  0.00    +0.178 C 
BRANCH  26  28
ATOM      3  O   UNL     1      -5.219   3.212  25.428  0.00  0.00    -0.463 OA
ATOM     28  C   UNL     1      -5.043   4.502  25.040  0.00  0.00    +0.122 A 
ATOM     30  C   UNL     1      -6.120   5.270  25.413  0.00  0.00    +0.046 A 
ATOM     32  C   UNL     1      -6.423   3.156  26.058  0.00  0.00    +0.102 A 
ATOM     33  C   UNL     1      -7.016   4.397  26.075  0.00  0.00    +0.045 A 
ATOM     34  C   UNL     1      -6.828   1.840  26.569  0.00  0.00    +0.086 C 
ENDBRANCH  26  28
ENDBRANCH   6  26
ENDBRANCH  11  19
BRANCH   8  12
ATOM     12  C   UNL     1      -2.814  -1.168  25.906  0.00  0.00    +0.026 C 
BRANCH  12  16
ATOM     16  C   UNL     1      -3.334  -1.517  24.508  0.00  0.00    -0.015 C 
ATOM     23  C   UNL     1      -3.610  -3.011  24.338  0.00  0.00    +0.007 C 
ATOM     24  C   UNL     1      -4.612  -0.720  24.231  0.00  0.00    +0.007 C 
ENDBRANCH  12  16
ENDBRANCH   8  12
BRANCH   5  21
ATOM     21  C   UNL     1       3.355  -0.184  22.066  0.00  0.00    +0.180 C 
BRANCH  21  25
ATOM      2  O   UNL     1       5.962   0.735  24.384  0.00  0.00    -0.360 OA
ATOM      7  N   UNL     1       4.639   0.732  23.958  0.00  0.00    -0.081 NA
ATOM     25  C   UNL     1       4.643   0.031  22.822  0.00  0.00    +0.103 A 
ATOM     27  C   UNL     1       5.927  -0.429  22.483  0.00  0.00    +0.072 A 
ATOM     29  C   UNL     1       6.720   0.040  23.497  0.00  0.00    +0.135 A 
ATOM     31  C   UNL     1       8.153  -0.058  23.796  0.00  0.00    +0.089 C 
ENDBRANCH  21  25
ENDBRANCH   5  21
TORSDOF 7
ENDMDL
MODEL 3
REMARK VINA RESULT:       7.3      1.354      1.619
REMARK  Name = 51138156
REMARK  11 active torsions:
REMARK  status: ('A' for Active; 'I' for Inactive)
REMARK    1  A    between atoms: N_5  and  C_21
REMARK    2  A    between atoms: N_6  and  C_26
REMARK    3  A    between atoms: C_8  and  C_12
REMARK    4  A    between atoms: C_11  and  C_19
REMARK    5  A    between atoms: C_12  and  C_16
REMARK    6  A    between atoms: C_16  and  C_23
REMARK    7  A    between atoms: C_16  and  C_24
REMARK    8  A    between atoms: C_21  and  C_25
REMARK    9  A    between atoms: C_26  and  C_28
REMARK   10  A    between atoms: C_29  and  C_31
REMARK   11  A    between atoms: C_32  and  C_34
REMARK                            x       y       z     vdW  Elec       q    Type
REMARK                         _______ _______ _______ _____ _____    ______ ____
ROOT
ATOM      4  N   UNL     1       0.063  -0.916  23.390  0.00  0.00    -0.299 NA
ATOM      5  N   UNL     1      -2.293   2.766  25.921  0.00  0.00    -0.340 N 
ATOM      8  C   UNL     1      -1.373  -1.201  23.262  0.00  0.00    +0.085 C 
ATOM      9  C   UNL     1      -2.307  -0.323  24.101  0.00  0.00    -0.021 A 
ATOM     10  C   UNL     1      -1.946   0.916  24.705  0.00  0.00    +0.008 A 
ATOM     11  C   UNL     1       0.466   0.404  22.926  0.00  0.00    +0.145 C 
ATOM     13  C   UNL     1      -0.741   1.700  24.734  0.00  0.00    -0.020 A 
ATOM     14  C   UNL     1       0.567   1.398  24.081  0.00  0.00    +0.065 C 
ATOM     15  C   UNL     1      -2.900   1.630  25.439  0.00  0.00    +0.050 A 
ATOM     17  C   UNL     1      -0.998   2.821  25.498  0.00  0.00    +0.091 A 
ATOM     18  C   UNL     1      -3.663  -0.715  24.240  0.00  0.00    +0.006 A 
ATOM     20  C   UNL     1      -4.219   1.203  25.603  0.00  0.00    +0.026 A 
ATOM     22  C   UNL     1      -4.589   0.020  24.978  0.00  0.00    +0.002 A 
ATOM     35  H   UNL     1       0.384  -1.085  24.343  0.00  0.00    +0.123 HD
ENDROOT
BRANCH  11  19
ATOM      1  O   UNL     1       2.073  -0.730  21.576  0.00  0.00    -0.274 OA
ATOM      6  N   UNL     1       2.721   1.184  22.732  0.00  0.00    -0.307 N 
ATOM     19  C   UNL     1       1.824   0.211  22.325  0.00  0.00    +0.231 C 
ATOM     36  H   UNL     1       2.402   1.935  23.337  0.00  0.00    +0.149 HD
BRANCH   6  26
ATOM     26  C   UNL     1       4.103   1.211  22.311  0.00  0.00    +0.178 C 
BRANCH  26  28
ATOM      3  O   UNL     1       6.299   0.426  22.996  0.00  0.00    -0.463 OA
ATOM     28  C   UNL     1       4.955   0.270  23.115  0.00  0.00    +0.122 A 
ATOM     30  C   UNL     1       4.662  -0.758  23.980  0.00  0.00    +0.046 A 
ATOM     32  C   UNL     1       6.871  -0.513  23.795  0.00  0.00    +0.102 A 
ATOM     33  C   UNL     1       5.906  -1.266  24.422  0.00  0.00    +0.045 A 
ATOM     34  C   UNL     1       8.340  -0.532  23.825  0.00  0.00    +0.086 C 
ENDBRANCH  26  28
ENDBRANCH   6  26
ENDBRANCH  11  19
BRANCH   8  12
ATOM     12  C   UNL     1      -1.505  -2.696  23.600  0.00  0.00    +0.026 C 
BRANCH  12  16
ATOM     16  C   UNL     1      -1.389  -2.981  25.101  0.00  0.00    -0.015 C 
ATOM     23  C   UNL     1      -0.539  -1.943  25.834  0.00  0.00    +0.007 C 
ATOM     24  C   UNL     1      -2.791  -3.029  25.715  0.00  0.00    +0.007 C 
ENDBRANCH  12  16
ENDBRANCH   8  12
BRANCH   5  21
ATOM     21  C   UNL     1      -2.926   3.777  26.740  0.00  0.00    +0.180 C 
BRANCH  21  25
ATOM      2  O   UNL     1      -6.433   4.122  25.967  0.00  0.00    -0.360 OA
ATOM      7  N   UNL     1      -5.367   3.484  26.590  0.00  0.00    -0.081 NA
ATOM     25  C   UNL     1      -4.288   4.187  26.237  0.00  0.00    +0.103 A 
ATOM     27  C   UNL     1      -4.607   5.270  25.399  0.00  0.00    +0.072 A 
ATOM     29  C   UNL     1      -5.967   5.184  25.260  0.00  0.00    +0.135 A 
ATOM     31  C   UNL     1      -6.966   5.977  24.535  0.00  0.00    +0.089 C 
ENDBRANCH  21  25
ENDBRANCH   5  21
TORSDOF 7
ENDMDL
