MODEL 1
REMARK VINA RESULT:       0.2      0.000      0.000
REMARK  Name = 11912195
REMARK  7 active torsions:
REMARK  status: ('A' for Active; 'I' for Inactive)
REMARK    1  A    between atoms: S_1  and  N_7
REMARK    2  A    between atoms: S_1  and  C_19
REMARK    3  A    between atoms: N_7  and  C_14
REMARK    4  A    between atoms: N_8  and  C_15
REMARK    5  A    between atoms: N_11  and  C_27
REMARK    6  A    between atoms: C_22  and  C_28
REMARK    7  A    between atoms: C_31  and  C_35
REMARK                            x       y       z     vdW  Elec       q    Type
REMARK                         _______ _______ _______ _____ _____    ______ ____
ROOT
ATOM      2  O   UNL     1      -1.129   2.694  23.286  0.00  0.00    -0.370 OA
ATOM      3  O   UNL     1      -0.936   4.101  26.070  0.00  0.00    -0.370 OA
ATOM     12  C   UNL     1      -1.308   2.776  25.657  0.00  0.00    +0.170 C 
ATOM     13  C   UNL     1      -2.069   2.906  24.352  0.00  0.00    +0.171 C 
ATOM     14  C   UNL     1      -0.080   1.978  25.292  0.00  0.00    +0.133 C 
ATOM     15  C   UNL     1      -2.553   4.338  24.347  0.00  0.00    +0.130 C 
ATOM     16  C   UNL     1       0.152   2.368  23.844  0.00  0.00    +0.183 C 
ATOM     17  C   UNL     1      -1.478   5.055  25.144  0.00  0.00    +0.185 C 
ENDROOT
BRANCH  15   8
ATOM      8  N   UNL     1      -3.827   4.432  25.026  0.00  0.00    -0.306 N 
ATOM      9  N   UNL     1      -4.109   2.103  25.053  0.00  0.00    -0.214 NA
ATOM     10  N   UNL     1      -5.772   3.562  26.011  0.00  0.00    -0.223 NA
ATOM     18  C   UNL     1      -4.592   3.333  25.374  0.00  0.00    +0.216 A 
ATOM     22  C   UNL     1      -4.881   1.054  25.407  0.00  0.00    +0.076 A 
ATOM     23  C   UNL     1      -6.492   2.468  26.335  0.00  0.00    +0.116 A 
ATOM     26  C   UNL     1      -6.092   1.177  26.056  0.00  0.00    +0.048 A 
ATOM     37  H   UNL     1      -4.170   5.340  25.317  0.00  0.00    +0.149 HD
BRANCH  22  28
ATOM     28  C   UNL     1      -4.350  -0.243  25.059  0.00  0.00    +0.001 A 
ATOM     29  C   UNL     1      -4.503  -0.737  23.762  0.00  0.00    +0.010 A 
ATOM     30  C   UNL     1      -3.681  -1.006  26.017  0.00  0.00    +0.010 A 
ATOM     32  C   UNL     1      -3.990  -1.990  23.424  0.00  0.00    +0.001 A 
ATOM     33  C   UNL     1      -3.167  -2.259  25.680  0.00  0.00    +0.001 A 
ATOM     34  C   UNL     1      -3.322  -2.751  24.383  0.00  0.00    +0.000 A 
ENDBRANCH  22  28
ENDBRANCH  15   8
BRANCH  14   7
ATOM      7  N   UNL     1      -0.384   0.529  25.373  0.00  0.00    -0.182 NA
ATOM     36  H   UNL     1      -0.285   0.093  26.298  0.00  0.00    +0.148 HD
BRANCH   7   1
ATOM      1  S   UNL     1      -0.248  -0.441  23.986  0.00  0.00    +0.059 S 
ATOM      4  O   UNL     1      -0.970   0.179  22.891  0.00  0.00    -0.153 OA
ATOM      5  O   UNL     1      -0.518  -1.818  24.351  0.00  0.00    -0.153 OA
BRANCH   1  19
ATOM     19  C   UNL     1       1.480  -0.330  23.630  0.00  0.00    +0.105 A 
ATOM     20  C   UNL     1       1.973   0.812  23.025  0.00  0.00    +0.030 A 
ATOM     21  C   UNL     1       2.307  -1.389  23.965  0.00  0.00    +0.030 A 
ATOM     24  C   UNL     1       3.337   0.899  22.745  0.00  0.00    +0.025 A 
ATOM     25  C   UNL     1       3.671  -1.302  23.684  0.00  0.00    +0.025 A 
ATOM     27  C   UNL     1       4.186  -0.158  23.074  0.00  0.00    +0.033 A 
BRANCH  27  11
ATOM      6  O   UNL     1       6.576  -0.957  24.722  0.00  0.00    -0.276 OA
ATOM     11  N   UNL     1       5.550  -0.070  22.794  0.00  0.00    -0.286 N 
ATOM     31  C   UNL     1       6.626  -0.457  23.603  0.00  0.00    +0.214 C 
ATOM     35  C   UNL     1       7.952  -0.195  22.934  0.00  0.00    +0.109 C 
ATOM     38  H   UNL     1       5.782   0.329  21.886  0.00  0.00    +0.155 HD
ENDBRANCH  27  11
ENDBRANCH   1  19
ENDBRANCH   7   1
ENDBRANCH  14   7
TORSDOF 6
ENDMDL
MODEL 2
REMARK VINA RESULT:       1.9      2.378      7.346
REMARK  Name = 11912195
REMARK  7 active torsions:
REMARK  status: ('A' for Active; 'I' for Inactive)
REMARK    1  A    between atoms: S_1  and  N_7
REMARK    2  A    between atoms: S_1  and  C_19
REMARK    3  A    between atoms: N_7  and  C_14
REMARK    4  A    between atoms: N_8  and  C_15
REMARK    5  A    between atoms: N_11  and  C_27
REMARK    6  A    between atoms: C_22  and  C_28
REMARK    7  A    between atoms: C_31  and  C_35
REMARK                            x       y       z     vdW  Elec       q    Type
REMARK                         _______ _______ _______ _____ _____    ______ ____
ROOT
ATOM      2  O   UNL     1      -1.255   2.706  26.923  0.00  0.00    -0.370 OA
ATOM      3  O   UNL     1      -0.911   4.366  24.297  0.00  0.00    -0.370 OA
ATOM     12  C   UNL     1      -2.043   3.750  24.935  0.00  0.00    +0.170 C 
ATOM     13  C   UNL     1      -1.564   2.446  25.543  0.00  0.00    +0.171 C 
ATOM     14  C   UNL     1      -2.484   4.572  26.122  0.00  0.00    +0.133 C 
ATOM     15  C   UNL     1      -0.303   2.121  24.776  0.00  0.00    +0.130 C 
ATOM     16  C   UNL     1      -1.580   4.070  27.231  0.00  0.00    +0.183 C 
ATOM     17  C   UNL     1       0.225   3.495  24.406  0.00  0.00    +0.185 C 
ENDROOT
BRANCH  15   8
ATOM      8  N   UNL     1      -0.630   1.371  23.583  0.00  0.00    -0.306 N 
ATOM      9  N   UNL     1       1.560   0.558  23.361  0.00  0.00    -0.214 NA
ATOM     10  N   UNL     1      -0.153  -0.054  21.780  0.00  0.00    -0.223 NA
ATOM     18  C   UNL     1       0.286   0.602  22.887  0.00  0.00    +0.216 A 
ATOM     22  C   UNL     1       2.427  -0.201  22.658  0.00  0.00    +0.076 A 
ATOM     23  C   UNL     1       0.766  -0.795  21.127  0.00  0.00    +0.116 A 
ATOM     26  C   UNL     1       2.083  -0.906  21.523  0.00  0.00    +0.048 A 
ATOM     37  H   UNL     1      -1.588   1.354  23.253  0.00  0.00    +0.149 HD
BRANCH  22  28
ATOM     28  C   UNL     1       3.773  -0.234  23.178  0.00  0.00    +0.001 A 
ATOM     29  C   UNL     1       4.271  -1.404  23.756  0.00  0.00    +0.010 A 
ATOM     30  C   UNL     1       4.581   0.902  23.105  0.00  0.00    +0.010 A 
ATOM     32  C   UNL     1       5.573  -1.436  24.259  0.00  0.00    +0.001 A 
ATOM     33  C   UNL     1       5.882   0.869  23.607  0.00  0.00    +0.001 A 
ATOM     34  C   UNL     1       6.378  -0.300  24.185  0.00  0.00    +0.000 A 
ENDBRANCH  22  28
ENDBRANCH  15   8
BRANCH  14   7
ATOM      7  N   UNL     1      -3.895   4.257  26.450  0.00  0.00    -0.182 NA
ATOM     36  H   UNL     1      -4.070   3.861  27.382  0.00  0.00    +0.148 HD
BRANCH   7   1
ATOM      1  S   UNL     1      -5.001   3.942  25.201  0.00  0.00    +0.059 S 
ATOM      4  O   UNL     1      -4.656   4.737  24.037  0.00  0.00    -0.153 OA
ATOM      5  O   UNL     1      -6.345   3.991  25.744  0.00  0.00    -0.153 OA
BRANCH   1  19
ATOM     19  C   UNL     1      -4.657   2.250  24.825  0.00  0.00    +0.105 A 
ATOM     20  C   UNL     1      -4.037   1.936  23.628  0.00  0.00    +0.030 A 
ATOM     21  C   UNL     1      -5.014   1.270  25.735  0.00  0.00    +0.030 A 
ATOM     24  C   UNL     1      -3.765   0.600  23.333  0.00  0.00    +0.025 A 
ATOM     25  C   UNL     1      -4.742  -0.066  25.439  0.00  0.00    +0.025 A 
ATOM     27  C   UNL     1      -4.118  -0.401  24.238  0.00  0.00    +0.033 A 
BRANCH  27  11
ATOM      6  O   UNL     1      -1.678  -2.071  24.807  0.00  0.00    -0.276 OA
ATOM     11  N   UNL     1      -3.844  -1.737  23.941  0.00  0.00    -0.286 N 
ATOM     31  C   UNL     1      -2.684  -2.468  24.229  0.00  0.00    +0.214 C 
ATOM     35  C   UNL     1      -2.783  -3.890  23.739  0.00  0.00    +0.109 C 
ATOM     38  H   UNL     1      -4.587  -2.234  23.453  0.00  0.00    +0.155 HD
ENDBRANCH  27  11
ENDBRANCH   1  19
ENDBRANCH   7   1
ENDBRANCH  14   7
TORSDOF 6
ENDMDL
MODEL 3
REMARK VINA RESULT:       2.2      1.778      4.184
REMARK  Name = 11912195
REMARK  7 active torsions:
REMARK  status: ('A' for Active; 'I' for Inactive)
REMARK    1  A    between atoms: S_1  and  N_7
REMARK    2  A    between atoms: S_1  and  C_19
REMARK    3  A    between atoms: N_7  and  C_14
REMARK    4  A    between atoms: N_8  and  C_15
REMARK    5  A    between atoms: N_11  and  C_27
REMARK    6  A    between atoms: C_22  and  C_28
REMARK    7  A    between atoms: C_31  and  C_35
REMARK                            x       y       z     vdW  Elec       q    Type
REMARK                         _______ _______ _______ _____ _____    ______ ____
ROOT
ATOM      2  O   UNL     1      -1.346  -1.438  26.616  0.00  0.00    -0.370 OA
ATOM      3  O   UNL     1      -2.588  -2.589  23.990  0.00  0.00    -0.370 OA
ATOM     12  C   UNL     1      -1.904  -1.365  24.304  0.00  0.00    +0.170 C 
ATOM     13  C   UNL     1      -2.338  -0.951  25.697  0.00  0.00    +0.171 C 
ATOM     14  C   UNL     1      -0.421  -1.614  24.437  0.00  0.00    +0.133 C 
ATOM     15  C   UNL     1      -3.647  -1.675  25.908  0.00  0.00    +0.130 C 
ATOM     16  C   UNL     1      -0.286  -2.064  25.879  0.00  0.00    +0.183 C 
ATOM     17  C   UNL     1      -3.474  -2.926  25.067  0.00  0.00    +0.185 C 
ENDROOT
BRANCH  15   8
ATOM      8  N   UNL     1      -4.741  -0.877  25.399  0.00  0.00    -0.306 N 
ATOM      9  N   UNL     1      -3.422   1.061  25.289  0.00  0.00    -0.214 NA
ATOM     10  N   UNL     1      -5.738   1.101  24.622  0.00  0.00    -0.223 NA
ATOM     18  C   UNL     1      -4.630   0.469  25.094  0.00  0.00    +0.216 A 
ATOM     22  C   UNL     1      -3.350   2.373  24.982  0.00  0.00    +0.076 A 
ATOM     23  C   UNL     1      -5.594   2.411  24.335  0.00  0.00    +0.116 A 
ATOM     26  C   UNL     1      -4.413   3.107  24.497  0.00  0.00    +0.048 A 
ATOM     37  H   UNL     1      -5.630  -1.321  25.199  0.00  0.00    +0.149 HD
BRANCH  22  28
ATOM     28  C   UNL     1      -2.059   2.982  25.196  0.00  0.00    +0.001 A 
ATOM     29  C   UNL     1      -1.029   2.250  25.790  0.00  0.00    +0.010 A 
ATOM     30  C   UNL     1      -1.835   4.304  24.808  0.00  0.00    +0.010 A 
ATOM     32  C   UNL     1       0.219   2.838  25.997  0.00  0.00    +0.001 A 
ATOM     33  C   UNL     1      -0.587   4.893  25.014  0.00  0.00    +0.001 A 
ATOM     34  C   UNL     1       0.440   4.159  25.609  0.00  0.00    +0.000 A 
ENDBRANCH  22  28
ENDBRANCH  15   8
BRANCH  14   7
ATOM      7  N   UNL     1       0.317  -0.342  24.243  0.00  0.00    -0.182 NA
ATOM     36  H   UNL     1       0.114   0.411  24.911  0.00  0.00    +0.148 HD
BRANCH   7   1
ATOM      1  S   UNL     1       0.912   0.061  22.705  0.00  0.00    +0.059 S 
ATOM      4  O   UNL     1       0.481   1.402  22.355  0.00  0.00    -0.153 OA
ATOM      5  O   UNL     1       0.659  -1.045  21.801  0.00  0.00    -0.153 OA
BRANCH   1  19
ATOM     19  C   UNL     1       2.656   0.107  22.988  0.00  0.00    +0.105 A 
ATOM     20  C   UNL     1       3.361   1.258  22.680  0.00  0.00    +0.030 A 
ATOM     21  C   UNL     1       3.284  -1.009  23.514  0.00  0.00    +0.030 A 
ATOM     24  C   UNL     1       4.737   1.293  22.905  0.00  0.00    +0.025 A 
ATOM     25  C   UNL     1       4.661  -0.972  23.739  0.00  0.00    +0.025 A 
ATOM     27  C   UNL     1       5.387   0.179  23.433  0.00  0.00    +0.033 A 
BRANCH  27  11
ATOM      6  O   UNL     1       7.643  -1.192  21.985  0.00  0.00    -0.276 OA
ATOM     11  N   UNL     1       6.764   0.216  23.658  0.00  0.00    -0.286 N 
ATOM     31  C   UNL     1       7.775  -0.448  22.951  0.00  0.00    +0.214 C 
ATOM     35  C   UNL     1       9.141  -0.144  23.511  0.00  0.00    +0.109 C 
ATOM     38  H   UNL     1       7.060   0.800  24.438  0.00  0.00    +0.155 HD
ENDBRANCH  27  11
ENDBRANCH   1  19
ENDBRANCH   7   1
ENDBRANCH  14   7
TORSDOF 6
ENDMDL
