MODEL 1
REMARK VINA RESULT:       2.8      0.000      0.000
REMARK  Name = 26742444
REMARK  11 active torsions:
REMARK  status: ('A' for Active; 'I' for Inactive)
REMARK    1  A    between atoms: S_1  and  N_8
REMARK    2  A    between atoms: S_1  and  C_23
REMARK    3  A    between atoms: O_5  and  C_26
REMARK    4  A    between atoms: O_5  and  C_34
REMARK    5  A    between atoms: O_6  and  C_29
REMARK    6  A    between atoms: O_6  and  C_35
REMARK    7  A    between atoms: N_8  and  C_18
REMARK    8  A    between atoms: C_12  and  C_19
REMARK    9  A    between atoms: C_13  and  C_18
REMARK   10  A    between atoms: C_21  and  C_24
REMARK   11  A    between atoms: C_22  and  C_25
REMARK                            x       y       z     vdW  Elec       q    Type
REMARK                         _______ _______ _______ _____ _____    ______ ____
ROOT
ATOM      7  N   UNL     1      -3.112  -0.473  25.995  0.00  0.00    -0.297 NA
ATOM     11  C   UNL     1      -2.314  -2.346  24.371  0.00  0.00    +0.002 C 
ATOM     12  C   UNL     1      -1.111  -1.477  24.833  0.00  0.00    +0.055 C 
ATOM     13  C   UNL     1      -3.958  -0.480  24.772  0.00  0.00    +0.072 C 
ATOM     14  C   UNL     1      -3.375  -1.439  23.712  0.00  0.00    +0.024 C 
ATOM     15  C   UNL     1      -2.951  -2.937  25.646  0.00  0.00    +0.019 C 
ATOM     16  C   UNL     1      -1.689  -0.271  25.627  0.00  0.00    +0.094 C 
ATOM     17  C   UNL     1      -3.240  -1.800  26.642  0.00  0.00    +0.085 C 
ENDROOT
BRANCH  12  19
ATOM      9  N   UNL     1      -0.555  -0.847  22.535  0.00  0.00    -0.237 NA
ATOM     10  N   UNL     1       1.687  -0.270  21.868  0.00  0.00    -0.229 NA
ATOM     19  C   UNL     1      -0.094  -1.046  23.787  0.00  0.00    +0.050 A 
ATOM     20  C   UNL     1       1.228  -0.879  24.151  0.00  0.00    +0.055 A 
ATOM     21  C   UNL     1       2.081  -0.486  23.141  0.00  0.00    +0.110 A 
ATOM     22  C   UNL     1       0.375  -0.466  21.639  0.00  0.00    +0.127 A 
ATOM     25  C   UNL     1      -0.099  -0.236  20.244  0.00  0.00    +0.088 C 
BRANCH  21  24
ATOM      4  O   UNL     1       4.143  -1.332  23.932  0.00  0.00    -0.461 OA
ATOM     24  C   UNL     1       3.483  -0.278  23.382  0.00  0.00    +0.153 A 
ATOM     28  C   UNL     1       4.343   0.777  23.177  0.00  0.00    +0.051 A 
ATOM     31  C   UNL     1       5.611   0.343  23.631  0.00  0.00    +0.042 A 
ATOM     33  C   UNL     1       5.437  -0.945  24.081  0.00  0.00    +0.196 A 
ENDBRANCH  21  24
ENDBRANCH  12  19
BRANCH  13  18
ATOM     18  C   UNL     1      -4.179   0.925  24.209  0.00  0.00    +0.124 C 
BRANCH  18   8
ATOM      8  N   UNL     1      -4.603   1.822  25.297  0.00  0.00    -0.188 NA
ATOM     36  H   UNL     1      -5.569   1.713  25.630  0.00  0.00    +0.148 HD
BRANCH   8   1
ATOM      1  S   UNL     1      -3.923   3.376  25.440  0.00  0.00    +0.062 S 
ATOM      2  O   UNL     1      -4.000   3.807  26.823  0.00  0.00    -0.153 OA
ATOM      3  O   UNL     1      -4.444   4.222  24.382  0.00  0.00    -0.153 OA
BRANCH   1  23
ATOM     23  C   UNL     1      -2.225   3.064  25.060  0.00  0.00    +0.150 A 
ATOM     26  C   UNL     1      -1.812   2.864  23.742  0.00  0.00    +0.147 A 
ATOM     27  C   UNL     1      -1.295   3.016  26.097  0.00  0.00    +0.077 A 
ATOM     29  C   UNL     1       0.050   2.769  25.818  0.00  0.00    +0.122 A 
ATOM     30  C   UNL     1      -0.468   2.617  23.463  0.00  0.00    +0.051 A 
ATOM     32  C   UNL     1       0.463   2.570  24.501  0.00  0.00    +0.049 A 
BRANCH  26   5
ATOM      5  O   UNL     1      -2.703   2.905  22.713  0.00  0.00    -0.493 OA
ATOM     34  C   UNL     1      -2.466   2.026  21.615  0.00  0.00    +0.277 C 
ENDBRANCH  26   5
BRANCH  29   6
ATOM      6  O   UNL     1       0.958   2.722  26.831  0.00  0.00    -0.495 OA
ATOM     35  C   UNL     1       0.479   2.318  28.113  0.00  0.00    +0.277 C 
ENDBRANCH  29   6
ENDBRANCH   1  23
ENDBRANCH   8   1
ENDBRANCH  18   8
ENDBRANCH  13  18
TORSDOF 8
ENDMDL
MODEL 2
REMARK VINA RESULT:       3.3      1.453      2.847
REMARK  Name = 26742444
REMARK  11 active torsions:
REMARK  status: ('A' for Active; 'I' for Inactive)
REMARK    1  A    between atoms: S_1  and  N_8
REMARK    2  A    between atoms: S_1  and  C_23
REMARK    3  A    between atoms: O_5  and  C_26
REMARK    4  A    between atoms: O_5  and  C_34
REMARK    5  A    between atoms: O_6  and  C_29
REMARK    6  A    between atoms: O_6  and  C_35
REMARK    7  A    between atoms: N_8  and  C_18
REMARK    8  A    between atoms: C_12  and  C_19
REMARK    9  A    between atoms: C_13  and  C_18
REMARK   10  A    between atoms: C_21  and  C_24
REMARK   11  A    between atoms: C_22  and  C_25
REMARK                            x       y       z     vdW  Elec       q    Type
REMARK                         _______ _______ _______ _____ _____    ______ ____
ROOT
ATOM      7  N   UNL     1      -3.081  -0.526  25.840  0.00  0.00    -0.297 NA
ATOM     11  C   UNL     1      -1.968  -2.507  24.569  0.00  0.00    +0.002 C 
ATOM     12  C   UNL     1      -0.910  -1.424  24.921  0.00  0.00    +0.055 C 
ATOM     13  C   UNL     1      -3.854  -0.838  24.608  0.00  0.00    +0.072 C 
ATOM     14  C   UNL     1      -3.099  -1.865  23.738  0.00  0.00    +0.024 C 
ATOM     15  C   UNL     1      -2.591  -2.971  25.903  0.00  0.00    +0.019 C 
ATOM     16  C   UNL     1      -1.677  -0.196  25.490  0.00  0.00    +0.094 C 
ATOM     17  C   UNL     1      -3.074  -1.740  26.690  0.00  0.00    +0.085 C 
ENDROOT
BRANCH  12  19
ATOM      9  N   UNL     1      -0.373  -0.883  22.597  0.00  0.00    -0.237 NA
ATOM     10  N   UNL     1       1.863  -0.325  21.892  0.00  0.00    -0.229 NA
ATOM     19  C   UNL     1       0.098  -1.031  23.852  0.00  0.00    +0.050 A 
ATOM     20  C   UNL     1       1.421  -0.845  24.200  0.00  0.00    +0.055 A 
ATOM     21  C   UNL     1       2.266  -0.490  23.169  0.00  0.00    +0.110 A 
ATOM     22  C   UNL     1       0.550  -0.535  21.680  0.00  0.00    +0.127 A 
ATOM     25  C   UNL     1       0.065  -0.360  20.280  0.00  0.00    +0.088 C 
BRANCH  21  24
ATOM      4  O   UNL     1       4.334  -1.294  23.987  0.00  0.00    -0.461 OA
ATOM     24  C   UNL     1       3.670  -0.268  23.392  0.00  0.00    +0.153 A 
ATOM     28  C   UNL     1       4.526   0.777  23.132  0.00  0.00    +0.051 A 
ATOM     31  C   UNL     1       5.798   0.368  23.599  0.00  0.00    +0.042 A 
ATOM     33  C   UNL     1       5.629  -0.898  24.110  0.00  0.00    +0.196 A 
ENDBRANCH  21  24
ENDBRANCH  12  19
BRANCH  13  18
ATOM     18  C   UNL     1      -4.221   0.419  23.817  0.00  0.00    +0.124 C 
BRANCH  18   8
ATOM      8  N   UNL     1      -3.196   0.660  22.787  0.00  0.00    -0.188 NA
ATOM     36  H   UNL     1      -2.632  -0.151  22.504  0.00  0.00    +0.148 HD
BRANCH   8   1
ATOM      1  S   UNL     1      -2.447   2.184  22.665  0.00  0.00    +0.062 S 
ATOM      2  O   UNL     1      -3.031   2.916  21.557  0.00  0.00    -0.153 OA
ATOM      3  O   UNL     1      -1.009   2.014  22.749  0.00  0.00    -0.153 OA
BRANCH   1  23
ATOM     23  C   UNL     1      -2.962   2.962  24.166  0.00  0.00    +0.150 A 
ATOM     26  C   UNL     1      -2.044   3.623  24.981  0.00  0.00    +0.147 A 
ATOM     27  C   UNL     1      -4.307   2.907  24.532  0.00  0.00    +0.077 A 
ATOM     29  C   UNL     1      -4.733   3.514  25.714  0.00  0.00    +0.122 A 
ATOM     30  C   UNL     1      -2.470   4.229  26.163  0.00  0.00    +0.051 A 
ATOM     32  C   UNL     1      -3.815   4.175  26.528  0.00  0.00    +0.049 A 
BRANCH  26   5
ATOM      5  O   UNL     1      -0.726   3.689  24.644  0.00  0.00    -0.493 OA
ATOM     34  C   UNL     1       0.193   2.991  25.482  0.00  0.00    +0.277 C 
ENDBRANCH  26   5
BRANCH  29   6
ATOM      6  O   UNL     1      -6.046   3.460  26.072  0.00  0.00    -0.495 OA
ATOM     35  C   UNL     1      -6.598   2.167  26.317  0.00  0.00    +0.277 C 
ENDBRANCH  29   6
ENDBRANCH   1  23
ENDBRANCH   8   1
ENDBRANCH  18   8
ENDBRANCH  13  18
TORSDOF 8
ENDMDL
MODEL 3
REMARK VINA RESULT:       3.5      1.943      3.316
REMARK  Name = 26742444
REMARK  11 active torsions:
REMARK  status: ('A' for Active; 'I' for Inactive)
REMARK    1  A    between atoms: S_1  and  N_8
REMARK    2  A    between atoms: S_1  and  C_23
REMARK    3  A    between atoms: O_5  and  C_26
REMARK    4  A    between atoms: O_5  and  C_34
REMARK    5  A    between atoms: O_6  and  C_29
REMARK    6  A    between atoms: O_6  and  C_35
REMARK    7  A    between atoms: N_8  and  C_18
REMARK    8  A    between atoms: C_12  and  C_19
REMARK    9  A    between atoms: C_13  and  C_18
REMARK   10  A    between atoms: C_21  and  C_24
REMARK   11  A    between atoms: C_22  and  C_25
REMARK                            x       y       z     vdW  Elec       q    Type
REMARK                         _______ _______ _______ _____ _____    ______ ____
ROOT
ATOM      7  N   UNL     1      -3.964  -1.841  25.592  0.00  0.00    -0.297 NA
ATOM     11  C   UNL     1      -1.923  -2.374  24.066  0.00  0.00    +0.002 C 
ATOM     12  C   UNL     1      -1.491  -1.476  25.259  0.00  0.00    +0.055 C 
ATOM     13  C   UNL     1      -4.304  -1.560  24.172  0.00  0.00    +0.072 C 
ATOM     14  C   UNL     1      -3.049  -1.671  23.280  0.00  0.00    +0.024 C 
ATOM     15  C   UNL     1      -2.526  -3.659  24.673  0.00  0.00    +0.019 C 
ATOM     16  C   UNL     1      -2.785  -1.038  26.001  0.00  0.00    +0.094 C 
ATOM     17  C   UNL     1      -3.608  -3.275  25.698  0.00  0.00    +0.085 C 
ENDROOT
BRANCH  12  19
ATOM      9  N   UNL     1      -0.810   0.842  25.640  0.00  0.00    -0.237 NA
ATOM     10  N   UNL     1       1.073   1.831  24.508  0.00  0.00    -0.229 NA
ATOM     19  C   UNL     1      -0.562  -0.305  24.976  0.00  0.00    +0.050 A 
ATOM     20  C   UNL     1       0.472  -0.459  24.074  0.00  0.00    +0.055 A 
ATOM     21  C   UNL     1       1.265   0.653  23.878  0.00  0.00    +0.110 A 
ATOM     22  C   UNL     1       0.033   1.855  25.363  0.00  0.00    +0.127 A 
ATOM     25  C   UNL     1      -0.210   3.140  26.081  0.00  0.00    +0.088 C 
BRANCH  21  24
ATOM      4  O   UNL     1       3.452   1.372  23.338  0.00  0.00    -0.461 OA
ATOM     24  C   UNL     1       2.375   0.631  22.964  0.00  0.00    +0.153 A 
ATOM     28  C   UNL     1       2.610   0.012  21.758  0.00  0.00    +0.051 A 
ATOM     31  C   UNL     1       3.913   0.399  21.365  0.00  0.00    +0.042 A 
ATOM     33  C   UNL     1       4.383   1.226  22.359  0.00  0.00    +0.196 A 
ENDBRANCH  21  24
ENDBRANCH  12  19
BRANCH  13  18
ATOM     18  C   UNL     1      -5.010  -0.214  23.997  0.00  0.00    +0.124 C 
BRANCH  18   8
ATOM      8  N   UNL     1      -5.623   0.181  25.276  0.00  0.00    -0.188 NA
ATOM     36  H   UNL     1      -6.155  -0.544  25.772  0.00  0.00    +0.148 HD
BRANCH   8   1
ATOM      1  S   UNL     1      -6.117   1.791  25.527  0.00  0.00    +0.062 S 
ATOM      2  O   UNL     1      -6.214   2.046  26.952  0.00  0.00    -0.153 OA
ATOM      3  O   UNL     1      -7.240   2.084  24.656  0.00  0.00    -0.153 OA
BRANCH   1  23
ATOM     23  C   UNL     1      -4.732   2.696  24.904  0.00  0.00    +0.150 A 
ATOM     26  C   UNL     1      -4.529   4.029  25.260  0.00  0.00    +0.147 A 
ATOM     27  C   UNL     1      -3.838   2.061  24.043  0.00  0.00    +0.077 A 
ATOM     29  C   UNL     1      -2.739   2.759  23.539  0.00  0.00    +0.122 A 
ATOM     30  C   UNL     1      -3.432   4.727  24.756  0.00  0.00    +0.051 A 
ATOM     32  C   UNL     1      -2.537   4.091  23.896  0.00  0.00    +0.049 A 
BRANCH  26   5
ATOM      5  O   UNL     1      -5.391   4.670  26.099  0.00  0.00    -0.493 OA
ATOM     34  C   UNL     1      -6.403   5.475  25.496  0.00  0.00    +0.277 C 
ENDBRANCH  26   5
BRANCH  29   6
ATOM      6  O   UNL     1      -1.866   2.138  22.698  0.00  0.00    -0.495 OA
ATOM     35  C   UNL     1      -2.347   1.800  21.398  0.00  0.00    +0.277 C 
ENDBRANCH  29   6
ENDBRANCH   1  23
ENDBRANCH   8   1
ENDBRANCH  18   8
ENDBRANCH  13  18
TORSDOF 8
ENDMDL
MODEL 4
REMARK VINA RESULT:       4.0      2.101      5.768
REMARK  Name = 26742444
REMARK  11 active torsions:
REMARK  status: ('A' for Active; 'I' for Inactive)
REMARK    1  A    between atoms: S_1  and  N_8
REMARK    2  A    between atoms: S_1  and  C_23
REMARK    3  A    between atoms: O_5  and  C_26
REMARK    4  A    between atoms: O_5  and  C_34
REMARK    5  A    between atoms: O_6  and  C_29
REMARK    6  A    between atoms: O_6  and  C_35
REMARK    7  A    between atoms: N_8  and  C_18
REMARK    8  A    between atoms: C_12  and  C_19
REMARK    9  A    between atoms: C_13  and  C_18
REMARK   10  A    between atoms: C_21  and  C_24
REMARK   11  A    between atoms: C_22  and  C_25
REMARK                            x       y       z     vdW  Elec       q    Type
REMARK                         _______ _______ _______ _____ _____    ______ ____
ROOT
ATOM      7  N   UNL     1      -1.957  -2.039  23.866  0.00  0.00    -0.297 NA
ATOM     11  C   UNL     1      -3.720  -1.882  25.776  0.00  0.00    +0.002 C 
ATOM     12  C   UNL     1      -4.034  -0.847  24.659  0.00  0.00    +0.055 C 
ATOM     13  C   UNL     1      -1.273  -1.946  25.183  0.00  0.00    +0.072 C 
ATOM     14  C   UNL     1      -2.290  -1.644  26.305  0.00  0.00    +0.024 C 
ATOM     15  C   UNL     1      -3.733  -3.274  25.108  0.00  0.00    +0.019 C 
ATOM     16  C   UNL     1      -2.837  -0.861  23.666  0.00  0.00    +0.094 C 
ATOM     17  C   UNL     1      -2.805  -3.254  23.880  0.00  0.00    +0.085 C 
ENDROOT
BRANCH  12  19
ATOM      9  N   UNL     1      -5.568   0.697  25.775  0.00  0.00    -0.237 NA
ATOM     10  N   UNL     1      -5.168   3.072  25.853  0.00  0.00    -0.229 NA
ATOM     19  C   UNL     1      -4.422   0.564  25.077  0.00  0.00    +0.050 A 
ATOM     20  C   UNL     1      -3.606   1.623  24.734  0.00  0.00    +0.055 A 
ATOM     21  C   UNL     1      -4.033   2.866  25.153  0.00  0.00    +0.110 A 
ATOM     22  C   UNL     1      -5.877   1.960  26.125  0.00  0.00    +0.127 A 
ATOM     25  C   UNL     1      -7.138   2.147  26.900  0.00  0.00    +0.088 C 
BRANCH  21  24
ATOM      4  O   UNL     1      -2.270   4.333  25.728  0.00  0.00    -0.461 OA
ATOM     24  C   UNL     1      -3.280   4.056  24.861  0.00  0.00    +0.153 A 
ATOM     28  C   UNL     1      -3.345   5.013  23.874  0.00  0.00    +0.051 A 
ATOM     31  C   UNL     1      -2.310   5.936  24.153  0.00  0.00    +0.042 A 
ATOM     33  C   UNL     1      -1.685   5.479  25.290  0.00  0.00    +0.196 A 
ENDBRANCH  21  24
ENDBRANCH  12  19
BRANCH  13  18
ATOM     18  C   UNL     1      -0.122  -0.938  25.172  0.00  0.00    +0.124 C 
BRANCH  18   8
ATOM      8  N   UNL     1      -0.658   0.412  25.413  0.00  0.00    -0.188 NA
ATOM     36  H   UNL     1      -1.677   0.487  25.519  0.00  0.00    +0.148 HD
BRANCH   8   1
ATOM      1  S   UNL     1       0.143   1.776  24.783  0.00  0.00    +0.062 S 
ATOM      2  O   UNL     1       0.960   2.374  25.823  0.00  0.00    -0.153 OA
ATOM      3  O   UNL     1      -0.808   2.587  24.047  0.00  0.00    -0.153 OA
BRANCH   1  23
ATOM     23  C   UNL     1       1.224   1.043  23.593  0.00  0.00    +0.150 A 
ATOM     26  C   UNL     1       0.717   0.300  22.527  0.00  0.00    +0.147 A 
ATOM     27  C   UNL     1       2.602   1.212  23.732  0.00  0.00    +0.077 A 
ATOM     29  C   UNL     1       3.472   0.640  22.803  0.00  0.00    +0.122 A 
ATOM     30  C   UNL     1       1.587  -0.273  21.599  0.00  0.00    +0.051 A 
ATOM     32  C   UNL     1       2.964  -0.102  21.737  0.00  0.00    +0.049 A 
BRANCH  26   5
ATOM      5  O   UNL     1      -0.625   0.120  22.372  0.00  0.00    -0.493 OA
ATOM     34  C   UNL     1      -1.360   1.196  21.793  0.00  0.00    +0.277 C 
ENDBRANCH  26   5
BRANCH  29   6
ATOM      6  O   UNL     1       4.817   0.806  22.938  0.00  0.00    -0.495 OA
ATOM     35  C   UNL     1       5.499  -0.107  23.797  0.00  0.00    +0.277 C 
ENDBRANCH  29   6
ENDBRANCH   1  23
ENDBRANCH   8   1
ENDBRANCH  18   8
ENDBRANCH  13  18
TORSDOF 8
ENDMDL
MODEL 5
REMARK VINA RESULT:       4.9      1.974      4.319
REMARK  Name = 26742444
REMARK  11 active torsions:
REMARK  status: ('A' for Active; 'I' for Inactive)
REMARK    1  A    between atoms: S_1  and  N_8
REMARK    2  A    between atoms: S_1  and  C_23
REMARK    3  A    between atoms: O_5  and  C_26
REMARK    4  A    between atoms: O_5  and  C_34
REMARK    5  A    between atoms: O_6  and  C_29
REMARK    6  A    between atoms: O_6  and  C_35
REMARK    7  A    between atoms: N_8  and  C_18
REMARK    8  A    between atoms: C_12  and  C_19
REMARK    9  A    between atoms: C_13  and  C_18
REMARK   10  A    between atoms: C_21  and  C_24
REMARK   11  A    between atoms: C_22  and  C_25
REMARK                            x       y       z     vdW  Elec       q    Type
REMARK                         _______ _______ _______ _____ _____    ______ ____
ROOT
ATOM      7  N   UNL     1      -2.374   4.288  24.547  0.00  0.00    -0.297 NA
ATOM     11  C   UNL     1       0.163   4.109  25.108  0.00  0.00    +0.002 C 
ATOM     12  C   UNL     1      -0.187   3.220  23.882  0.00  0.00    +0.055 C 
ATOM     13  C   UNL     1      -2.192   4.006  25.996  0.00  0.00    +0.072 C 
ATOM     14  C   UNL     1      -0.713   3.692  26.308  0.00  0.00    +0.024 C 
ATOM     15  C   UNL     1      -0.234   5.554  24.737  0.00  0.00    +0.019 C 
ATOM     16  C   UNL     1      -1.736   3.220  23.737  0.00  0.00    +0.094 C 
ATOM     17  C   UNL     1      -1.692   5.569  24.245  0.00  0.00    +0.085 C 
ENDROOT
BRANCH  12  19
ATOM      9  N   UNL     1      -0.468   0.791  23.945  0.00  0.00    -0.237 NA
ATOM     10  N   UNL     1       1.393  -0.723  23.722  0.00  0.00    -0.229 NA
ATOM     19  C   UNL     1       0.398   1.817  23.822  0.00  0.00    +0.050 A 
ATOM     20  C   UNL     1       1.759   1.655  23.648  0.00  0.00    +0.055 A 
ATOM     21  C   UNL     1       2.204   0.350  23.605  0.00  0.00    +0.110 A 
ATOM     22  C   UNL     1       0.089  -0.434  23.887  0.00  0.00    +0.127 A 
ATOM     25  C   UNL     1      -0.839  -1.594  24.018  0.00  0.00    +0.088 C 
BRANCH  21  24
ATOM      4  O   UNL     1       3.956  -1.230  23.765  0.00  0.00    -0.461 OA
ATOM     24  C   UNL     1       3.597   0.038  23.430  0.00  0.00    +0.153 A 
ATOM     28  C   UNL     1       4.688   0.748  22.986  0.00  0.00    +0.051 A 
ATOM     31  C   UNL     1       5.788  -0.139  23.054  0.00  0.00    +0.042 A 
ATOM     33  C   UNL     1       5.292  -1.329  23.534  0.00  0.00    +0.196 A 
ENDBRANCH  21  24
ENDBRANCH  12  19
BRANCH  13  18
ATOM     18  C   UNL     1      -3.127   2.903  26.496  0.00  0.00    +0.124 C 
BRANCH  18   8
ATOM      8  N   UNL     1      -4.509   3.410  26.512  0.00  0.00    -0.188 NA
ATOM     36  H   UNL     1      -4.741   4.084  27.252  0.00  0.00    +0.148 HD
BRANCH   8   1
ATOM      1  S   UNL     1      -5.785   2.434  25.948  0.00  0.00    +0.062 S 
ATOM      2  O   UNL     1      -6.608   3.203  25.033  0.00  0.00    -0.153 OA
ATOM      3  O   UNL     1      -6.392   1.748  27.073  0.00  0.00    -0.153 OA
BRANCH   1  23
ATOM     23  C   UNL     1      -4.918   1.214  25.007  0.00  0.00    +0.150 A 
ATOM     26  C   UNL     1      -4.387   1.520  23.755  0.00  0.00    +0.147 A 
ATOM     27  C   UNL     1      -4.771  -0.070  25.532  0.00  0.00    +0.077 A 
ATOM     29  C   UNL     1      -4.092  -1.048  24.804  0.00  0.00    +0.122 A 
ATOM     30  C   UNL     1      -3.708   0.543  23.027  0.00  0.00    +0.051 A 
ATOM     32  C   UNL     1      -3.560  -0.740  23.552  0.00  0.00    +0.049 A 
BRANCH  26   5
ATOM      5  O   UNL     1      -4.519   2.767  23.222  0.00  0.00    -0.493 OA
ATOM     34  C   UNL     1      -3.990   2.972  21.913  0.00  0.00    +0.277 C 
ENDBRANCH  26   5
BRANCH  29   6
ATOM      6  O   UNL     1      -3.948  -2.301  25.316  0.00  0.00    -0.495 OA
ATOM     35  C   UNL     1      -3.594  -3.338  24.402  0.00  0.00    +0.277 C 
ENDBRANCH  29   6
ENDBRANCH   1  23
ENDBRANCH   8   1
ENDBRANCH  18   8
ENDBRANCH  13  18
TORSDOF 8
ENDMDL
MODEL 6
REMARK VINA RESULT:       5.3      2.274      4.881
REMARK  Name = 26742444
REMARK  11 active torsions:
REMARK  status: ('A' for Active; 'I' for Inactive)
REMARK    1  A    between atoms: S_1  and  N_8
REMARK    2  A    between atoms: S_1  and  C_23
REMARK    3  A    between atoms: O_5  and  C_26
REMARK    4  A    between atoms: O_5  and  C_34
REMARK    5  A    between atoms: O_6  and  C_29
REMARK    6  A    between atoms: O_6  and  C_35
REMARK    7  A    between atoms: N_8  and  C_18
REMARK    8  A    between atoms: C_12  and  C_19
REMARK    9  A    between atoms: C_13  and  C_18
REMARK   10  A    between atoms: C_21  and  C_24
REMARK   11  A    between atoms: C_22  and  C_25
REMARK                            x       y       z     vdW  Elec       q    Type
REMARK                         _______ _______ _______ _____ _____    ______ ____
ROOT
ATOM      7  N   UNL     1      -4.882   3.398  26.469  0.00  0.00    -0.297 NA
ATOM     11  C   UNL     1      -5.271   2.473  24.067  0.00  0.00    +0.002 C 
ATOM     12  C   UNL     1      -5.344   1.323  25.111  0.00  0.00    +0.055 C 
ATOM     13  C   UNL     1      -3.812   3.884  25.558  0.00  0.00    +0.072 C 
ATOM     14  C   UNL     1      -3.907   3.184  24.186  0.00  0.00    +0.024 C 
ATOM     15  C   UNL     1      -6.355   3.499  24.460  0.00  0.00    +0.019 C 
ATOM     16  C   UNL     1      -4.904   1.914  26.481  0.00  0.00    +0.094 C 
ATOM     17  C   UNL     1      -6.181   3.877  25.941  0.00  0.00    +0.085 C 
ENDROOT
BRANCH  12  19
ATOM      9  N   UNL     1      -5.332  -0.898  24.087  0.00  0.00    -0.237 NA
ATOM     10  N   UNL     1      -3.410  -2.348  24.185  0.00  0.00    -0.229 NA
ATOM     19  C   UNL     1      -4.634   0.016  24.790  0.00  0.00    +0.050 A 
ATOM     20  C   UNL     1      -3.336  -0.176  25.219  0.00  0.00    +0.055 A 
ATOM     21  C   UNL     1      -2.769  -1.388  24.885  0.00  0.00    +0.110 A 
ATOM     22  C   UNL     1      -4.670  -2.041  23.823  0.00  0.00    +0.127 A 
ATOM     25  C   UNL     1      -5.411  -3.077  23.047  0.00  0.00    +0.088 C 
BRANCH  21  24
ATOM      4  O   UNL     1      -0.963  -2.913  24.810  0.00  0.00    -0.461 OA
ATOM     24  C   UNL     1      -1.424  -1.720  25.271  0.00  0.00    +0.153 A 
ATOM     28  C   UNL     1      -0.461  -1.088  26.024  0.00  0.00    +0.051 A 
ATOM     31  C   UNL     1       0.663  -1.948  26.026  0.00  0.00    +0.042 A 
ATOM     33  C   UNL     1       0.308  -3.044  25.275  0.00  0.00    +0.196 A 
ENDBRANCH  21  24
ENDBRANCH  12  19
BRANCH  13  18
ATOM     18  C   UNL     1      -2.418   3.749  26.172  0.00  0.00    +0.124 C 
BRANCH  18   8
ATOM      8  N   UNL     1      -1.640   2.769  25.396  0.00  0.00    -0.188 NA
ATOM     36  H   UNL     1      -1.901   1.783  25.511  0.00  0.00    +0.148 HD
BRANCH   8   1
ATOM      1  S   UNL     1      -0.011   3.082  25.010  0.00  0.00    +0.062 S 
ATOM      2  O   UNL     1       0.796   2.967  26.209  0.00  0.00    -0.153 OA
ATOM      3  O   UNL     1       0.062   4.280  24.194  0.00  0.00    -0.153 OA
BRANCH   1  23
ATOM     23  C   UNL     1       0.379   1.717  23.956  0.00  0.00    +0.150 A 
ATOM     26  C   UNL     1      -0.600   1.128  23.156  0.00  0.00    +0.147 A 
ATOM     27  C   UNL     1       1.685   1.229  23.934  0.00  0.00    +0.077 A 
ATOM     29  C   UNL     1       2.013   0.151  23.110  0.00  0.00    +0.122 A 
ATOM     30  C   UNL     1      -0.273   0.050  22.334  0.00  0.00    +0.051 A 
ATOM     32  C   UNL     1       1.034  -0.437  22.310  0.00  0.00    +0.049 A 
BRANCH  26   5
ATOM      5  O   UNL     1      -1.882   1.588  23.163  0.00  0.00    -0.493 OA
ATOM     34  C   UNL     1      -2.447   1.950  21.904  0.00  0.00    +0.277 C 
ENDBRANCH  26   5
BRANCH  29   6
ATOM      6  O   UNL     1       3.288  -0.326  23.088  0.00  0.00    -0.495 OA
ATOM     35  C   UNL     1       4.332   0.625  22.882  0.00  0.00    +0.277 C 
ENDBRANCH  29   6
ENDBRANCH   1  23
ENDBRANCH   8   1
ENDBRANCH  18   8
ENDBRANCH  13  18
TORSDOF 8
ENDMDL
MODEL 7
REMARK VINA RESULT:       5.4      2.468      5.422
REMARK  Name = 26742444
REMARK  11 active torsions:
REMARK  status: ('A' for Active; 'I' for Inactive)
REMARK    1  A    between atoms: S_1  and  N_8
REMARK    2  A    between atoms: S_1  and  C_23
REMARK    3  A    between atoms: O_5  and  C_26
REMARK    4  A    between atoms: O_5  and  C_34
REMARK    5  A    between atoms: O_6  and  C_29
REMARK    6  A    between atoms: O_6  and  C_35
REMARK    7  A    between atoms: N_8  and  C_18
REMARK    8  A    between atoms: C_12  and  C_19
REMARK    9  A    between atoms: C_13  and  C_18
REMARK   10  A    between atoms: C_21  and  C_24
REMARK   11  A    between atoms: C_22  and  C_25
REMARK                            x       y       z     vdW  Elec       q    Type
REMARK                         _______ _______ _______ _____ _____    ______ ____
ROOT
ATOM      7  N   UNL     1      -5.387   3.354  24.467  0.00  0.00    -0.297 NA
ATOM     11  C   UNL     1      -4.071   4.086  26.591  0.00  0.00    +0.002 C 
ATOM     12  C   UNL     1      -3.151   4.133  25.339  0.00  0.00    +0.055 C 
ATOM     13  C   UNL     1      -5.583   2.359  25.554  0.00  0.00    +0.072 C 
ATOM     14  C   UNL     1      -4.650   2.664  26.746  0.00  0.00    +0.024 C 
ATOM     15  C   UNL     1      -5.257   5.032  26.307  0.00  0.00    +0.019 C 
ATOM     16  C   UNL     1      -3.941   3.495  24.161  0.00  0.00    +0.094 C 
ATOM     17  C   UNL     1      -5.887   4.662  24.953  0.00  0.00    +0.085 C 
ENDROOT
BRANCH  12  19
ATOM      9  N   UNL     1      -1.111   3.258  24.312  0.00  0.00    -0.237 NA
ATOM     10  N   UNL     1       0.788   2.561  25.620  0.00  0.00    -0.229 NA
ATOM     19  C   UNL     1      -1.743   3.571  25.461  0.00  0.00    +0.050 A 
ATOM     20  C   UNL     1      -1.181   3.410  26.712  0.00  0.00    +0.055 A 
ATOM     21  C   UNL     1       0.099   2.896  26.731  0.00  0.00    +0.110 A 
ATOM     22  C   UNL     1       0.133   2.765  24.461  0.00  0.00    +0.127 A 
ATOM     25  C   UNL     1       0.863   2.408  23.211  0.00  0.00    +0.088 C 
BRANCH  21  24
ATOM      4  O   UNL     1       2.138   2.921  27.929  0.00  0.00    -0.461 OA
ATOM     24  C   UNL     1       0.801   2.674  27.966  0.00  0.00    +0.153 A 
ATOM     28  C   UNL     1       0.421   2.258  29.221  0.00  0.00    +0.051 A 
ATOM     31  C   UNL     1       1.600   2.247  30.004  0.00  0.00    +0.042 A 
ATOM     33  C   UNL     1       2.616   2.657  29.173  0.00  0.00    +0.196 A 
ENDBRANCH  21  24
ENDBRANCH  12  19
BRANCH  13  18
ATOM     18  C   UNL     1      -5.425   0.919  25.061  0.00  0.00    +0.124 C 
BRANCH  18   8
ATOM      8  N   UNL     1      -3.993   0.587  24.985  0.00  0.00    -0.188 NA
ATOM     36  H   UNL     1      -3.370   1.103  25.619  0.00  0.00    +0.148 HD
BRANCH   8   1
ATOM      1  S   UNL     1      -3.313   0.058  23.517  0.00  0.00    +0.062 S 
ATOM      2  O   UNL     1      -2.968   1.210  22.706  0.00  0.00    -0.153 OA
ATOM      3  O   UNL     1      -4.138  -1.000  22.966  0.00  0.00    -0.153 OA
BRANCH   1  23
ATOM     23  C   UNL     1      -1.810  -0.694  24.065  0.00  0.00    +0.150 A 
ATOM     26  C   UNL     1      -1.817  -1.652  25.079  0.00  0.00    +0.147 A 
ATOM     27  C   UNL     1      -0.606  -0.316  23.471  0.00  0.00    +0.077 A 
ATOM     29  C   UNL     1       0.592  -0.896  23.891  0.00  0.00    +0.122 A 
ATOM     30  C   UNL     1      -0.620  -2.231  25.499  0.00  0.00    +0.051 A 
ATOM     32  C   UNL     1       0.584  -1.854  24.904  0.00  0.00    +0.049 A 
BRANCH  26   5
ATOM      5  O   UNL     1      -2.980  -2.035  25.674  0.00  0.00    -0.493 OA
ATOM     34  C   UNL     1      -3.624  -3.195  25.150  0.00  0.00    +0.277 C 
ENDBRANCH  26   5
BRANCH  29   6
ATOM      6  O   UNL     1       1.767  -0.527  23.311  0.00  0.00    -0.495 OA
ATOM     35  C   UNL     1       1.769  -0.368  21.893  0.00  0.00    +0.277 C 
ENDBRANCH  29   6
ENDBRANCH   1  23
ENDBRANCH   8   1
ENDBRANCH  18   8
ENDBRANCH  13  18
TORSDOF 8
ENDMDL
MODEL 8
REMARK VINA RESULT:       6.2      2.825      5.489
REMARK  Name = 26742444
REMARK  11 active torsions:
REMARK  status: ('A' for Active; 'I' for Inactive)
REMARK    1  A    between atoms: S_1  and  N_8
REMARK    2  A    between atoms: S_1  and  C_23
REMARK    3  A    between atoms: O_5  and  C_26
REMARK    4  A    between atoms: O_5  and  C_34
REMARK    5  A    between atoms: O_6  and  C_29
REMARK    6  A    between atoms: O_6  and  C_35
REMARK    7  A    between atoms: N_8  and  C_18
REMARK    8  A    between atoms: C_12  and  C_19
REMARK    9  A    between atoms: C_13  and  C_18
REMARK   10  A    between atoms: C_21  and  C_24
REMARK   11  A    between atoms: C_22  and  C_25
REMARK                            x       y       z     vdW  Elec       q    Type
REMARK                         _______ _______ _______ _____ _____    ______ ____
ROOT
ATOM      7  N   UNL     1      -5.263   1.392  23.911  0.00  0.00    -0.297 NA
ATOM     11  C   UNL     1      -4.517   2.119  26.297  0.00  0.00    +0.002 C 
ATOM     12  C   UNL     1      -3.833   3.005  25.219  0.00  0.00    +0.055 C 
ATOM     13  C   UNL     1      -4.821   0.204  24.689  0.00  0.00    +0.072 C 
ATOM     14  C   UNL     1      -4.183   0.637  26.027  0.00  0.00    +0.024 C 
ATOM     15  C   UNL     1      -6.040   2.284  26.106  0.00  0.00    +0.019 C 
ATOM     16  C   UNL     1      -4.164   2.386  23.832  0.00  0.00    +0.094 C 
ATOM     17  C   UNL     1      -6.398   2.012  24.635  0.00  0.00    +0.085 C 
ENDROOT
BRANCH  12  19
ATOM      9  N   UNL     1      -1.748   3.946  24.351  0.00  0.00    -0.237 NA
ATOM     10  N   UNL     1       0.309   3.885  25.605  0.00  0.00    -0.229 NA
ATOM     19  C   UNL     1      -2.350   3.311  25.377  0.00  0.00    +0.050 A 
ATOM     20  C   UNL     1      -1.698   2.935  26.535  0.00  0.00    +0.055 A 
ATOM     21  C   UNL     1      -0.356   3.251  26.593  0.00  0.00    +0.110 A 
ATOM     22  C   UNL     1      -0.437   4.198  24.528  0.00  0.00    +0.127 A 
ATOM     25  C   UNL     1       0.262   4.901  23.414  0.00  0.00    +0.088 C 
BRANCH  21  24
ATOM      4  O   UNL     1       1.787   3.035  27.568  0.00  0.00    -0.461 OA
ATOM     24  C   UNL     1       0.444   2.916  27.740  0.00  0.00    +0.153 A 
ATOM     28  C   UNL     1       0.156   2.490  29.016  0.00  0.00    +0.051 A 
ATOM     31  C   UNL     1       1.402   2.336  29.669  0.00  0.00    +0.042 A 
ATOM     33  C   UNL     1       2.363   2.679  28.747  0.00  0.00    +0.196 A 
ENDBRANCH  21  24
ENDBRANCH  12  19
BRANCH  13  18
ATOM     18  C   UNL     1      -3.893  -0.708  23.885  0.00  0.00    +0.124 C 
BRANCH  18   8
ATOM      8  N   UNL     1      -3.503  -1.858  24.717  0.00  0.00    -0.188 NA
ATOM     36  H   UNL     1      -3.829  -1.849  25.691  0.00  0.00    +0.148 HD
BRANCH   8   1
ATOM      1  S   UNL     1      -2.041  -2.677  24.414  0.00  0.00    +0.062 S 
ATOM      2  O   UNL     1      -2.162  -3.430  23.180  0.00  0.00    -0.153 OA
ATOM      3  O   UNL     1      -1.605  -3.336  25.631  0.00  0.00    -0.153 OA
BRANCH   1  23
ATOM     23  C   UNL     1      -0.927  -1.335  24.127  0.00  0.00    +0.150 A 
ATOM     26  C   UNL     1      -0.810  -0.293  25.047  0.00  0.00    +0.147 A 
ATOM     27  C   UNL     1      -0.162  -1.325  22.961  0.00  0.00    +0.077 A 
ATOM     29  C   UNL     1       0.722  -0.274  22.716  0.00  0.00    +0.122 A 
ATOM     30  C   UNL     1       0.073   0.758  24.802  0.00  0.00    +0.051 A 
ATOM     32  C   UNL     1       0.840   0.767  23.636  0.00  0.00    +0.049 A 
BRANCH  26   5
ATOM      5  O   UNL     1      -1.548  -0.281  26.192  0.00  0.00    -0.493 OA
ATOM     34  C   UNL     1      -0.906  -0.734  27.382  0.00  0.00    +0.277 C 
ENDBRANCH  26   5
BRANCH  29   6
ATOM      6  O   UNL     1       1.470  -0.264  21.578  0.00  0.00    -0.495 OA
ATOM     35  C   UNL     1       2.849   0.074  21.711  0.00  0.00    +0.277 C 
ENDBRANCH  29   6
ENDBRANCH   1  23
ENDBRANCH   8   1
ENDBRANCH  18   8
ENDBRANCH  13  18
TORSDOF 8
ENDMDL
MODEL 9
REMARK VINA RESULT:       6.4      2.200      5.061
REMARK  Name = 26742444
REMARK  11 active torsions:
REMARK  status: ('A' for Active; 'I' for Inactive)
REMARK    1  A    between atoms: S_1  and  N_8
REMARK    2  A    between atoms: S_1  and  C_23
REMARK    3  A    between atoms: O_5  and  C_26
REMARK    4  A    between atoms: O_5  and  C_34
REMARK    5  A    between atoms: O_6  and  C_29
REMARK    6  A    between atoms: O_6  and  C_35
REMARK    7  A    between atoms: N_8  and  C_18
REMARK    8  A    between atoms: C_12  and  C_19
REMARK    9  A    between atoms: C_13  and  C_18
REMARK   10  A    between atoms: C_21  and  C_24
REMARK   11  A    between atoms: C_22  and  C_25
REMARK                            x       y       z     vdW  Elec       q    Type
REMARK                         _______ _______ _______ _____ _____    ______ ____
ROOT
ATOM      7  N   UNL     1      -2.633   4.279  24.541  0.00  0.00    -0.297 NA
ATOM     11  C   UNL     1      -0.073   4.135  24.993  0.00  0.00    +0.002 C 
ATOM     12  C   UNL     1      -0.455   3.280  23.752  0.00  0.00    +0.055 C 
ATOM     13  C   UNL     1      -2.387   3.953  25.971  0.00  0.00    +0.072 C 
ATOM     14  C   UNL     1      -0.890   3.660  26.212  0.00  0.00    +0.024 C 
ATOM     15  C   UNL     1      -0.512   5.583  24.687  0.00  0.00    +0.019 C 
ATOM     16  C   UNL     1      -2.008   3.253  23.670  0.00  0.00    +0.094 C 
ATOM     17  C   UNL     1      -1.989   5.583  24.256  0.00  0.00    +0.085 C 
ENDROOT
BRANCH  12  19
ATOM      9  N   UNL     1      -0.703   0.854  23.564  0.00  0.00    -0.237 NA
ATOM     10  N   UNL     1       1.194  -0.621  23.385  0.00  0.00    -0.229 NA
ATOM     19  C   UNL     1       0.155   1.893  23.621  0.00  0.00    +0.050 A 
ATOM     20  C   UNL     1       1.528   1.756  23.567  0.00  0.00    +0.055 A 
ATOM     21  C   UNL     1       1.996   0.464  23.447  0.00  0.00    +0.110 A 
ATOM     22  C   UNL     1      -0.125  -0.357  23.448  0.00  0.00    +0.127 A 
ATOM     25  C   UNL     1      -1.043  -1.530  23.380  0.00  0.00    +0.088 C 
BRANCH  21  24
ATOM      4  O   UNL     1       3.761  -1.079  23.759  0.00  0.00    -0.461 OA
ATOM     24  C   UNL     1       3.403   0.178  23.382  0.00  0.00    +0.153 A 
ATOM     28  C   UNL     1       4.512   0.905  23.012  0.00  0.00    +0.051 A 
ATOM     31  C   UNL     1       5.620   0.041  23.174  0.00  0.00    +0.042 A 
ATOM     33  C   UNL     1       5.112  -1.153  23.631  0.00  0.00    +0.196 A 
ENDBRANCH  21  24
ENDBRANCH  12  19
BRANCH  13  18
ATOM     18  C   UNL     1      -3.278   2.815  26.470  0.00  0.00    +0.124 C 
BRANCH  18   8
ATOM      8  N   UNL     1      -3.213   1.695  25.517  0.00  0.00    -0.188 NA
ATOM     36  H   UNL     1      -2.404   1.678  24.885  0.00  0.00    +0.148 HD
BRANCH   8   1
ATOM      1  S   UNL     1      -4.646   0.983  24.933  0.00  0.00    +0.062 S 
ATOM      2  O   UNL     1      -4.929   1.496  23.606  0.00  0.00    -0.153 OA
ATOM      3  O   UNL     1      -5.661   1.041  25.968  0.00  0.00    -0.153 OA
BRANCH   1  23
ATOM     23  C   UNL     1      -4.169  -0.711  24.773  0.00  0.00    +0.150 A 
ATOM     26  C   UNL     1      -3.273  -1.290  25.672  0.00  0.00    +0.147 A 
ATOM     27  C   UNL     1      -4.700  -1.470  23.731  0.00  0.00    +0.077 A 
ATOM     29  C   UNL     1      -4.334  -2.809  23.587  0.00  0.00    +0.122 A 
ATOM     30  C   UNL     1      -2.907  -2.628  25.528  0.00  0.00    +0.051 A 
ATOM     32  C   UNL     1      -3.439  -3.388  24.485  0.00  0.00    +0.049 A 
BRANCH  26   5
ATOM      5  O   UNL     1      -2.742  -0.568  26.697  0.00  0.00    -0.493 OA
ATOM     34  C   UNL     1      -1.323  -0.592  26.840  0.00  0.00    +0.277 C 
ENDBRANCH  26   5
BRANCH  29   6
ATOM      6  O   UNL     1      -4.852  -3.550  22.569  0.00  0.00    -0.495 OA
ATOM     35  C   UNL     1      -6.150  -4.108  22.768  0.00  0.00    +0.277 C 
ENDBRANCH  29   6
ENDBRANCH   1  23
ENDBRANCH   8   1
ENDBRANCH  18   8
ENDBRANCH  13  18
TORSDOF 8
ENDMDL
MODEL 10
REMARK VINA RESULT:       6.6      2.594      6.616
REMARK  Name = 26742444
REMARK  11 active torsions:
REMARK  status: ('A' for Active; 'I' for Inactive)
REMARK    1  A    between atoms: S_1  and  N_8
REMARK    2  A    between atoms: S_1  and  C_23
REMARK    3  A    between atoms: O_5  and  C_26
REMARK    4  A    between atoms: O_5  and  C_34
REMARK    5  A    between atoms: O_6  and  C_29
REMARK    6  A    between atoms: O_6  and  C_35
REMARK    7  A    between atoms: N_8  and  C_18
REMARK    8  A    between atoms: C_12  and  C_19
REMARK    9  A    between atoms: C_13  and  C_18
REMARK   10  A    between atoms: C_21  and  C_24
REMARK   11  A    between atoms: C_22  and  C_25
REMARK                            x       y       z     vdW  Elec       q    Type
REMARK                         _______ _______ _______ _____ _____    ______ ____
ROOT
ATOM      7  N   UNL     1      -0.293   3.954  25.572  0.00  0.00    -0.297 NA
ATOM     11  C   UNL     1      -2.143   3.827  23.744  0.00  0.00    +0.002 C 
ATOM     12  C   UNL     1      -2.751   3.577  25.152  0.00  0.00    +0.055 C 
ATOM     13  C   UNL     1       0.141   3.054  24.471  0.00  0.00    +0.072 C 
ATOM     14  C   UNL     1      -1.019   2.802  23.484  0.00  0.00    +0.024 C 
ATOM     15  C   UNL     1      -1.485   5.223  23.786  0.00  0.00    +0.019 C 
ATOM     16  C   UNL     1      -1.567   3.467  26.155  0.00  0.00    +0.094 C 
ATOM     17  C   UNL     1      -0.532   5.297  24.992  0.00  0.00    +0.085 C 
ENDROOT
BRANCH  12  19
ATOM      9  N   UNL     1      -4.945   2.752  25.853  0.00  0.00    -0.237 NA
ATOM     10  N   UNL     1      -5.583   0.440  25.619  0.00  0.00    -0.229 NA
ATOM     19  C   UNL     1      -3.750   2.440  25.311  0.00  0.00    +0.050 A 
ATOM     20  C   UNL     1      -3.403   1.167  24.904  0.00  0.00    +0.055 A 
ATOM     21  C   UNL     1      -4.368   0.198  25.084  0.00  0.00    +0.110 A 
ATOM     22  C   UNL     1      -5.801   1.720  25.977  0.00  0.00    +0.127 A 
ATOM     25  C   UNL     1      -7.134   2.028  26.572  0.00  0.00    +0.088 C 
BRANCH  21  24
ATOM      4  O   UNL     1      -3.395  -1.899  25.580  0.00  0.00    -0.461 OA
ATOM     24  C   UNL     1      -4.138  -1.170  24.705  0.00  0.00    +0.153 A 
ATOM     28  C   UNL     1      -4.508  -1.940  23.627  0.00  0.00    +0.051 A 
ATOM     31  C   UNL     1      -3.957  -3.223  23.852  0.00  0.00    +0.042 A 
ATOM     33  C   UNL     1      -3.289  -3.147  25.053  0.00  0.00    +0.196 A 
ENDBRANCH  21  24
ENDBRANCH  12  19
BRANCH  13  18
ATOM     18  C   UNL     1       0.741   1.746  24.990  0.00  0.00    +0.124 C 
BRANCH  18   8
ATOM      8  N   UNL     1      -0.306   0.711  25.019  0.00  0.00    -0.188 NA
ATOM     36  H   UNL     1      -0.978   0.761  25.795  0.00  0.00    +0.148 HD
BRANCH   8   1
ATOM      1  S   UNL     1       0.003  -0.838  24.382  0.00  0.00    +0.062 S 
ATOM      2  O   UNL     1      -1.001  -1.154  23.384  0.00  0.00    -0.153 OA
ATOM      3  O   UNL     1       0.260  -1.758  25.474  0.00  0.00    -0.153 OA
BRANCH   1  23
ATOM     23  C   UNL     1       1.541  -0.585  23.549  0.00  0.00    +0.150 A 
ATOM     26  C   UNL     1       1.575  -0.092  22.244  0.00  0.00    +0.147 A 
ATOM     27  C   UNL     1       2.731  -0.888  24.211  0.00  0.00    +0.077 A 
ATOM     29  C   UNL     1       3.955  -0.697  23.569  0.00  0.00    +0.122 A 
ATOM     30  C   UNL     1       2.799   0.098  21.602  0.00  0.00    +0.051 A 
ATOM     32  C   UNL     1       3.988  -0.204  22.265  0.00  0.00    +0.049 A 
BRANCH  26   5
ATOM      5  O   UNL     1       0.426   0.209  21.577  0.00  0.00    -0.493 OA
ATOM     34  C   UNL     1       0.164  -0.518  20.378  0.00  0.00    +0.277 C 
ENDBRANCH  26   5
BRANCH  29   6
ATOM      6  O   UNL     1       5.116  -0.992  24.216  0.00  0.00    -0.495 OA
ATOM     35  C   UNL     1       6.259  -0.203  23.889  0.00  0.00    +0.277 C 
ENDBRANCH  29   6
ENDBRANCH   1  23
ENDBRANCH   8   1
ENDBRANCH  18   8
ENDBRANCH  13  18
TORSDOF 8
ENDMDL
