MODEL 1
REMARK VINA RESULT:      -5.8      0.000      0.000
REMARK  Name = 71694218
REMARK  4 active torsions:
REMARK  status: ('A' for Active; 'I' for Inactive)
REMARK    1  A    between atoms: N_3  and  C_9
REMARK    2  A    between atoms: C_6  and  C_9
REMARK    3  A    between atoms: C_10  and  C_14
REMARK    4  A    between atoms: C_15  and  C_17
REMARK                            x       y       z     vdW  Elec       q    Type
REMARK                         _______ _______ _______ _____ _____    ______ ____
ROOT
ATOM      4  N   UNL     1      -1.355   1.590  23.859  0.00  0.00    -0.341 N 
ATOM      5  N   UNL     1      -1.294   2.530  25.870  0.00  0.00    -0.238 NA
ATOM     14  C   UNL     1      -2.065   2.192  24.859  0.00  0.00    +0.127 A 
ATOM     15  C   UNL     1      -0.048   1.539  24.255  0.00  0.00    +0.066 A 
ATOM     16  C   UNL     1      -0.036   2.125  25.499  0.00  0.00    +0.139 A 
ATOM     23  H   UNL     1      -1.734   1.255  22.982  0.00  0.00    +0.167 HD
ENDROOT
BRANCH  15  17
ATOM      1  F   UNL     1       4.601   1.250  23.003  0.00  0.00    -0.205 F 
ATOM     17  C   UNL     1       1.001   0.968  23.454  0.00  0.00    +0.003 A 
ATOM     18  C   UNL     1       2.318   1.394  23.620  0.00  0.00    +0.048 A 
ATOM     19  C   UNL     1       0.701  -0.015  22.510  0.00  0.00    +0.010 A 
ATOM     20  C   UNL     1       3.335   0.840  22.843  0.00  0.00    +0.124 A 
ATOM     21  C   UNL     1       1.717  -0.570  21.732  0.00  0.00    +0.003 A 
ATOM     22  C   UNL     1       3.035  -0.143  21.900  0.00  0.00    +0.038 A 
ENDBRANCH  15  17
BRANCH  14  10
ATOM      2  O   UNL     1      -5.358   3.900  25.488  0.00  0.00    -0.377 OA
ATOM      3  N   UNL     1      -4.372   1.233  25.154  0.00  0.00    -0.288 NA
ATOM     10  C   UNL     1      -3.567   2.411  24.745  0.00  0.00    +0.149 C 
ATOM     11  C   UNL     1      -5.809   1.559  25.116  0.00  0.00    +0.113 C 
ATOM     12  C   UNL     1      -3.958   3.639  25.590  0.00  0.00    +0.186 C 
ATOM     13  C   UNL     1      -6.108   2.786  25.965  0.00  0.00    +0.175 C 
BRANCH   3   9
ATOM      9  C   UNL     1      -4.121   0.066  24.299  0.00  0.00    +0.088 C 
BRANCH   9   6
ATOM      6  C   UNL     1      -3.661  -1.107  25.101  0.00  0.00    +0.003 C 
ATOM      7  C   UNL     1      -2.360  -1.787  24.773  0.00  0.00    +0.005 C 
ATOM      8  C   UNL     1      -3.663  -2.484  24.498  0.00  0.00    +0.005 C 
ENDBRANCH   9   6
ENDBRANCH   3   9
ENDBRANCH  14  10
TORSDOF 4
ENDMDL
MODEL 2
REMARK VINA RESULT:      -4.9     14.838     17.234
REMARK  Name = 71694218
REMARK  4 active torsions:
REMARK  status: ('A' for Active; 'I' for Inactive)
REMARK    1  A    between atoms: N_3  and  C_9
REMARK    2  A    between atoms: C_6  and  C_9
REMARK    3  A    between atoms: C_10  and  C_14
REMARK    4  A    between atoms: C_15  and  C_17
REMARK                            x       y       z     vdW  Elec       q    Type
REMARK                         _______ _______ _______ _____ _____    ______ ____
ROOT
ATOM      4  N   UNL     1      -6.496  -9.490  13.738  0.00  0.00    -0.341 N 
ATOM      5  N   UNL     1      -8.351 -10.167  12.724  0.00  0.00    -0.238 NA
ATOM     14  C   UNL     1      -7.205  -9.542  12.571  0.00  0.00    +0.127 A 
ATOM     15  C   UNL     1      -7.237 -10.122  14.697  0.00  0.00    +0.066 A 
ATOM     16  C   UNL     1      -8.377 -10.531  14.047  0.00  0.00    +0.139 A 
ATOM     23  H   UNL     1      -5.592  -9.052  13.864  0.00  0.00    +0.167 HD
ENDROOT
BRANCH  15  17
ATOM      1  F   UNL     1      -8.241 -10.559  19.395  0.00  0.00    -0.205 F 
ATOM     17  C   UNL     1      -6.808 -10.267  16.063  0.00  0.00    +0.003 A 
ATOM     18  C   UNL     1      -7.751 -10.344  17.087  0.00  0.00    +0.048 A 
ATOM     19  C   UNL     1      -5.447 -10.330  16.363  0.00  0.00    +0.010 A 
ATOM     20  C   UNL     1      -7.334 -10.484  18.411  0.00  0.00    +0.124 A 
ATOM     21  C   UNL     1      -5.029 -10.470  17.686  0.00  0.00    +0.003 A 
ATOM     22  C   UNL     1      -5.973 -10.548  18.710  0.00  0.00    +0.038 A 
ENDBRANCH  15  17
BRANCH  14  10
ATOM      2  O   UNL     1      -7.345  -8.265   9.034  0.00  0.00    -0.377 OA
ATOM      3  N   UNL     1      -5.498  -9.652  10.726  0.00  0.00    -0.288 NA
ATOM     10  C   UNL     1      -6.665  -8.927  11.288  0.00  0.00    +0.149 C 
ATOM     11  C   UNL     1      -5.102  -9.060   9.435  0.00  0.00    +0.113 C 
ATOM     12  C   UNL     1      -7.800  -8.866  10.248  0.00  0.00    +0.186 C 
ATOM     13  C   UNL     1      -6.280  -9.028   8.472  0.00  0.00    +0.175 C 
BRANCH   3   9
ATOM      9  C   UNL     1      -4.345  -9.636  11.635  0.00  0.00    +0.088 C 
BRANCH   9   6
ATOM      6  C   UNL     1      -3.130 -10.209  10.984  0.00  0.00    +0.003 C 
ATOM      7  C   UNL     1      -2.018 -10.781  11.820  0.00  0.00    +0.005 C 
ATOM      8  C   UNL     1      -1.812  -9.491  11.075  0.00  0.00    +0.005 C 
ENDBRANCH   9   6
ENDBRANCH   3   9
ENDBRANCH  14  10
TORSDOF 4
ENDMDL
MODEL 3
REMARK VINA RESULT:      -4.4     18.581     19.981
REMARK  Name = 71694218
REMARK  4 active torsions:
REMARK  status: ('A' for Active; 'I' for Inactive)
REMARK    1  A    between atoms: N_3  and  C_9
REMARK    2  A    between atoms: C_6  and  C_9
REMARK    3  A    between atoms: C_10  and  C_14
REMARK    4  A    between atoms: C_15  and  C_17
REMARK                            x       y       z     vdW  Elec       q    Type
REMARK                         _______ _______ _______ _____ _____    ______ ____
ROOT
ATOM      4  N   UNL     1      16.914  -6.056  26.074  0.00  0.00    -0.341 N 
ATOM      5  N   UNL     1      17.345  -7.888  24.895  0.00  0.00    -0.238 NA
ATOM     14  C   UNL     1      17.061  -7.414  26.088  0.00  0.00    +0.127 A 
ATOM     15  C   UNL     1      17.119  -5.634  24.790  0.00  0.00    +0.066 A 
ATOM     16  C   UNL     1      17.383  -6.783  24.081  0.00  0.00    +0.139 A 
ATOM     23  H   UNL     1      16.704  -5.474  26.874  0.00  0.00    +0.167 HD
ENDROOT
BRANCH  15  17
ATOM      1  F   UNL     1      16.338  -0.989  25.828  0.00  0.00    -0.205 F 
ATOM     17  C   UNL     1      17.045  -4.255  24.387  0.00  0.00    +0.003 A 
ATOM     18  C   UNL     1      16.721  -3.271  25.321  0.00  0.00    +0.048 A 
ATOM     19  C   UNL     1      17.297  -3.901  23.061  0.00  0.00    +0.010 A 
ATOM     20  C   UNL     1      16.649  -1.934  24.930  0.00  0.00    +0.124 A 
ATOM     21  C   UNL     1      17.226  -2.565  22.669  0.00  0.00    +0.003 A 
ATOM     22  C   UNL     1      16.902  -1.581  23.605  0.00  0.00    +0.038 A 
ENDBRANCH  15  17
BRANCH  14  10
ATOM      2  O   UNL     1      17.145 -10.473  28.278  0.00  0.00    -0.377 OA
ATOM      3  N   UNL     1      15.537  -8.126  27.960  0.00  0.00    -0.288 NA
ATOM     10  C   UNL     1      16.897  -8.216  27.372  0.00  0.00    +0.149 C 
ATOM     11  C   UNL     1      15.430  -9.008  29.136  0.00  0.00    +0.113 C 
ATOM     12  C   UNL     1      17.256  -9.688  27.090  0.00  0.00    +0.186 C 
ATOM     13  C   UNL     1      15.811 -10.437  28.775  0.00  0.00    +0.175 C 
BRANCH   3   9
ATOM      9  C   UNL     1      15.195  -6.754  28.356  0.00  0.00    +0.088 C 
BRANCH   9   6
ATOM      6  C   UNL     1      14.930  -6.662  29.823  0.00  0.00    +0.003 C 
ATOM      7  C   UNL     1      13.588  -6.204  30.325  0.00  0.00    +0.005 C 
ATOM      8  C   UNL     1      14.792  -5.319  30.484  0.00  0.00    +0.005 C 
ENDBRANCH   9   6
ENDBRANCH   3   9
ENDBRANCH  14  10
TORSDOF 4
ENDMDL
MODEL 4
REMARK VINA RESULT:      -4.3      1.771      2.656
REMARK  Name = 71694218
REMARK  4 active torsions:
REMARK  status: ('A' for Active; 'I' for Inactive)
REMARK    1  A    between atoms: N_3  and  C_9
REMARK    2  A    between atoms: C_6  and  C_9
REMARK    3  A    between atoms: C_10  and  C_14
REMARK    4  A    between atoms: C_15  and  C_17
REMARK                            x       y       z     vdW  Elec       q    Type
REMARK                         _______ _______ _______ _____ _____    ______ ____
ROOT
ATOM      4  N   UNL     1       0.709   1.540  23.855  0.00  0.00    -0.341 N 
ATOM      5  N   UNL     1      -0.962   0.125  23.485  0.00  0.00    -0.238 NA
ATOM     14  C   UNL     1      -0.644   1.351  23.839  0.00  0.00    +0.127 A 
ATOM     15  C   UNL     1       1.293   0.361  23.488  0.00  0.00    +0.066 A 
ATOM     16  C   UNL     1       0.242  -0.498  23.264  0.00  0.00    +0.139 A 
ATOM     23  H   UNL     1       1.184   2.398  24.105  0.00  0.00    +0.167 HD
ENDROOT
BRANCH  15  17
ATOM      1  F   UNL     1       5.231  -2.364  24.067  0.00  0.00    -0.205 F 
ATOM     17  C   UNL     1       2.717   0.178  23.391  0.00  0.00    +0.003 A 
ATOM     18  C   UNL     1       3.295  -1.028  23.784  0.00  0.00    +0.048 A 
ATOM     19  C   UNL     1       3.520   1.209  22.901  0.00  0.00    +0.010 A 
ATOM     20  C   UNL     1       4.676  -1.204  23.689  0.00  0.00    +0.124 A 
ATOM     21  C   UNL     1       4.900   1.034  22.807  0.00  0.00    +0.003 A 
ATOM     22  C   UNL     1       5.478  -0.174  23.200  0.00  0.00    +0.038 A 
ENDBRANCH  15  17
BRANCH  14  10
ATOM      2  O   UNL     1      -1.741   4.566  25.457  0.00  0.00    -0.377 OA
ATOM      3  N   UNL     1      -2.856   2.002  24.846  0.00  0.00    -0.288 NA
ATOM     10  C   UNL     1      -1.607   2.474  24.199  0.00  0.00    +0.149 C 
ATOM     11  C   UNL     1      -3.684   3.150  25.257  0.00  0.00    +0.113 C 
ATOM     12  C   UNL     1      -0.882   3.477  25.118  0.00  0.00    +0.186 C 
ATOM     13  C   UNL     1      -2.892   4.094  26.151  0.00  0.00    +0.175 C 
BRANCH   3   9
ATOM      9  C   UNL     1      -3.644   1.134  23.962  0.00  0.00    +0.088 C 
BRANCH   9   6
ATOM      6  C   UNL     1      -4.322   0.047  24.730  0.00  0.00    +0.003 C 
ATOM      7  C   UNL     1      -3.509  -0.992  25.452  0.00  0.00    +0.005 C 
ATOM      8  C   UNL     1      -4.291  -1.369  24.225  0.00  0.00    +0.005 C 
ENDBRANCH   9   6
ENDBRANCH   3   9
ENDBRANCH  14  10
TORSDOF 4
ENDMDL
MODEL 5
REMARK VINA RESULT:      -4.3     19.182     20.089
REMARK  Name = 71694218
REMARK  4 active torsions:
REMARK  status: ('A' for Active; 'I' for Inactive)
REMARK    1  A    between atoms: N_3  and  C_9
REMARK    2  A    between atoms: C_6  and  C_9
REMARK    3  A    between atoms: C_10  and  C_14
REMARK    4  A    between atoms: C_15  and  C_17
REMARK                            x       y       z     vdW  Elec       q    Type
REMARK                         _______ _______ _______ _____ _____    ______ ____
ROOT
ATOM      4  N   UNL     1      17.293  -4.767  26.705  0.00  0.00    -0.341 N 
ATOM      5  N   UNL     1      16.996  -6.890  26.126  0.00  0.00    -0.238 NA
ATOM     14  C   UNL     1      17.213  -6.065  27.127  0.00  0.00    +0.127 A 
ATOM     15  C   UNL     1      17.115  -4.764  25.350  0.00  0.00    +0.066 A 
ATOM     16  C   UNL     1      16.933  -6.085  25.016  0.00  0.00    +0.139 A 
ATOM     23  H   UNL     1      17.463  -3.962  27.295  0.00  0.00    +0.167 HD
ENDROOT
BRANCH  15  17
ATOM      1  F   UNL     1      16.687   0.023  24.942  0.00  0.00    -0.205 F 
ATOM     17  C   UNL     1      17.133  -3.567  24.552  0.00  0.00    +0.003 A 
ATOM     18  C   UNL     1      16.897  -2.327  25.146  0.00  0.00    +0.048 A 
ATOM     19  C   UNL     1      17.388  -3.646  23.183  0.00  0.00    +0.010 A 
ATOM     20  C   UNL     1      16.914  -1.167  24.371  0.00  0.00    +0.124 A 
ATOM     21  C   UNL     1      17.405  -2.487  22.407  0.00  0.00    +0.003 A 
ATOM     22  C   UNL     1      17.169  -1.247  23.002  0.00  0.00    +0.038 A 
ENDBRANCH  15  17
BRANCH  14  10
ATOM      2  O   UNL     1      17.076  -8.292  30.156  0.00  0.00    -0.377 OA
ATOM      3  N   UNL     1      16.618  -5.540  29.514  0.00  0.00    -0.288 NA
ATOM     10  C   UNL     1      17.367  -6.433  28.595  0.00  0.00    +0.149 C 
ATOM     11  C   UNL     1      16.733  -6.023  30.902  0.00  0.00    +0.113 C 
ATOM     12  C   UNL     1      16.918  -7.894  28.794  0.00  0.00    +0.186 C 
ATOM     13  C   UNL     1      16.281  -7.473  31.008  0.00  0.00    +0.175 C 
BRANCH   3   9
ATOM      9  C   UNL     1      17.093  -4.152  29.448  0.00  0.00    +0.088 C 
BRANCH   9   6
ATOM      6  C   UNL     1      16.387  -3.288  30.440  0.00  0.00    +0.003 C 
ATOM      7  C   UNL     1      16.617  -1.802  30.451  0.00  0.00    +0.005 C 
ATOM      8  C   UNL     1      17.150  -2.653  31.569  0.00  0.00    +0.005 C 
ENDBRANCH   9   6
ENDBRANCH   3   9
ENDBRANCH  14  10
TORSDOF 4
ENDMDL
MODEL 6
REMARK VINA RESULT:      -4.0     14.340     16.210
REMARK  Name = 71694218
REMARK  4 active torsions:
REMARK  status: ('A' for Active; 'I' for Inactive)
REMARK    1  A    between atoms: N_3  and  C_9
REMARK    2  A    between atoms: C_6  and  C_9
REMARK    3  A    between atoms: C_10  and  C_14
REMARK    4  A    between atoms: C_15  and  C_17
REMARK                            x       y       z     vdW  Elec       q    Type
REMARK                         _______ _______ _______ _____ _____    ______ ____
ROOT
ATOM      4  N   UNL     1      -7.949  -9.253  13.157  0.00  0.00    -0.341 N 
ATOM      5  N   UNL     1      -6.813 -10.514  14.590  0.00  0.00    -0.238 NA
ATOM     14  C   UNL     1      -7.863  -9.738  14.432  0.00  0.00    +0.127 A 
ATOM     15  C   UNL     1      -6.887  -9.751  12.456  0.00  0.00    +0.066 A 
ATOM     16  C   UNL     1      -6.200 -10.526  13.361  0.00  0.00    +0.139 A 
ATOM     23  H   UNL     1      -8.666  -8.631  12.806  0.00  0.00    +0.167 HD
ENDROOT
BRANCH  15  17
ATOM      1  F   UNL     1      -3.902  -8.475   8.888  0.00  0.00    -0.205 F 
ATOM     17  C   UNL     1      -6.645  -9.457  11.069  0.00  0.00    +0.003 A 
ATOM     18  C   UNL     1      -5.365  -9.101  10.642  0.00  0.00    +0.048 A 
ATOM     19  C   UNL     1      -7.691  -9.527  10.148  0.00  0.00    +0.010 A 
ATOM     20  C   UNL     1      -5.132  -8.816   9.297  0.00  0.00    +0.124 A 
ATOM     21  C   UNL     1      -7.459  -9.242   8.803  0.00  0.00    +0.003 A 
ATOM     22  C   UNL     1      -6.178  -8.887   8.378  0.00  0.00    +0.038 A 
ENDBRANCH  15  17
BRANCH  14  10
ATOM      2  O   UNL     1     -10.717  -7.810  15.948  0.00  0.00    -0.377 OA
ATOM      3  N   UNL     1      -8.313  -9.096  16.823  0.00  0.00    -0.288 NA
ATOM     10  C   UNL     1      -8.899  -9.379  15.488  0.00  0.00    +0.149 C 
ATOM     11  C   UNL     1      -9.364  -8.656  17.758  0.00  0.00    +0.113 C 
ATOM     12  C   UNL     1      -9.710  -8.164  14.998  0.00  0.00    +0.186 C 
ATOM     13  C   UNL     1     -10.123  -7.462  17.195  0.00  0.00    +0.175 C 
BRANCH   3   9
ATOM      9  C   UNL     1      -7.628 -10.266  17.386  0.00  0.00    +0.088 C 
BRANCH   9   6
ATOM      6  C   UNL     1      -6.553  -9.859  18.339  0.00  0.00    +0.003 C 
ATOM      7  C   UNL     1      -5.397 -10.781  18.617  0.00  0.00    +0.005 C 
ATOM      8  C   UNL     1      -6.433 -10.533  19.678  0.00  0.00    +0.005 C 
ENDBRANCH   9   6
ENDBRANCH   3   9
ENDBRANCH  14  10
TORSDOF 4
ENDMDL
MODEL 7
REMARK VINA RESULT:      -3.9     15.329     17.772
REMARK  Name = 71694218
REMARK  4 active torsions:
REMARK  status: ('A' for Active; 'I' for Inactive)
REMARK    1  A    between atoms: N_3  and  C_9
REMARK    2  A    between atoms: C_6  and  C_9
REMARK    3  A    between atoms: C_10  and  C_14
REMARK    4  A    between atoms: C_15  and  C_17
REMARK                            x       y       z     vdW  Elec       q    Type
REMARK                         _______ _______ _______ _____ _____    ______ ____
ROOT
ATOM      4  N   UNL     1      -6.090 -10.456  13.572  0.00  0.00    -0.341 N 
ATOM      5  N   UNL     1      -7.721 -10.756  12.095  0.00  0.00    -0.238 NA
ATOM     14  C   UNL     1      -6.430 -10.563  12.253  0.00  0.00    +0.127 A 
ATOM     15  C   UNL     1      -7.236 -10.591  14.304  0.00  0.00    +0.066 A 
ATOM     16  C   UNL     1      -8.229 -10.775  13.371  0.00  0.00    +0.139 A 
ATOM     23  H   UNL     1      -5.158 -10.296  13.933  0.00  0.00    +0.167 HD
ENDROOT
BRANCH  15  17
ATOM      1  F   UNL     1      -4.970 -10.381  18.556  0.00  0.00    -0.205 F 
ATOM     17  C   UNL     1      -7.270 -10.534  15.741  0.00  0.00    +0.003 A 
ATOM     18  C   UNL     1      -6.080 -10.484  16.466  0.00  0.00    +0.048 A 
ATOM     19  C   UNL     1      -8.495 -10.530  16.410  0.00  0.00    +0.010 A 
ATOM     20  C   UNL     1      -6.114 -10.429  17.860  0.00  0.00    +0.124 A 
ATOM     21  C   UNL     1      -8.529 -10.476  17.803  0.00  0.00    +0.003 A 
ATOM     22  C   UNL     1      -7.338 -10.425  18.528  0.00  0.00    +0.038 A 
ENDBRANCH  15  17
BRANCH  14  10
ATOM      2  O   UNL     1      -2.981 -10.165  10.802  0.00  0.00    -0.377 OA
ATOM      3  N   UNL     1      -5.661  -9.388  10.164  0.00  0.00    -0.288 NA
ATOM     10  C   UNL     1      -5.382 -10.459  11.153  0.00  0.00    +0.149 C 
ATOM     11  C   UNL     1      -4.553  -9.284   9.198  0.00  0.00    +0.113 C 
ATOM     12  C   UNL     1      -4.001 -10.237  11.799  0.00  0.00    +0.186 C 
ATOM     13  C   UNL     1      -3.227  -9.077   9.917  0.00  0.00    +0.175 C 
BRANCH   3   9
ATOM      9  C   UNL     1      -6.914  -9.620   9.436  0.00  0.00    +0.088 C 
BRANCH   9   6
ATOM      6  C   UNL     1      -7.720  -8.367   9.328  0.00  0.00    +0.003 C 
ATOM      7  C   UNL     1      -9.214  -8.408   9.500  0.00  0.00    +0.005 C 
ATOM      8  C   UNL     1      -8.620  -8.145   8.144  0.00  0.00    +0.005 C 
ENDBRANCH   9   6
ENDBRANCH   3   9
ENDBRANCH  14  10
TORSDOF 4
ENDMDL
MODEL 8
REMARK VINA RESULT:      -3.8     15.233     17.268
REMARK  Name = 71694218
REMARK  4 active torsions:
REMARK  status: ('A' for Active; 'I' for Inactive)
REMARK    1  A    between atoms: N_3  and  C_9
REMARK    2  A    between atoms: C_6  and  C_9
REMARK    3  A    between atoms: C_10  and  C_14
REMARK    4  A    between atoms: C_15  and  C_17
REMARK                            x       y       z     vdW  Elec       q    Type
REMARK                         _______ _______ _______ _____ _____    ______ ____
ROOT
ATOM      4  N   UNL     1      -6.617  -9.748  12.553  0.00  0.00    -0.341 N 
ATOM      5  N   UNL     1      -4.631 -10.730  12.397  0.00  0.00    -0.238 NA
ATOM     14  C   UNL     1      -5.629 -10.435  13.201  0.00  0.00    +0.127 A 
ATOM     15  C   UNL     1      -6.225  -9.594  11.253  0.00  0.00    +0.066 A 
ATOM     16  C   UNL     1      -4.997 -10.209  11.181  0.00  0.00    +0.139 A 
ATOM     23  H   UNL     1      -7.474  -9.408  12.970  0.00  0.00    +0.167 HD
ENDROOT
BRANCH  15  17
ATOM      1  F   UNL     1     -10.503  -8.541   9.290  0.00  0.00    -0.205 F 
ATOM     17  C   UNL     1      -7.016  -8.916  10.261  0.00  0.00    +0.003 A 
ATOM     18  C   UNL     1      -8.404  -9.060  10.256  0.00  0.00    +0.048 A 
ATOM     19  C   UNL     1      -6.396  -8.112   9.304  0.00  0.00    +0.010 A 
ATOM     20  C   UNL     1      -9.171  -8.402   9.295  0.00  0.00    +0.124 A 
ATOM     21  C   UNL     1      -7.162  -7.454   8.342  0.00  0.00    +0.003 A 
ATOM     22  C   UNL     1      -8.550  -7.599   8.338  0.00  0.00    +0.038 A 
ENDBRANCH  15  17
BRANCH  14  10
ATOM      2  O   UNL     1      -7.262 -10.607  16.587  0.00  0.00    -0.377 OA
ATOM      3  N   UNL     1      -4.638 -10.234  15.505  0.00  0.00    -0.288 NA
ATOM     10  C   UNL     1      -5.743 -10.781  14.679  0.00  0.00    +0.149 C 
ATOM     11  C   UNL     1      -4.875 -10.522  16.931  0.00  0.00    +0.113 C 
ATOM     12  C   UNL     1      -7.099 -10.275  15.207  0.00  0.00    +0.186 C 
ATOM     13  C   UNL     1      -6.237 -10.000  17.368  0.00  0.00    +0.175 C 
BRANCH   3   9
ATOM      9  C   UNL     1      -3.332 -10.780  15.115  0.00  0.00    +0.088 C 
BRANCH   9   6
ATOM      6  C   UNL     1      -2.213  -9.991  15.711  0.00  0.00    +0.003 C 
ATOM      7  C   UNL     1      -1.029  -9.600  14.869  0.00  0.00    +0.005 C 
ATOM      8  C   UNL     1      -0.875 -10.635  15.949  0.00  0.00    +0.005 C 
ENDBRANCH   9   6
ENDBRANCH   3   9
ENDBRANCH  14  10
TORSDOF 4
ENDMDL
MODEL 9
REMARK VINA RESULT:      -3.7      3.416      6.462
REMARK  Name = 71694218
REMARK  4 active torsions:
REMARK  status: ('A' for Active; 'I' for Inactive)
REMARK    1  A    between atoms: N_3  and  C_9
REMARK    2  A    between atoms: C_6  and  C_9
REMARK    3  A    between atoms: C_10  and  C_14
REMARK    4  A    between atoms: C_15  and  C_17
REMARK                            x       y       z     vdW  Elec       q    Type
REMARK                         _______ _______ _______ _____ _____    ______ ____
ROOT
ATOM      4  N   UNL     1      -1.546   1.717  24.679  0.00  0.00    -0.341 N 
ATOM      5  N   UNL     1      -0.091   3.290  25.261  0.00  0.00    -0.238 NA
ATOM     14  C   UNL     1      -0.232   2.081  24.764  0.00  0.00    +0.127 A 
ATOM     15  C   UNL     1      -2.292   2.760  25.152  0.00  0.00    +0.066 A 
ATOM     16  C   UNL     1      -1.372   3.719  25.505  0.00  0.00    +0.139 A 
ATOM     23  H   UNL     1      -1.895   0.831  24.338  0.00  0.00    +0.167 HD
ENDROOT
BRANCH  15  17
ATOM      1  F   UNL     1      -6.504   5.041  25.723  0.00  0.00    -0.205 F 
ATOM     17  C   UNL     1      -3.729   2.742  25.217  0.00  0.00    +0.003 A 
ATOM     18  C   UNL     1      -4.434   3.924  25.443  0.00  0.00    +0.048 A 
ATOM     19  C   UNL     1      -4.419   1.540  25.051  0.00  0.00    +0.010 A 
ATOM     20  C   UNL     1      -5.828   3.905  25.505  0.00  0.00    +0.124 A 
ATOM     21  C   UNL     1      -5.812   1.520  25.114  0.00  0.00    +0.003 A 
ATOM     22  C   UNL     1      -6.516   2.703  25.340  0.00  0.00    +0.038 A 
ENDBRANCH  15  17
BRANCH  14  10
ATOM      2  O   UNL     1       2.851   1.045  22.872  0.00  0.00    -0.377 OA
ATOM      3  N   UNL     1       0.387  -0.130  23.734  0.00  0.00    -0.288 NA
ATOM     10  C   UNL     1       0.881   1.143  24.315  0.00  0.00    +0.149 C 
ATOM     11  C   UNL     1       1.516  -0.933  23.231  0.00  0.00    +0.113 C 
ATOM     12  C   UNL     1       1.773   1.880  23.297  0.00  0.00    +0.186 C 
ATOM     13  C   UNL     1       2.351  -0.131  22.242  0.00  0.00    +0.175 C 
BRANCH   3   9
ATOM      9  C   UNL     1      -0.372  -0.926  24.707  0.00  0.00    +0.088 C 
BRANCH   9   6
ATOM      6  C   UNL     1      -1.629  -1.463  24.106  0.00  0.00    +0.003 C 
ATOM      7  C   UNL     1      -2.854  -1.656  24.957  0.00  0.00    +0.005 C 
ATOM      8  C   UNL     1      -2.098  -2.850  24.446  0.00  0.00    +0.005 C 
ENDBRANCH   9   6
ENDBRANCH   3   9
ENDBRANCH  14  10
TORSDOF 4
ENDMDL
MODEL 10
REMARK VINA RESULT:      -3.4     16.088     18.296
REMARK  Name = 71694218
REMARK  4 active torsions:
REMARK  status: ('A' for Active; 'I' for Inactive)
REMARK    1  A    between atoms: N_3  and  C_9
REMARK    2  A    between atoms: C_6  and  C_9
REMARK    3  A    between atoms: C_10  and  C_14
REMARK    4  A    between atoms: C_15  and  C_17
REMARK                            x       y       z     vdW  Elec       q    Type
REMARK                         _______ _______ _______ _____ _____    ______ ____
ROOT
ATOM      4  N   UNL     1      -5.467  -9.525  11.219  0.00  0.00    -0.341 N 
ATOM      5  N   UNL     1      -3.879 -10.569  10.071  0.00  0.00    -0.238 NA
ATOM     14  C   UNL     1      -4.325 -10.273  11.272  0.00  0.00    +0.127 A 
ATOM     15  C   UNL     1      -5.771  -9.332   9.901  0.00  0.00    +0.066 A 
ATOM     16  C   UNL     1      -4.776  -9.986   9.212  0.00  0.00    +0.139 A 
ATOM     23  H   UNL     1      -5.983  -9.174  12.016  0.00  0.00    +0.167 HD
ENDROOT
BRANCH  15  17
ATOM      1  F   UNL     1     -10.541  -8.627   9.772  0.00  0.00    -0.205 F 
ATOM     17  C   UNL     1      -6.916  -8.586   9.452  0.00  0.00    +0.003 A 
ATOM     18  C   UNL     1      -8.199  -8.976   9.837  0.00  0.00    +0.048 A 
ATOM     19  C   UNL     1      -6.744  -7.470   8.633  0.00  0.00    +0.010 A 
ATOM     20  C   UNL     1      -9.309  -8.251   9.402  0.00  0.00    +0.124 A 
ATOM     21  C   UNL     1      -7.853  -6.745   8.197  0.00  0.00    +0.003 A 
ATOM     22  C   UNL     1      -9.136  -7.136   8.583  0.00  0.00    +0.038 A 
ENDBRANCH  15  17
BRANCH  14  10
ATOM      2  O   UNL     1      -4.176 -10.781  14.997  0.00  0.00    -0.377 OA
ATOM      3  N   UNL     1      -2.411 -10.000  12.883  0.00  0.00    -0.288 NA
ATOM     10  C   UNL     1      -3.702 -10.677  12.601  0.00  0.00    +0.149 C 
ATOM     11  C   UNL     1      -1.928 -10.363  14.228  0.00  0.00    +0.113 C 
ATOM     12  C   UNL     1      -4.709 -10.388  13.732  0.00  0.00    +0.186 C 
ATOM     13  C   UNL     1      -2.983 -10.056  15.281  0.00  0.00    +0.175 C 
BRANCH   3   9
ATOM      9  C   UNL     1      -1.380 -10.340  11.894  0.00  0.00    +0.088 C 
BRANCH   9   6
ATOM      6  C   UNL     1      -0.906  -9.127  11.164  0.00  0.00    +0.003 C 
ATOM      7  C   UNL     1       0.541  -8.991  10.779  0.00  0.00    +0.005 C 
ATOM      8  C   UNL     1      -0.035  -8.118  11.859  0.00  0.00    +0.005 C 
ENDBRANCH   9   6
ENDBRANCH   3   9
ENDBRANCH  14  10
TORSDOF 4
ENDMDL
