MODEL 1
REMARK VINA RESULT:      -4.1      0.000      0.000
REMARK  Name = 45783445
REMARK  11 active torsions:
REMARK  status: ('A' for Active; 'I' for Inactive)
REMARK    1  A    between atoms: O_2  and  C_20
REMARK    2  A    between atoms: O_2  and  C_23
REMARK    3  A    between atoms: O_3  and  C_24
REMARK    4  A    between atoms: O_3  and  C_25
REMARK    5  A    between atoms: N_4  and  C_12
REMARK    6  A    between atoms: C_8  and  C_14
REMARK    7  A    between atoms: C_12  and  C_13
REMARK    8  A    between atoms: C_13  and  C_15
REMARK    9  A    between atoms: C_13  and  C_16
REMARK   10  A    between atoms: C_17  and  C_18
REMARK   11  A    between atoms: C_23  and  C_24
REMARK                            x       y       z     vdW  Elec       q    Type
REMARK                         _______ _______ _______ _____ _____    ______ ____
ROOT
ATOM      1  O   UNL     1      -1.941   2.555  25.345  0.00  0.00    -0.336 OA
ATOM      5  N   UNL     1      -1.948   1.368  23.446  0.00  0.00    -0.189 NA
ATOM      6  N   UNL     1      -0.605   2.223  25.088  0.00  0.00    -0.054 NA
ATOM     14  C   UNL     1      -2.665   2.013  24.331  0.00  0.00    +0.245 A 
ATOM     17  C   UNL     1      -0.691   1.525  23.952  0.00  0.00    +0.221 A 
ENDROOT
BRANCH  17  18
ATOM      7  N   UNL     1       0.218  -0.077  22.479  0.00  0.00    -0.252 NA
ATOM     18  C   UNL     1       0.460   0.969  23.299  0.00  0.00    +0.115 A 
ATOM     19  C   UNL     1       1.717   1.505  23.526  0.00  0.00    +0.077 A 
ATOM     20  C   UNL     1       2.798   0.927  22.867  0.00  0.00    +0.124 A 
ATOM     21  C   UNL     1       1.294  -0.612  21.856  0.00  0.00    +0.115 A 
ATOM     22  C   UNL     1       2.590  -0.151  22.015  0.00  0.00    +0.065 A 
BRANCH  20   2
ATOM      2  O   UNL     1       4.053   1.417  23.056  0.00  0.00    -0.490 OA
BRANCH   2  23
ATOM     23  C   UNL     1       5.133   0.487  22.973  0.00  0.00    +0.257 C 
BRANCH  23  24
ATOM     24  C   UNL     1       5.768   0.342  24.343  0.00  0.00    +0.200 C 
BRANCH  24   3
ATOM      3  O   UNL     1       5.702  -1.022  24.744  0.00  0.00    -0.380 OA
ATOM     25  C   UNL     1       4.795  -1.758  23.935  0.00  0.00    +0.194 C 
ENDBRANCH  24   3
ENDBRANCH  23  24
ENDBRANCH   2  23
ENDBRANCH  20   2
ENDBRANCH  17  18
BRANCH  14   8
ATOM      4  N   UNL     1      -4.851   1.270  25.261  0.00  0.00    -0.291 NA
ATOM      8  C   UNL     1      -4.163   2.233  24.378  0.00  0.00    +0.146 C 
ATOM      9  C   UNL     1      -4.543   3.617  24.935  0.00  0.00    +0.030 C 
ATOM     10  C   UNL     1      -6.038   1.955  25.773  0.00  0.00    +0.085 C 
ATOM     11  C   UNL     1      -5.494   3.333  26.090  0.00  0.00    +0.017 C 
BRANCH   4  12
ATOM     12  C   UNL     1      -5.184   0.017  24.596  0.00  0.00    +0.088 C 
BRANCH  12  13
ATOM     13  C   UNL     1      -3.983  -0.940  24.512  0.00  0.00    -0.003 C 
ATOM     15  C   UNL     1      -3.445  -1.219  25.918  0.00  0.00    +0.008 C 
ATOM     16  C   UNL     1      -4.333  -2.263  23.824  0.00  0.00    +0.008 C 
ENDBRANCH  12  13
ENDBRANCH   4  12
ENDBRANCH  14   8
TORSDOF 8
ENDMDL
MODEL 2
REMARK VINA RESULT:      -3.4      1.629      2.868
REMARK  Name = 45783445
REMARK  11 active torsions:
REMARK  status: ('A' for Active; 'I' for Inactive)
REMARK    1  A    between atoms: O_2  and  C_20
REMARK    2  A    between atoms: O_2  and  C_23
REMARK    3  A    between atoms: O_3  and  C_24
REMARK    4  A    between atoms: O_3  and  C_25
REMARK    5  A    between atoms: N_4  and  C_12
REMARK    6  A    between atoms: C_8  and  C_14
REMARK    7  A    between atoms: C_12  and  C_13
REMARK    8  A    between atoms: C_13  and  C_15
REMARK    9  A    between atoms: C_13  and  C_16
REMARK   10  A    between atoms: C_17  and  C_18
REMARK   11  A    between atoms: C_23  and  C_24
REMARK                            x       y       z     vdW  Elec       q    Type
REMARK                         _______ _______ _______ _____ _____    ______ ____
ROOT
ATOM      1  O   UNL     1      -2.304  -0.531  25.558  0.00  0.00    -0.336 OA
ATOM      5  N   UNL     1      -1.613   1.129  24.224  0.00  0.00    -0.189 NA
ATOM      6  N   UNL     1      -1.156  -1.004  24.910  0.00  0.00    -0.054 NA
ATOM     14  C   UNL     1      -2.503   0.731  25.096  0.00  0.00    +0.245 A 
ATOM     17  C   UNL     1      -0.807   0.032  24.141  0.00  0.00    +0.221 A 
ENDROOT
BRANCH  17  18
ATOM      7  N   UNL     1       0.204  -0.730  22.151  0.00  0.00    -0.252 NA
ATOM     18  C   UNL     1       0.340   0.001  23.280  0.00  0.00    +0.115 A 
ATOM     19  C   UNL     1       1.491   0.692  23.624  0.00  0.00    +0.077 A 
ATOM     20  C   UNL     1       2.573   0.628  22.753  0.00  0.00    +0.124 A 
ATOM     21  C   UNL     1       1.278  -0.769  21.329  0.00  0.00    +0.115 A 
ATOM     22  C   UNL     1       2.472  -0.114  21.581  0.00  0.00    +0.065 A 
BRANCH  20   2
ATOM      2  O   UNL     1       3.725   1.289  23.045  0.00  0.00    -0.490 OA
BRANCH   2  23
ATOM     23  C   UNL     1       4.945   0.561  22.910  0.00  0.00    +0.257 C 
BRANCH  23  24
ATOM     24  C   UNL     1       5.608   0.450  24.270  0.00  0.00    +0.200 C 
BRANCH  24   3
ATOM      3  O   UNL     1       5.636  -0.917  24.663  0.00  0.00    -0.380 OA
ATOM     25  C   UNL     1       4.752  -1.703  23.876  0.00  0.00    +0.194 C 
ENDBRANCH  24   3
ENDBRANCH  23  24
ENDBRANCH   2  23
ENDBRANCH  20   2
ENDBRANCH  17  18
BRANCH  14   8
ATOM      4  N   UNL     1      -3.822   2.842  25.113  0.00  0.00    -0.291 NA
ATOM      8  C   UNL     1      -3.702   1.472  25.652  0.00  0.00    +0.146 C 
ATOM      9  C   UNL     1      -5.037   0.793  25.297  0.00  0.00    +0.030 C 
ATOM     10  C   UNL     1      -5.249   3.165  25.120  0.00  0.00    +0.085 C 
ATOM     11  C   UNL     1      -5.865   1.875  24.617  0.00  0.00    +0.017 C 
BRANCH   4  12
ATOM     12  C   UNL     1      -3.034   3.821  25.851  0.00  0.00    +0.088 C 
BRANCH  12  13
ATOM     13  C   UNL     1      -1.673   4.098  25.190  0.00  0.00    -0.003 C 
ATOM     15  C   UNL     1      -1.464   5.608  25.052  0.00  0.00    +0.008 C 
ATOM     16  C   UNL     1      -0.506   3.487  25.972  0.00  0.00    +0.008 C 
ENDBRANCH  12  13
ENDBRANCH   4  12
ENDBRANCH  14   8
TORSDOF 8
ENDMDL
MODEL 3
REMARK VINA RESULT:      -3.1     15.209     17.075
REMARK  Name = 45783445
REMARK  11 active torsions:
REMARK  status: ('A' for Active; 'I' for Inactive)
REMARK    1  A    between atoms: O_2  and  C_20
REMARK    2  A    between atoms: O_2  and  C_23
REMARK    3  A    between atoms: O_3  and  C_24
REMARK    4  A    between atoms: O_3  and  C_25
REMARK    5  A    between atoms: N_4  and  C_12
REMARK    6  A    between atoms: C_8  and  C_14
REMARK    7  A    between atoms: C_12  and  C_13
REMARK    8  A    between atoms: C_13  and  C_15
REMARK    9  A    between atoms: C_13  and  C_16
REMARK   10  A    between atoms: C_17  and  C_18
REMARK   11  A    between atoms: C_23  and  C_24
REMARK                            x       y       z     vdW  Elec       q    Type
REMARK                         _______ _______ _______ _____ _____    ______ ____
ROOT
ATOM      1  O   UNL     1      -6.364  -8.281   9.402  0.00  0.00    -0.336 OA
ATOM      5  N   UNL     1      -6.338  -9.976  10.865  0.00  0.00    -0.189 NA
ATOM      6  N   UNL     1      -5.065  -8.325   9.924  0.00  0.00    -0.054 NA
ATOM     14  C   UNL     1      -7.047  -9.286  10.009  0.00  0.00    +0.245 A 
ATOM     17  C   UNL     1      -5.128  -9.351  10.778  0.00  0.00    +0.221 A 
ENDROOT
BRANCH  17  18
ATOM      7  N   UNL     1      -4.299 -10.357  12.744  0.00  0.00    -0.252 NA
ATOM     18  C   UNL     1      -4.003  -9.774  11.561  0.00  0.00    +0.115 A 
ATOM     19  C   UNL     1      -2.714  -9.576  11.093  0.00  0.00    +0.077 A 
ATOM     20  C   UNL     1      -1.659 -10.005  11.892  0.00  0.00    +0.124 A 
ATOM     21  C   UNL     1      -3.247 -10.760  13.493  0.00  0.00    +0.115 A 
ATOM     22  C   UNL     1      -1.923 -10.609  13.117  0.00  0.00    +0.065 A 
BRANCH  20   2
ATOM      2  O   UNL     1      -0.375  -9.834  11.478  0.00  0.00    -0.490 OA
BRANCH   2  23
ATOM     23  C   UNL     1       0.055  -8.496  11.225  0.00  0.00    +0.257 C 
BRANCH  23  24
ATOM     24  C   UNL     1       0.335  -7.808  12.546  0.00  0.00    +0.200 C 
BRANCH  24   3
ATOM      3  O   UNL     1       1.068  -6.613  12.301  0.00  0.00    -0.380 OA
ATOM     25  C   UNL     1       2.409  -6.894  11.926  0.00  0.00    +0.194 C 
ENDBRANCH  24   3
ENDBRANCH  23  24
ENDBRANCH   2  23
ENDBRANCH  20   2
ENDBRANCH  17  18
BRANCH  14   8
ATOM      4  N   UNL     1      -9.417  -9.378  10.765  0.00  0.00    -0.291 NA
ATOM      8  C   UNL     1      -8.499  -9.452   9.610  0.00  0.00    +0.146 C 
ATOM      9  C   UNL     1      -8.983  -8.347   8.654  0.00  0.00    +0.030 C 
ATOM     10  C   UNL     1     -10.683  -8.851  10.253  0.00  0.00    +0.085 C 
ATOM     11  C   UNL     1     -10.211  -7.749   9.327  0.00  0.00    +0.017 C 
BRANCH   4  12
ATOM     12  C   UNL     1      -9.590 -10.656  11.445  0.00  0.00    +0.088 C 
BRANCH  12  13
ATOM     13  C   UNL     1      -9.415 -10.538  12.969  0.00  0.00    -0.003 C 
ATOM     15  C   UNL     1      -8.343  -9.493  13.286  0.00  0.00    +0.008 C 
ATOM     16  C   UNL     1     -10.720 -10.169  13.682  0.00  0.00    +0.008 C 
ENDBRANCH  12  13
ENDBRANCH   4  12
ENDBRANCH  14   8
TORSDOF 8
ENDMDL
MODEL 4
REMARK VINA RESULT:      -3.0     15.444     17.609
REMARK  Name = 45783445
REMARK  11 active torsions:
REMARK  status: ('A' for Active; 'I' for Inactive)
REMARK    1  A    between atoms: O_2  and  C_20
REMARK    2  A    between atoms: O_2  and  C_23
REMARK    3  A    between atoms: O_3  and  C_24
REMARK    4  A    between atoms: O_3  and  C_25
REMARK    5  A    between atoms: N_4  and  C_12
REMARK    6  A    between atoms: C_8  and  C_14
REMARK    7  A    between atoms: C_12  and  C_13
REMARK    8  A    between atoms: C_13  and  C_15
REMARK    9  A    between atoms: C_13  and  C_16
REMARK   10  A    between atoms: C_17  and  C_18
REMARK   11  A    between atoms: C_23  and  C_24
REMARK                            x       y       z     vdW  Elec       q    Type
REMARK                         _______ _______ _______ _____ _____    ______ ____
ROOT
ATOM      1  O   UNL     1      -6.280  -7.077   9.422  0.00  0.00    -0.336 OA
ATOM      5  N   UNL     1      -6.505  -9.194  10.116  0.00  0.00    -0.189 NA
ATOM      6  N   UNL     1      -5.130  -7.367  10.166  0.00  0.00    -0.054 NA
ATOM     14  C   UNL     1      -7.036  -8.205   9.443  0.00  0.00    +0.245 A 
ATOM     17  C   UNL     1      -5.335  -8.633  10.541  0.00  0.00    +0.221 A 
ENDROOT
BRANCH  17  18
ATOM      7  N   UNL     1      -3.227  -9.672  10.735  0.00  0.00    -0.252 NA
ATOM     18  C   UNL     1      -4.395  -9.364  11.340  0.00  0.00    +0.115 A 
ATOM     19  C   UNL     1      -4.708  -9.710  12.645  0.00  0.00    +0.077 A 
ATOM     20  C   UNL     1      -3.760 -10.418  13.375  0.00  0.00    +0.124 A 
ATOM     21  C   UNL     1      -2.330 -10.362  11.476  0.00  0.00    +0.115 A 
ATOM     22  C   UNL     1      -2.546 -10.754  12.787  0.00  0.00    +0.065 A 
BRANCH  20   2
ATOM      2  O   UNL     1      -4.019 -10.781  14.661  0.00  0.00    -0.490 OA
BRANCH   2  23
ATOM     23  C   UNL     1      -4.864  -9.919  15.422  0.00  0.00    +0.257 C 
BRANCH  23  24
ATOM     24  C   UNL     1      -5.685 -10.755  16.386  0.00  0.00    +0.200 C 
BRANCH  24   3
ATOM      3  O   UNL     1      -7.061 -10.429  16.228  0.00  0.00    -0.380 OA
ATOM     25  C   UNL     1      -7.456  -9.396  17.120  0.00  0.00    +0.194 C 
ENDBRANCH  24   3
ENDBRANCH  23  24
ENDBRANCH   2  23
ENDBRANCH  20   2
ENDBRANCH  17  18
BRANCH  14   8
ATOM      4  N   UNL     1      -9.509  -8.456   9.564  0.00  0.00    -0.291 NA
ATOM      8  C   UNL     1      -8.353  -8.149   8.697  0.00  0.00    +0.146 C 
ATOM      9  C   UNL     1      -8.653  -6.752   8.124  0.00  0.00    +0.030 C 
ATOM     10  C   UNL     1     -10.647  -7.721   9.009  0.00  0.00    +0.085 C 
ATOM     11  C   UNL     1     -10.023  -6.382   8.675  0.00  0.00    +0.017 C 
BRANCH   4  12
ATOM     12  C   UNL     1      -9.780  -9.883   9.678  0.00  0.00    +0.088 C 
BRANCH  12  13
ATOM     13  C   UNL     1      -9.867 -10.348  11.142  0.00  0.00    -0.003 C 
ATOM     15  C   UNL     1      -8.478 -10.764  11.635  0.00  0.00    +0.008 C 
ATOM     16  C   UNL     1     -10.440  -9.271  12.067  0.00  0.00    +0.008 C 
ENDBRANCH  12  13
ENDBRANCH   4  12
ENDBRANCH  14   8
TORSDOF 8
ENDMDL
MODEL 5
REMARK VINA RESULT:      -2.7     14.337     17.755
REMARK  Name = 45783445
REMARK  11 active torsions:
REMARK  status: ('A' for Active; 'I' for Inactive)
REMARK    1  A    between atoms: O_2  and  C_20
REMARK    2  A    between atoms: O_2  and  C_23
REMARK    3  A    between atoms: O_3  and  C_24
REMARK    4  A    between atoms: O_3  and  C_25
REMARK    5  A    between atoms: N_4  and  C_12
REMARK    6  A    between atoms: C_8  and  C_14
REMARK    7  A    between atoms: C_12  and  C_13
REMARK    8  A    between atoms: C_13  and  C_15
REMARK    9  A    between atoms: C_13  and  C_16
REMARK   10  A    between atoms: C_17  and  C_18
REMARK   11  A    between atoms: C_23  and  C_24
REMARK                            x       y       z     vdW  Elec       q    Type
REMARK                         _______ _______ _______ _____ _____    ______ ____
ROOT
ATOM      1  O   UNL     1      -3.898  -9.383  11.560  0.00  0.00    -0.336 OA
ATOM      5  N   UNL     1      -5.469 -10.346  12.834  0.00  0.00    -0.189 NA
ATOM      6  N   UNL     1      -5.129  -9.034  10.992  0.00  0.00    -0.054 NA
ATOM     14  C   UNL     1      -4.189 -10.156  12.639  0.00  0.00    +0.245 A 
ATOM     17  C   UNL     1      -6.006  -9.638  11.799  0.00  0.00    +0.221 A 
ENDROOT
BRANCH  17  18
ATOM      7  N   UNL     1      -7.824  -9.351  10.323  0.00  0.00    -0.252 NA
ATOM     18  C   UNL     1      -7.424  -9.555  11.598  0.00  0.00    +0.115 A 
ATOM     19  C   UNL     1      -8.290  -9.682  12.672  0.00  0.00    +0.077 A 
ATOM     20  C   UNL     1      -9.656  -9.594  12.421  0.00  0.00    +0.124 A 
ATOM     21  C   UNL     1      -9.158  -9.271  10.118  0.00  0.00    +0.115 A 
ATOM     22  C   UNL     1     -10.106  -9.384  11.122  0.00  0.00    +0.065 A 
BRANCH  20   2
ATOM      2  O   UNL     1     -10.547  -9.712  13.441  0.00  0.00    -0.490 OA
BRANCH   2  23
ATOM     23  C   UNL     1     -10.347  -8.875  14.580  0.00  0.00    +0.257 C 
BRANCH  23  24
ATOM     24  C   UNL     1      -9.821  -9.716  15.727  0.00  0.00    +0.200 C 
BRANCH  24   3
ATOM      3  O   UNL     1      -9.071  -8.886  16.606  0.00  0.00    -0.380 OA
ATOM     25  C   UNL     1      -9.917  -8.175  17.498  0.00  0.00    +0.194 C 
ENDBRANCH  24   3
ENDBRANCH  23  24
ENDBRANCH   2  23
ENDBRANCH  20   2
ENDBRANCH  17  18
BRANCH  14   8
ATOM      4  N   UNL     1      -1.835  -9.778  13.355  0.00  0.00    -0.291 NA
ATOM      8  C   UNL     1      -3.009 -10.671  13.438  0.00  0.00    +0.146 C 
ATOM      9  C   UNL     1      -3.313 -10.780  14.943  0.00  0.00    +0.030 C 
ATOM     10  C   UNL     1      -1.101  -9.944  14.611  0.00  0.00    +0.085 C 
ATOM     11  C   UNL     1      -2.223  -9.968  15.629  0.00  0.00    +0.017 C 
BRANCH   4  12
ATOM     12  C   UNL     1      -0.997 -10.037  12.192  0.00  0.00    +0.088 C 
BRANCH  12  13
ATOM     13  C   UNL     1      -0.466  -8.743  11.551  0.00  0.00    -0.003 C 
ATOM     15  C   UNL     1      -0.121  -7.729  12.646  0.00  0.00    +0.008 C 
ATOM     16  C   UNL     1       0.762  -8.985  10.669  0.00  0.00    +0.008 C 
ENDBRANCH  12  13
ENDBRANCH   4  12
ENDBRANCH  14   8
TORSDOF 8
ENDMDL
MODEL 6
REMARK VINA RESULT:      -0.4      1.047      2.588
REMARK  Name = 45783445
REMARK  11 active torsions:
REMARK  status: ('A' for Active; 'I' for Inactive)
REMARK    1  A    between atoms: O_2  and  C_20
REMARK    2  A    between atoms: O_2  and  C_23
REMARK    3  A    between atoms: O_3  and  C_24
REMARK    4  A    between atoms: O_3  and  C_25
REMARK    5  A    between atoms: N_4  and  C_12
REMARK    6  A    between atoms: C_8  and  C_14
REMARK    7  A    between atoms: C_12  and  C_13
REMARK    8  A    between atoms: C_13  and  C_15
REMARK    9  A    between atoms: C_13  and  C_16
REMARK   10  A    between atoms: C_17  and  C_18
REMARK   11  A    between atoms: C_23  and  C_24
REMARK                            x       y       z     vdW  Elec       q    Type
REMARK                         _______ _______ _______ _____ _____    ______ ____
ROOT
ATOM      1  O   UNL     1      -1.102   1.806  25.398  0.00  0.00    -0.336 OA
ATOM      5  N   UNL     1      -0.831   0.112  23.959  0.00  0.00    -0.189 NA
ATOM      6  N   UNL     1       0.182   1.953  24.861  0.00  0.00    -0.054 NA
ATOM     14  C   UNL     1      -1.629   0.699  24.814  0.00  0.00    +0.245 A 
ATOM     17  C   UNL     1       0.268   0.918  24.020  0.00  0.00    +0.221 A 
ENDROOT
BRANCH  17  18
ATOM      7  N   UNL     1       1.228  -0.010  22.076  0.00  0.00    -0.252 NA
ATOM     18  C   UNL     1       1.438   0.660  23.231  0.00  0.00    +0.115 A 
ATOM     19  C   UNL     1       2.682   1.089  23.664  0.00  0.00    +0.077 A 
ATOM     20  C   UNL     1       3.782   0.813  22.860  0.00  0.00    +0.124 A 
ATOM     21  C   UNL     1       2.322  -0.261  21.320  0.00  0.00    +0.115 A 
ATOM     22  C   UNL     1       3.607   0.125  21.664  0.00  0.00    +0.065 A 
BRANCH  20   2
ATOM      2  O   UNL     1       5.025   1.213  23.241  0.00  0.00    -0.490 OA
BRANCH   2  23
ATOM     23  C   UNL     1       6.099   0.299  23.020  0.00  0.00    +0.257 C 
BRANCH  23  24
ATOM     24  C   UNL     1       6.225  -0.617  24.222  0.00  0.00    +0.200 C 
BRANCH  24   3
ATOM      3  O   UNL     1       4.934  -1.105  24.571  0.00  0.00    -0.380 OA
ATOM     25  C   UNL     1       4.625  -2.302  23.870  0.00  0.00    +0.194 C 
ENDBRANCH  24   3
ENDBRANCH  23  24
ENDBRANCH   2  23
ENDBRANCH  20   2
ENDBRANCH  17  18
BRANCH  14   8
ATOM      4  N   UNL     1      -4.030   0.566  24.171  0.00  0.00    -0.291 NA
ATOM      8  C   UNL     1      -3.035   0.318  25.233  0.00  0.00    +0.146 C 
ATOM      9  C   UNL     1      -3.172  -1.181  25.557  0.00  0.00    +0.030 C 
ATOM     10  C   UNL     1      -5.096  -0.418  24.366  0.00  0.00    +0.085 C 
ATOM     11  C   UNL     1      -4.309  -1.675  24.673  0.00  0.00    +0.017 C 
BRANCH   4  12
ATOM     12  C   UNL     1      -4.538   1.932  24.166  0.00  0.00    +0.088 C 
BRANCH  12  13
ATOM     13  C   UNL     1      -4.654   2.520  25.583  0.00  0.00    -0.003 C 
ATOM     15  C   UNL     1      -3.964   3.885  25.634  0.00  0.00    +0.008 C 
ATOM     16  C   UNL     1      -6.108   2.661  26.042  0.00  0.00    +0.008 C 
ENDBRANCH  12  13
ENDBRANCH   4  12
ENDBRANCH  14   8
TORSDOF 8
ENDMDL
