MODEL 1
REMARK VINA RESULT:      -3.3      0.000      0.000
REMARK  Name = 38028562
REMARK  13 active torsions:
REMARK  status: ('A' for Active; 'I' for Inactive)
REMARK    1  A    between atoms: O_3  and  C_22
REMARK    2  A    between atoms: O_3  and  C_26
REMARK    3  A    between atoms: N_4  and  C_14
REMARK    4  A    between atoms: N_5  and  C_21
REMARK    5  A    between atoms: C_7  and  C_11
REMARK    6  A    between atoms: C_8  and  C_14
REMARK    7  A    between atoms: C_10  and  C_15
REMARK    8  A    between atoms: C_11  and  C_16
REMARK    9  A    between atoms: C_11  and  C_17
REMARK   10  A    between atoms: C_12  and  C_18
REMARK   11  A    between atoms: C_15  and  C_19
REMARK   12  A    between atoms: C_20  and  C_22
REMARK   13  A    between atoms: C_21  and  C_23
REMARK                            x       y       z     vdW  Elec       q    Type
REMARK                         _______ _______ _______ _____ _____    ______ ____
ROOT
ATOM      7  C   UNL     1      -2.734  -1.532  24.313  0.00  0.00    +0.000 C 
ATOM      8  C   UNL     1      -3.340  -0.809  25.543  0.00  0.00    +0.032 C 
ATOM      9  C   UNL     1      -1.219  -1.716  24.492  0.00  0.00    +0.012 C 
ATOM     10  C   UNL     1      -0.488  -0.372  24.678  0.00  0.00    +0.023 C 
ATOM     12  C   UNL     1      -1.185   0.514  25.688  0.00  0.00    -0.073 C 
ATOM     13  C   UNL     1      -2.456   0.296  26.072  0.00  0.00    -0.022 C 
ATOM     18  C   UNL     1      -0.375   1.632  26.283  0.00  0.00    +0.039 C 
ENDROOT
BRANCH   7  11
ATOM     11  C   UNL     1      -3.396  -2.893  24.072  0.00  0.00    -0.013 C 
ATOM     16  C   UNL     1      -3.526  -3.661  25.383  0.00  0.00    +0.007 C 
ATOM     17  C   UNL     1      -4.760  -2.711  23.413  0.00  0.00    +0.007 C 
ENDBRANCH   7  11
BRANCH   8  14
ATOM     14  C   UNL     1      -4.727  -0.243  25.223  0.00  0.00    +0.112 C 
BRANCH  14   4
ATOM      2  O   UNL     1      -6.550   1.702  26.347  0.00  0.00    -0.272 OA
ATOM      4  N   UNL     1      -4.675   1.178  25.071  0.00  0.00    -0.312 N 
ATOM     20  C   UNL     1      -5.599   2.046  25.650  0.00  0.00    +0.251 C 
ATOM     34  H   UNL     1      -3.885   1.571  24.569  0.00  0.00    +0.149 HD
BRANCH  20  22
ATOM     22  C   UNL     1      -5.303   3.495  25.326  0.00  0.00    +0.324 C 
BRANCH  22   3
ATOM      3  O   UNL     1      -4.149   3.933  26.012  0.00  0.00    -0.483 OA
BRANCH   3  26
ATOM     26  C   UNL     1      -2.987   4.034  25.285  0.00  0.00    +0.121 A 
ATOM     28  C   UNL     1      -2.818   3.269  24.131  0.00  0.00    +0.045 A 
ATOM     29  C   UNL     1      -1.977   4.901  25.701  0.00  0.00    +0.045 A 
ATOM     31  C   UNL     1      -1.638   3.372  23.392  0.00  0.00    +0.004 A 
ATOM     32  C   UNL     1      -0.798   5.003  24.963  0.00  0.00    +0.004 A 
ATOM     33  C   UNL     1      -0.628   4.239  23.809  0.00  0.00    +0.000 A 
ENDBRANCH   3  26
ENDBRANCH  22   3
ENDBRANCH  20  22
ENDBRANCH  14   4
ENDBRANCH   8  14
BRANCH  10  15
ATOM     15  C   UNL     1      -0.316   0.352  23.338  0.00  0.00    +0.103 C 
BRANCH  15  19
ATOM      1  O   UNL     1       1.706   1.618  23.737  0.00  0.00    -0.276 OA
ATOM      5  N   UNL     1       1.667   0.028  22.043  0.00  0.00    -0.311 N 
ATOM     19  C   UNL     1       1.119   0.756  23.088  0.00  0.00    +0.214 C 
ATOM     35  H   UNL     1       1.101  -0.671  21.568  0.00  0.00    +0.149 HD
BRANCH   5  21
ATOM     21  C   UNL     1       3.026   0.205  21.584  0.00  0.00    +0.141 C 
BRANCH  21  23
ATOM      6  N   UNL     1       4.950  -1.669  24.246  0.00  0.00    -0.263 NA
ATOM     23  C   UNL     1       4.026  -0.091  22.664  0.00  0.00    -0.012 A 
ATOM     24  C   UNL     1       4.928   0.877  23.092  0.00  0.00    +0.008 A 
ATOM     25  C   UNL     1       4.078  -1.337  23.268  0.00  0.00    +0.115 A 
ATOM     27  C   UNL     1       5.842   0.574  24.095  0.00  0.00    +0.020 A 
ATOM     30  C   UNL     1       5.812  -0.702  24.635  0.00  0.00    +0.111 A 
ENDBRANCH  21  23
ENDBRANCH   5  21
ENDBRANCH  15  19
ENDBRANCH  10  15
TORSDOF 10
ENDMDL
MODEL 2
REMARK VINA RESULT:      -3.2      1.710      6.722
REMARK  Name = 38028562
REMARK  13 active torsions:
REMARK  status: ('A' for Active; 'I' for Inactive)
REMARK    1  A    between atoms: O_3  and  C_22
REMARK    2  A    between atoms: O_3  and  C_26
REMARK    3  A    between atoms: N_4  and  C_14
REMARK    4  A    between atoms: N_5  and  C_21
REMARK    5  A    between atoms: C_7  and  C_11
REMARK    6  A    between atoms: C_8  and  C_14
REMARK    7  A    between atoms: C_10  and  C_15
REMARK    8  A    between atoms: C_11  and  C_16
REMARK    9  A    between atoms: C_11  and  C_17
REMARK   10  A    between atoms: C_12  and  C_18
REMARK   11  A    between atoms: C_15  and  C_19
REMARK   12  A    between atoms: C_20  and  C_22
REMARK   13  A    between atoms: C_21  and  C_23
REMARK                            x       y       z     vdW  Elec       q    Type
REMARK                         _______ _______ _______ _____ _____    ______ ____
ROOT
ATOM      7  C   UNL     1      -3.762  -0.694  25.035  0.00  0.00    +0.000 C 
ATOM      8  C   UNL     1      -2.544  -0.005  24.370  0.00  0.00    +0.032 C 
ATOM      9  C   UNL     1      -5.049  -0.371  24.261  0.00  0.00    +0.012 C 
ATOM     10  C   UNL     1      -5.323   1.143  24.192  0.00  0.00    +0.023 C 
ATOM     12  C   UNL     1      -4.084   1.922  23.799  0.00  0.00    -0.073 C 
ATOM     13  C   UNL     1      -2.852   1.388  23.873  0.00  0.00    -0.022 C 
ATOM     18  C   UNL     1      -4.297   3.316  23.276  0.00  0.00    +0.039 C 
ENDROOT
BRANCH   7  11
ATOM     11  C   UNL     1      -3.577  -2.212  25.124  0.00  0.00    -0.013 C 
ATOM     16  C   UNL     1      -4.312  -2.904  23.980  0.00  0.00    +0.007 C 
ATOM     17  C   UNL     1      -2.095  -2.570  25.110  0.00  0.00    +0.007 C 
ENDBRANCH   7  11
BRANCH   8  14
ATOM     14  C   UNL     1      -1.348   0.048  25.327  0.00  0.00    +0.112 C 
BRANCH  14   4
ATOM      2  O   UNL     1       0.093  -0.863  22.989  0.00  0.00    -0.272 OA
ATOM      4  N   UNL     1      -0.226   0.678  24.705  0.00  0.00    -0.312 N 
ATOM     20  C   UNL     1       0.413   0.168  23.574  0.00  0.00    +0.251 C 
ATOM     34  H   UNL     1       0.076   1.576  25.070  0.00  0.00    +0.149 HD
BRANCH  20  22
ATOM     22  C   UNL     1       1.569   1.038  23.130  0.00  0.00    +0.324 C 
BRANCH  22   3
ATOM      3  O   UNL     1       2.493   0.287  22.370  0.00  0.00    -0.483 OA
BRANCH   3  26
ATOM     26  C   UNL     1       3.679  -0.050  22.980  0.00  0.00    +0.121 A 
ATOM     28  C   UNL     1       4.694   0.899  23.101  0.00  0.00    +0.045 A 
ATOM     29  C   UNL     1       3.866  -1.340  23.476  0.00  0.00    +0.045 A 
ATOM     31  C   UNL     1       5.898   0.556  23.720  0.00  0.00    +0.004 A 
ATOM     32  C   UNL     1       5.068  -1.681  24.094  0.00  0.00    +0.004 A 
ATOM     33  C   UNL     1       6.085  -0.733  24.216  0.00  0.00    +0.000 A 
ENDBRANCH   3  26
ENDBRANCH  22   3
ENDBRANCH  20  22
ENDBRANCH  14   4
ENDBRANCH   8  14
BRANCH  10  15
ATOM     15  C   UNL     1      -5.900   1.661  25.514  0.00  0.00    +0.103 C 
BRANCH  15  19
ATOM      1  O   UNL     1      -6.023   4.072  25.676  0.00  0.00    -0.276 OA
ATOM      5  N   UNL     1      -4.109   2.971  26.403  0.00  0.00    -0.311 N 
ATOM     19  C   UNL     1      -5.383   3.039  25.860  0.00  0.00    +0.214 C 
ATOM     35  H   UNL     1      -3.662   2.066  26.521  0.00  0.00    +0.149 HD
BRANCH   5  21
ATOM     21  C   UNL     1      -3.368   4.138  26.826  0.00  0.00    +0.141 C 
BRANCH  21  23
ATOM      6  N   UNL     1       0.004   3.565  25.212  0.00  0.00    -0.263 NA
ATOM     23  C   UNL     1      -2.145   4.361  25.984  0.00  0.00    -0.012 A 
ATOM     24  C   UNL     1      -1.999   5.515  25.222  0.00  0.00    +0.008 A 
ATOM     25  C   UNL     1      -1.123   3.425  25.945  0.00  0.00    +0.115 A 
ATOM     27  C   UNL     1      -0.854   5.695  24.454  0.00  0.00    +0.020 A 
ATOM     30  C   UNL     1       0.110   4.699  24.484  0.00  0.00    +0.111 A 
ENDBRANCH  21  23
ENDBRANCH   5  21
ENDBRANCH  15  19
ENDBRANCH  10  15
TORSDOF 10
ENDMDL
MODEL 3
REMARK VINA RESULT:      -3.0      1.500      4.651
REMARK  Name = 38028562
REMARK  13 active torsions:
REMARK  status: ('A' for Active; 'I' for Inactive)
REMARK    1  A    between atoms: O_3  and  C_22
REMARK    2  A    between atoms: O_3  and  C_26
REMARK    3  A    between atoms: N_4  and  C_14
REMARK    4  A    between atoms: N_5  and  C_21
REMARK    5  A    between atoms: C_7  and  C_11
REMARK    6  A    between atoms: C_8  and  C_14
REMARK    7  A    between atoms: C_10  and  C_15
REMARK    8  A    between atoms: C_11  and  C_16
REMARK    9  A    between atoms: C_11  and  C_17
REMARK   10  A    between atoms: C_12  and  C_18
REMARK   11  A    between atoms: C_15  and  C_19
REMARK   12  A    between atoms: C_20  and  C_22
REMARK   13  A    between atoms: C_21  and  C_23
REMARK                            x       y       z     vdW  Elec       q    Type
REMARK                         _______ _______ _______ _____ _____    ______ ____
ROOT
ATOM      7  C   UNL     1      -2.069   3.594  24.861  0.00  0.00    +0.000 C 
ATOM      8  C   UNL     1      -3.166   3.937  23.822  0.00  0.00    +0.032 C 
ATOM      9  C   UNL     1      -0.774   3.169  24.151  0.00  0.00    +0.012 C 
ATOM     10  C   UNL     1      -0.984   1.944  23.241  0.00  0.00    +0.023 C 
ATOM     12  C   UNL     1      -2.214   2.094  22.370  0.00  0.00    -0.073 C 
ATOM     13  C   UNL     1      -3.172   2.999  22.638  0.00  0.00    -0.022 C 
ATOM     18  C   UNL     1      -2.297   1.210  21.157  0.00  0.00    +0.039 C 
ENDROOT
BRANCH   7  11
ATOM     11  C   UNL     1      -1.784   4.773  25.797  0.00  0.00    -0.013 C 
ATOM     16  C   UNL     1      -1.576   6.052  24.991  0.00  0.00    +0.007 C 
ATOM     17  C   UNL     1      -2.921   4.944  26.799  0.00  0.00    +0.007 C 
ENDBRANCH   7  11
BRANCH   8  14
ATOM     14  C   UNL     1      -4.555   3.950  24.470  0.00  0.00    +0.112 C 
BRANCH  14   4
ATOM      2  O   UNL     1      -5.872   2.690  26.716  0.00  0.00    -0.272 OA
ATOM      4  N   UNL     1      -5.106   2.631  24.519  0.00  0.00    -0.312 N 
ATOM     20  C   UNL     1      -5.726   2.100  25.650  0.00  0.00    +0.251 C 
ATOM     34  H   UNL     1      -5.099   2.083  23.665  0.00  0.00    +0.149 HD
BRANCH  20  22
ATOM     22  C   UNL     1      -6.216   0.687  25.422  0.00  0.00    +0.324 C 
BRANCH  22   3
ATOM      3  O   UNL     1      -5.541   0.096  24.331  0.00  0.00    -0.483 OA
BRANCH   3  26
ATOM     26  C   UNL     1      -4.556  -0.818  24.623  0.00  0.00    +0.121 A 
ATOM     28  C   UNL     1      -4.335  -1.901  23.772  0.00  0.00    +0.045 A 
ATOM     29  C   UNL     1      -3.777  -0.662  25.770  0.00  0.00    +0.045 A 
ATOM     31  C   UNL     1      -3.335  -2.828  24.069  0.00  0.00    +0.004 A 
ATOM     32  C   UNL     1      -2.779  -1.588  26.065  0.00  0.00    +0.004 A 
ATOM     33  C   UNL     1      -2.557  -2.672  25.215  0.00  0.00    +0.000 A 
ENDBRANCH   3  26
ENDBRANCH  22   3
ENDBRANCH  20  22
ENDBRANCH  14   4
ENDBRANCH   8  14
BRANCH  10  15
ATOM     15  C   UNL     1      -1.046   0.651  24.061  0.00  0.00    +0.103 C 
BRANCH  15  19
ATOM      1  O   UNL     1       0.227  -1.399  24.236  0.00  0.00    -0.276 OA
ATOM      5  N   UNL     1       0.787   0.162  22.607  0.00  0.00    -0.311 N 
ATOM     19  C   UNL     1       0.042  -0.324  23.672  0.00  0.00    +0.214 C 
ATOM     35  H   UNL     1       0.554   1.064  22.202  0.00  0.00    +0.149 HD
BRANCH   5  21
ATOM     21  C   UNL     1       1.896  -0.561  22.026  0.00  0.00    +0.141 C 
BRANCH  21  23
ATOM      6  N   UNL     1       4.921   1.255  23.387  0.00  0.00    -0.263 NA
ATOM     23  C   UNL     1       3.181  -0.302  22.757  0.00  0.00    -0.012 A 
ATOM     24  C   UNL     1       3.823  -1.315  23.460  0.00  0.00    +0.008 A 
ATOM     25  C   UNL     1       3.766   0.955  22.752  0.00  0.00    +0.115 A 
ATOM     27  C   UNL     1       5.013  -1.046  24.127  0.00  0.00    +0.020 A 
ATOM     30  C   UNL     1       5.517   0.244  24.060  0.00  0.00    +0.111 A 
ENDBRANCH  21  23
ENDBRANCH   5  21
ENDBRANCH  15  19
ENDBRANCH  10  15
TORSDOF 10
ENDMDL
MODEL 4
REMARK VINA RESULT:      -2.5      1.745      6.906
REMARK  Name = 38028562
REMARK  13 active torsions:
REMARK  status: ('A' for Active; 'I' for Inactive)
REMARK    1  A    between atoms: O_3  and  C_22
REMARK    2  A    between atoms: O_3  and  C_26
REMARK    3  A    between atoms: N_4  and  C_14
REMARK    4  A    between atoms: N_5  and  C_21
REMARK    5  A    between atoms: C_7  and  C_11
REMARK    6  A    between atoms: C_8  and  C_14
REMARK    7  A    between atoms: C_10  and  C_15
REMARK    8  A    between atoms: C_11  and  C_16
REMARK    9  A    between atoms: C_11  and  C_17
REMARK   10  A    between atoms: C_12  and  C_18
REMARK   11  A    between atoms: C_15  and  C_19
REMARK   12  A    between atoms: C_20  and  C_22
REMARK   13  A    between atoms: C_21  and  C_23
REMARK                            x       y       z     vdW  Elec       q    Type
REMARK                         _______ _______ _______ _____ _____    ______ ____
ROOT
ATOM      7  C   UNL     1      -2.779   2.319  24.135  0.00  0.00    +0.000 C 
ATOM      8  C   UNL     1      -1.603   3.098  24.776  0.00  0.00    +0.032 C 
ATOM      9  C   UNL     1      -3.960   3.263  23.861  0.00  0.00    +0.012 C 
ATOM     10  C   UNL     1      -4.469   3.947  25.144  0.00  0.00    +0.023 C 
ATOM     12  C   UNL     1      -3.332   4.510  25.971  0.00  0.00    -0.073 C 
ATOM     13  C   UNL     1      -2.056   4.128  25.784  0.00  0.00    -0.022 C 
ATOM     18  C   UNL     1      -3.688   5.557  26.990  0.00  0.00    +0.039 C 
ENDROOT
BRANCH   7  11
ATOM     11  C   UNL     1      -2.360   1.622  22.837  0.00  0.00    -0.013 C 
ATOM     16  C   UNL     1      -3.196   0.366  22.614  0.00  0.00    +0.007 C 
ATOM     17  C   UNL     1      -2.491   2.577  21.654  0.00  0.00    +0.007 C 
ENDBRANCH   7  11
BRANCH   8  14
ATOM     14  C   UNL     1      -0.603   2.143  25.438  0.00  0.00    +0.112 C 
BRANCH  14   4
ATOM      2  O   UNL     1       1.662   2.118  23.639  0.00  0.00    -0.272 OA
ATOM      4  N   UNL     1      -0.226   1.097  24.538  0.00  0.00    -0.312 N 
ATOM     20  C   UNL     1       0.887   1.168  23.701  0.00  0.00    +0.251 C 
ATOM     34  H   UNL     1      -0.763   0.236  24.562  0.00  0.00    +0.149 HD
BRANCH  20  22
ATOM     22  C   UNL     1       1.048  -0.078  22.857  0.00  0.00    +0.324 C 
BRANCH  22   3
ATOM      3  O   UNL     1       2.241  -0.018  22.104  0.00  0.00    -0.483 OA
BRANCH   3  26
ATOM     26  C   UNL     1       3.423  -0.181  22.787  0.00  0.00    +0.121 A 
ATOM     28  C   UNL     1       3.695  -1.387  23.432  0.00  0.00    +0.045 A 
ATOM     29  C   UNL     1       4.350   0.860  22.834  0.00  0.00    +0.045 A 
ATOM     31  C   UNL     1       4.895  -1.552  24.126  0.00  0.00    +0.004 A 
ATOM     32  C   UNL     1       5.549   0.695  23.527  0.00  0.00    +0.004 A 
ATOM     33  C   UNL     1       5.822  -0.511  24.173  0.00  0.00    +0.000 A 
ENDBRANCH   3  26
ENDBRANCH  22   3
ENDBRANCH  20  22
ENDBRANCH  14   4
ENDBRANCH   8  14
BRANCH  10  15
ATOM     15  C   UNL     1      -5.331   2.990  25.975  0.00  0.00    +0.103 C 
BRANCH  15  19
ATOM      1  O   UNL     1      -6.485   1.591  24.374  0.00  0.00    -0.276 OA
ATOM      5  N   UNL     1      -4.789   0.681  25.678  0.00  0.00    -0.311 N 
ATOM     19  C   UNL     1      -5.621   1.701  25.241  0.00  0.00    +0.214 C 
ATOM     35  H   UNL     1      -4.099   0.871  26.399  0.00  0.00    +0.149 HD
BRANCH   5  21
ATOM     21  C   UNL     1      -4.845  -0.663  25.150  0.00  0.00    +0.141 C 
BRANCH  21  23
ATOM      6  N   UNL     1      -1.197  -1.345  25.877  0.00  0.00    -0.263 NA
ATOM     23  C   UNL     1      -3.490  -1.307  25.108  0.00  0.00    -0.012 A 
ATOM     24  C   UNL     1      -3.246  -2.413  24.302  0.00  0.00    +0.008 A 
ATOM     25  C   UNL     1      -2.441  -0.815  25.869  0.00  0.00    +0.115 A 
ATOM     27  C   UNL     1      -1.979  -2.987  24.283  0.00  0.00    +0.020 A 
ATOM     30  C   UNL     1      -0.998  -2.420  25.081  0.00  0.00    +0.111 A 
ENDBRANCH  21  23
ENDBRANCH   5  21
ENDBRANCH  15  19
ENDBRANCH  10  15
TORSDOF 10
ENDMDL
MODEL 5
REMARK VINA RESULT:      -2.1      1.242      2.538
REMARK  Name = 38028562
REMARK  13 active torsions:
REMARK  status: ('A' for Active; 'I' for Inactive)
REMARK    1  A    between atoms: O_3  and  C_22
REMARK    2  A    between atoms: O_3  and  C_26
REMARK    3  A    between atoms: N_4  and  C_14
REMARK    4  A    between atoms: N_5  and  C_21
REMARK    5  A    between atoms: C_7  and  C_11
REMARK    6  A    between atoms: C_8  and  C_14
REMARK    7  A    between atoms: C_10  and  C_15
REMARK    8  A    between atoms: C_11  and  C_16
REMARK    9  A    between atoms: C_11  and  C_17
REMARK   10  A    between atoms: C_12  and  C_18
REMARK   11  A    between atoms: C_15  and  C_19
REMARK   12  A    between atoms: C_20  and  C_22
REMARK   13  A    between atoms: C_21  and  C_23
REMARK                            x       y       z     vdW  Elec       q    Type
REMARK                         _______ _______ _______ _____ _____    ______ ____
ROOT
ATOM      7  C   UNL     1      -3.206   0.969  23.507  0.00  0.00    +0.000 C 
ATOM      8  C   UNL     1      -4.346   0.007  23.926  0.00  0.00    +0.032 C 
ATOM      9  C   UNL     1      -2.060   0.187  22.847  0.00  0.00    +0.012 C 
ATOM     10  C   UNL     1      -1.473  -0.887  23.782  0.00  0.00    +0.023 C 
ATOM     12  C   UNL     1      -2.558  -1.709  24.447  0.00  0.00    -0.073 C 
ATOM     13  C   UNL     1      -3.839  -1.300  24.490  0.00  0.00    -0.022 C 
ATOM     18  C   UNL     1      -2.147  -3.036  25.023  0.00  0.00    +0.039 C 
ENDROOT
BRANCH   7  11
ATOM     11  C   UNL     1      -3.705   2.060  22.555  0.00  0.00    -0.013 C 
ATOM     16  C   UNL     1      -3.720   3.414  23.259  0.00  0.00    +0.007 C 
ATOM     17  C   UNL     1      -2.835   2.112  21.302  0.00  0.00    +0.007 C 
ENDBRANCH   7  11
BRANCH   8  14
ATOM     14  C   UNL     1      -5.284   0.671  24.941  0.00  0.00    +0.112 C 
BRANCH  14   4
ATOM      2  O   UNL     1      -6.429   2.503  26.864  0.00  0.00    -0.272 OA
ATOM      4  N   UNL     1      -4.910   2.032  25.164  0.00  0.00    -0.312 N 
ATOM     20  C   UNL     1      -5.519   2.849  26.117  0.00  0.00    +0.251 C 
ATOM     34  H   UNL     1      -4.118   2.397  24.645  0.00  0.00    +0.149 HD
BRANCH  20  22
ATOM     22  C   UNL     1      -4.926   4.242  26.138  0.00  0.00    +0.324 C 
BRANCH  22   3
ATOM      3  O   UNL     1      -3.711   4.254  26.859  0.00  0.00    -0.483 OA
BRANCH   3  26
ATOM     26  C   UNL     1      -2.549   4.345  26.128  0.00  0.00    +0.121 A 
ATOM     28  C   UNL     1      -2.250   5.519  25.437  0.00  0.00    +0.045 A 
ATOM     29  C   UNL     1      -1.671   3.263  26.078  0.00  0.00    +0.045 A 
ATOM     31  C   UNL     1      -1.071   5.610  24.696  0.00  0.00    +0.004 A 
ATOM     32  C   UNL     1      -0.493   3.354  25.338  0.00  0.00    +0.004 A 
ATOM     33  C   UNL     1      -0.193   4.528  24.646  0.00  0.00    +0.000 A 
ENDBRANCH   3  26
ENDBRANCH  22   3
ENDBRANCH  20  22
ENDBRANCH  14   4
ENDBRANCH   8  14
BRANCH  10  15
ATOM     15  C   UNL     1      -0.542  -0.261  24.826  0.00  0.00    +0.103 C 
BRANCH  15  19
ATOM      1  O   UNL     1       1.136   1.470  24.621  0.00  0.00    -0.276 OA
ATOM      5  N   UNL     1       1.083  -0.264  23.074  0.00  0.00    -0.311 N 
ATOM     19  C   UNL     1       0.643   0.430  24.190  0.00  0.00    +0.214 C 
ATOM     35  H   UNL     1       0.612  -1.121  22.797  0.00  0.00    +0.149 HD
BRANCH   5  21
ATOM     21  C   UNL     1       2.202   0.168  22.267  0.00  0.00    +0.141 C 
BRANCH  21  23
ATOM      6  N   UNL     1       4.955  -1.621  24.144  0.00  0.00    -0.263 NA
ATOM     23  C   UNL     1       3.516  -0.091  22.945  0.00  0.00    -0.012 A 
ATOM     24  C   UNL     1       4.492   0.897  23.020  0.00  0.00    +0.008 A 
ATOM     25  C   UNL     1       3.795  -1.322  23.518  0.00  0.00    +0.115 A 
ATOM     27  C   UNL     1       5.700   0.628  23.655  0.00  0.00    +0.020 A 
ATOM     30  C   UNL     1       5.880  -0.635  24.197  0.00  0.00    +0.111 A 
ENDBRANCH  21  23
ENDBRANCH   5  21
ENDBRANCH  15  19
ENDBRANCH  10  15
TORSDOF 10
ENDMDL
MODEL 6
REMARK VINA RESULT:      -1.1      1.453      4.385
REMARK  Name = 38028562
REMARK  13 active torsions:
REMARK  status: ('A' for Active; 'I' for Inactive)
REMARK    1  A    between atoms: O_3  and  C_22
REMARK    2  A    between atoms: O_3  and  C_26
REMARK    3  A    between atoms: N_4  and  C_14
REMARK    4  A    between atoms: N_5  and  C_21
REMARK    5  A    between atoms: C_7  and  C_11
REMARK    6  A    between atoms: C_8  and  C_14
REMARK    7  A    between atoms: C_10  and  C_15
REMARK    8  A    between atoms: C_11  and  C_16
REMARK    9  A    between atoms: C_11  and  C_17
REMARK   10  A    between atoms: C_12  and  C_18
REMARK   11  A    between atoms: C_15  and  C_19
REMARK   12  A    between atoms: C_20  and  C_22
REMARK   13  A    between atoms: C_21  and  C_23
REMARK                            x       y       z     vdW  Elec       q    Type
REMARK                         _______ _______ _______ _____ _____    ______ ____
ROOT
ATOM      7  C   UNL     1      -0.761   2.762  26.065  0.00  0.00    +0.000 C 
ATOM      8  C   UNL     1      -1.808   3.825  25.646  0.00  0.00    +0.032 C 
ATOM      9  C   UNL     1       0.153   2.414  24.879  0.00  0.00    +0.012 C 
ATOM     10  C   UNL     1      -0.639   1.871  23.675  0.00  0.00    +0.023 C 
ATOM     12  C   UNL     1      -1.852   2.724  23.366  0.00  0.00    -0.073 C 
ATOM     13  C   UNL     1      -2.352   3.601  24.255  0.00  0.00    -0.022 C 
ATOM     18  C   UNL     1      -2.451   2.580  21.995  0.00  0.00    +0.039 C 
ENDROOT
BRANCH   7  11
ATOM     11  C   UNL     1       0.086   3.236  27.250  0.00  0.00    -0.013 C 
ATOM     16  C   UNL     1      -0.249   2.428  28.500  0.00  0.00    +0.007 C 
ATOM     17  C   UNL     1       1.572   3.129  26.920  0.00  0.00    +0.007 C 
ENDBRANCH   7  11
BRANCH   8  14
ATOM     14  C   UNL     1      -2.970   3.879  26.645  0.00  0.00    +0.112 C 
BRANCH  14   4
ATOM      2  O   UNL     1      -5.582   4.078  25.419  0.00  0.00    -0.272 OA
ATOM      4  N   UNL     1      -3.895   2.815  26.408  0.00  0.00    -0.312 N 
ATOM     20  C   UNL     1      -5.140   3.000  25.808  0.00  0.00    +0.251 C 
ATOM     34  H   UNL     1      -3.598   1.871  26.630  0.00  0.00    +0.149 HD
BRANCH  20  22
ATOM     22  C   UNL     1      -5.912   1.704  25.681  0.00  0.00    +0.324 C 
BRANCH  22   3
ATOM      3  O   UNL     1      -5.492   0.985  24.539  0.00  0.00    -0.483 OA
BRANCH   3  26
ATOM     26  C   UNL     1      -4.707  -0.123  24.750  0.00  0.00    +0.121 A 
ATOM     28  C   UNL     1      -4.005  -0.263  25.947  0.00  0.00    +0.045 A 
ATOM     29  C   UNL     1      -4.612  -1.107  23.766  0.00  0.00    +0.045 A 
ATOM     31  C   UNL     1      -3.207  -1.388  26.160  0.00  0.00    +0.004 A 
ATOM     32  C   UNL     1      -3.815  -2.231  23.979  0.00  0.00    +0.004 A 
ATOM     33  C   UNL     1      -3.112  -2.372  25.176  0.00  0.00    +0.000 A 
ENDBRANCH   3  26
ENDBRANCH  22   3
ENDBRANCH  20  22
ENDBRANCH  14   4
ENDBRANCH   8  14
BRANCH  10  15
ATOM     15  C   UNL     1      -1.039   0.407  23.892  0.00  0.00    +0.103 C 
BRANCH  15  19
ATOM      1  O   UNL     1       0.216  -1.658  24.018  0.00  0.00    -0.276 OA
ATOM      5  N   UNL     1       0.881  -0.003  22.527  0.00  0.00    -0.311 N 
ATOM     19  C   UNL     1       0.070  -0.549  23.511  0.00  0.00    +0.214 C 
ATOM     35  H   UNL     1       0.676   0.924  22.165  0.00  0.00    +0.149 HD
BRANCH   5  21
ATOM     21  C   UNL     1       2.022  -0.695  21.972  0.00  0.00    +0.141 C 
BRANCH  21  23
ATOM      6  N   UNL     1       5.016  -1.181  24.231  0.00  0.00    -0.263 NA
ATOM     23  C   UNL     1       3.281  -0.404  22.736  0.00  0.00    -0.012 A 
ATOM     24  C   UNL     1       3.878   0.851  22.684  0.00  0.00    +0.008 A 
ATOM     25  C   UNL     1       3.885  -1.377  23.518  0.00  0.00    +0.115 A 
ATOM     27  C   UNL     1       5.044   1.091  23.403  0.00  0.00    +0.020 A 
ATOM     30  C   UNL     1       5.568   0.051  24.155  0.00  0.00    +0.111 A 
ENDBRANCH  21  23
ENDBRANCH   5  21
ENDBRANCH  15  19
ENDBRANCH  10  15
TORSDOF 10
ENDMDL
MODEL 7
REMARK VINA RESULT:      -0.8      2.284      6.370
REMARK  Name = 38028562
REMARK  13 active torsions:
REMARK  status: ('A' for Active; 'I' for Inactive)
REMARK    1  A    between atoms: O_3  and  C_22
REMARK    2  A    between atoms: O_3  and  C_26
REMARK    3  A    between atoms: N_4  and  C_14
REMARK    4  A    between atoms: N_5  and  C_21
REMARK    5  A    between atoms: C_7  and  C_11
REMARK    6  A    between atoms: C_8  and  C_14
REMARK    7  A    between atoms: C_10  and  C_15
REMARK    8  A    between atoms: C_11  and  C_16
REMARK    9  A    between atoms: C_11  and  C_17
REMARK   10  A    between atoms: C_12  and  C_18
REMARK   11  A    between atoms: C_15  and  C_19
REMARK   12  A    between atoms: C_20  and  C_22
REMARK   13  A    between atoms: C_21  and  C_23
REMARK                            x       y       z     vdW  Elec       q    Type
REMARK                         _______ _______ _______ _____ _____    ______ ____
ROOT
ATOM      7  C   UNL     1      -3.753   2.371  24.757  0.00  0.00    +0.000 C 
ATOM      8  C   UNL     1      -3.182   2.963  23.443  0.00  0.00    +0.032 C 
ATOM      9  C   UNL     1      -4.062   3.493  25.760  0.00  0.00    +0.012 C 
ATOM     10  C   UNL     1      -2.813   4.327  26.103  0.00  0.00    +0.023 C 
ATOM     12  C   UNL     1      -2.042   4.724  24.862  0.00  0.00    -0.073 C 
ATOM     13  C   UNL     1      -2.229   4.112  23.679  0.00  0.00    -0.022 C 
ATOM     18  C   UNL     1      -1.081   5.872  24.998  0.00  0.00    +0.039 C 
ENDROOT
BRANCH   7  11
ATOM     11  C   UNL     1      -5.015   1.540  24.503  0.00  0.00    -0.013 C 
ATOM     16  C   UNL     1      -4.644   0.102  24.157  0.00  0.00    +0.007 C 
ATOM     17  C   UNL     1      -5.934   1.583  25.720  0.00  0.00    +0.007 C 
ENDBRANCH   7  11
BRANCH   8  14
ATOM     14  C   UNL     1      -2.483   1.884  22.609  0.00  0.00    +0.112 C 
BRANCH  14   4
ATOM      2  O   UNL     1      -0.702  -0.367  22.249  0.00  0.00    -0.272 OA
ATOM      4  N   UNL     1      -1.087   1.831  22.912  0.00  0.00    -0.312 N 
ATOM     20  C   UNL     1      -0.299   0.699  22.707  0.00  0.00    +0.251 C 
ATOM     34  H   UNL     1      -0.639   2.684  23.232  0.00  0.00    +0.149 HD
BRANCH  20  22
ATOM     22  C   UNL     1       1.141   0.924  23.114  0.00  0.00    +0.324 C 
BRANCH  22   3
ATOM      3  O   UNL     1       1.987  -0.027  22.500  0.00  0.00    -0.483 OA
BRANCH   3  26
ATOM     26  C   UNL     1       3.264  -0.143  22.996  0.00  0.00    +0.121 A 
ATOM     28  C   UNL     1       3.708  -1.366  23.498  0.00  0.00    +0.045 A 
ATOM     29  C   UNL     1       4.115   0.962  22.996  0.00  0.00    +0.045 A 
ATOM     31  C   UNL     1       5.005  -1.484  24.001  0.00  0.00    +0.004 A 
ATOM     32  C   UNL     1       5.410   0.844  23.499  0.00  0.00    +0.004 A 
ATOM     33  C   UNL     1       5.856  -0.379  24.001  0.00  0.00    +0.000 A 
ENDBRANCH   3  26
ENDBRANCH  22   3
ENDBRANCH  20  22
ENDBRANCH  14   4
ENDBRANCH   8  14
BRANCH  10  15
ATOM     15  C   UNL     1      -1.910   3.586  27.097  0.00  0.00    +0.103 C 
BRANCH  15  19
ATOM      1  O   UNL     1       0.059   3.038  25.803  0.00  0.00    -0.276 OA
ATOM      5  N   UNL     1      -1.343   1.334  26.534  0.00  0.00    -0.311 N 
ATOM     19  C   UNL     1      -0.943   2.655  26.402  0.00  0.00    +0.214 C 
ATOM     35  H   UNL     1      -2.188   1.115  27.054  0.00  0.00    +0.149 HD
BRANCH   5  21
ATOM     21  C   UNL     1      -0.606   0.227  25.967  0.00  0.00    +0.141 C 
BRANCH  21  23
ATOM      6  N   UNL     1      -1.866  -2.906  24.263  0.00  0.00    -0.263 NA
ATOM     23  C   UNL     1      -1.509  -0.908  25.579  0.00  0.00    -0.012 A 
ATOM     24  C   UNL     1      -2.780  -1.035  26.129  0.00  0.00    +0.008 A 
ATOM     25  C   UNL     1      -1.104  -1.862  24.658  0.00  0.00    +0.115 A 
ATOM     27  C   UNL     1      -3.594  -2.096  25.749  0.00  0.00    +0.020 A 
ATOM     30  C   UNL     1      -3.095  -2.996  24.820  0.00  0.00    +0.111 A 
ENDBRANCH  21  23
ENDBRANCH   5  21
ENDBRANCH  15  19
ENDBRANCH  10  15
TORSDOF 10
ENDMDL
MODEL 8
REMARK VINA RESULT:       0.5      1.895      4.711
REMARK  Name = 38028562
REMARK  13 active torsions:
REMARK  status: ('A' for Active; 'I' for Inactive)
REMARK    1  A    between atoms: O_3  and  C_22
REMARK    2  A    between atoms: O_3  and  C_26
REMARK    3  A    between atoms: N_4  and  C_14
REMARK    4  A    between atoms: N_5  and  C_21
REMARK    5  A    between atoms: C_7  and  C_11
REMARK    6  A    between atoms: C_8  and  C_14
REMARK    7  A    between atoms: C_10  and  C_15
REMARK    8  A    between atoms: C_11  and  C_16
REMARK    9  A    between atoms: C_11  and  C_17
REMARK   10  A    between atoms: C_12  and  C_18
REMARK   11  A    between atoms: C_15  and  C_19
REMARK   12  A    between atoms: C_20  and  C_22
REMARK   13  A    between atoms: C_21  and  C_23
REMARK                            x       y       z     vdW  Elec       q    Type
REMARK                         _______ _______ _______ _____ _____    ______ ____
ROOT
ATOM      7  C   UNL     1      -3.670   3.258  25.575  0.00  0.00    +0.000 C 
ATOM      8  C   UNL     1      -3.625   4.314  24.441  0.00  0.00    +0.032 C 
ATOM      9  C   UNL     1      -2.714   3.651  26.711  0.00  0.00    +0.012 C 
ATOM     10  C   UNL     1      -1.257   3.784  26.226  0.00  0.00    +0.023 C 
ATOM     12  C   UNL     1      -1.160   4.594  24.950  0.00  0.00    -0.073 C 
ATOM     13  C   UNL     1      -2.231   4.831  24.172  0.00  0.00    -0.022 C 
ATOM     18  C   UNL     1       0.189   5.164  24.610  0.00  0.00    +0.039 C 
ENDROOT
BRANCH   7  11
ATOM     11  C   UNL     1      -5.088   3.081  26.129  0.00  0.00    -0.013 C 
ATOM     16  C   UNL     1      -5.973   4.251  25.708  0.00  0.00    +0.007 C 
ATOM     17  C   UNL     1      -5.681   1.757  25.658  0.00  0.00    +0.007 C 
ENDBRANCH   7  11
BRANCH   8  14
ATOM     14  C   UNL     1      -4.221   3.756  23.144  0.00  0.00    +0.112 C 
BRANCH  14   4
ATOM      2  O   UNL     1      -2.478   2.544  21.179  0.00  0.00    -0.272 OA
ATOM      4  N   UNL     1      -3.917   2.367  22.999  0.00  0.00    -0.312 N 
ATOM     20  C   UNL     1      -3.062   1.866  22.019  0.00  0.00    +0.251 C 
ATOM     34  H   UNL     1      -4.295   1.726  23.689  0.00  0.00    +0.149 HD
BRANCH  20  22
ATOM     22  C   UNL     1      -2.921   0.361  22.098  0.00  0.00    +0.324 C 
BRANCH  22   3
ATOM      3  O   UNL     1      -3.972  -0.198  22.858  0.00  0.00    -0.483 OA
BRANCH   3  26
ATOM     26  C   UNL     1      -3.622  -0.962  23.947  0.00  0.00    +0.121 A 
ATOM     28  C   UNL     1      -3.933  -2.321  23.973  0.00  0.00    +0.045 A 
ATOM     29  C   UNL     1      -2.958  -0.377  25.024  0.00  0.00    +0.045 A 
ATOM     31  C   UNL     1      -3.578  -3.096  25.078  0.00  0.00    +0.004 A 
ATOM     32  C   UNL     1      -2.603  -1.151  26.128  0.00  0.00    +0.004 A 
ATOM     33  C   UNL     1      -2.913  -2.511  26.156  0.00  0.00    +0.000 A 
ENDBRANCH   3  26
ENDBRANCH  22   3
ENDBRANCH  20  22
ENDBRANCH  14   4
ENDBRANCH   8  14
BRANCH  10  15
ATOM     15  C   UNL     1      -0.605   2.407  26.054  0.00  0.00    +0.103 C 
BRANCH  15  19
ATOM      1  O   UNL     1      -1.124   2.317  23.693  0.00  0.00    -0.276 OA
ATOM      5  N   UNL     1       0.915   1.499  24.449  0.00  0.00    -0.311 N 
ATOM     19  C   UNL     1      -0.332   2.084  24.602  0.00  0.00    +0.214 C 
ATOM     35  H   UNL     1       1.504   1.350  25.264  0.00  0.00    +0.149 HD
BRANCH   5  21
ATOM     21  C   UNL     1       1.440   1.084  23.167  0.00  0.00    +0.141 C 
BRANCH  21  23
ATOM      6  N   UNL     1       4.133  -1.497  23.790  0.00  0.00    -0.263 NA
ATOM     23  C   UNL     1       2.798   0.457  23.293  0.00  0.00    -0.012 A 
ATOM     24  C   UNL     1       3.953   1.193  23.049  0.00  0.00    +0.008 A 
ATOM     25  C   UNL     1       2.941  -0.872  23.658  0.00  0.00    +0.115 A 
ATOM     27  C   UNL     1       5.198   0.585  23.175  0.00  0.00    +0.020 A 
ATOM     30  C   UNL     1       5.233  -0.750  23.545  0.00  0.00    +0.111 A 
ENDBRANCH  21  23
ENDBRANCH   5  21
ENDBRANCH  15  19
ENDBRANCH  10  15
TORSDOF 10
ENDMDL
