MODEL 1
REMARK VINA RESULT:      -4.2      0.000      0.000
REMARK  Name = 7134479
REMARK  14 active torsions:
REMARK  status: ('A' for Active; 'I' for Inactive)
REMARK    1  A    between atoms: S_1  and  N_12
REMARK    2  A    between atoms: S_1  and  C_24
REMARK    3  A    between atoms: O_5  and  C_15
REMARK    4  A    between atoms: O_6  and  C_18
REMARK    5  A    between atoms: O_7  and  C_20
REMARK    6  A    between atoms: N_12  and  C_16
REMARK    7  A    between atoms: N_13  and  C_22
REMARK    8  A    between atoms: C_15  and  C_21
REMARK    9  A    between atoms: C_22  and  C_23
REMARK   10  A    between atoms: C_22  and  C_26
REMARK   11  A    between atoms: C_23  and  C_25
REMARK   12  A    between atoms: C_25  and  C_29
REMARK   13  A    between atoms: C_25  and  C_30
REMARK   14  A    between atoms: C_31  and  C_34
REMARK                            x       y       z     vdW  Elec       q    Type
REMARK                         _______ _______ _______ _____ _____    ______ ____
ROOT
ATOM     15  C   UNL     1      -0.148   2.424  25.316  0.00  0.00    +0.145 C 
ATOM     16  C   UNL     1      -2.145   3.577  26.375  0.00  0.00    +0.111 C 
ATOM     17  C   UNL     1      -1.567   2.254  25.861  0.00  0.00    +0.067 C 
ATOM     18  C   UNL     1      -2.076   4.688  25.323  0.00  0.00    +0.162 C 
ATOM     19  C   UNL     1      -0.093   3.517  24.251  0.00  0.00    +0.078 C 
ATOM     20  C   UNL     1      -0.660   4.846  24.756  0.00  0.00    +0.148 C 
ENDROOT
BRANCH  15  21
ATOM      8  O   UNL     1      -0.155   0.052  25.037  0.00  0.00    -0.273 OA
ATOM     13  N   UNL     1       1.462   1.312  23.932  0.00  0.00    -0.302 N 
ATOM     21  C   UNL     1       0.362   1.129  24.755  0.00  0.00    +0.245 C 
ATOM     39  H   UNL     1       1.765   2.251  23.699  0.00  0.00    +0.150 HD
BRANCH  13  22
ATOM     22  C   UNL     1       2.155   0.220  23.286  0.00  0.00    +0.159 C 
BRANCH  22  26
ATOM     11  O   UNL     1       1.546  -0.320  20.995  0.00  0.00    -0.274 OA
ATOM     14  N   UNL     1       0.045  -0.791  22.670  0.00  0.00    -0.328 N 
ATOM     26  C   UNL     1       1.240  -0.299  22.185  0.00  0.00    +0.231 C 
ATOM     40  H   UNL     1      -0.184  -0.788  23.659  0.00  0.00    +0.145 HD
ATOM     41  H   UNL     1      -0.650  -1.180  22.042  0.00  0.00    +0.145 HD
ENDBRANCH  22  26
BRANCH  22  23
ATOM     23  C   UNL     1       3.501   0.655  22.697  0.00  0.00    +0.034 C 
BRANCH  23  25
ATOM     25  C   UNL     1       4.713  -0.180  23.162  0.00  0.00    -0.015 C 
ATOM     29  C   UNL     1       4.226  -1.475  23.819  0.00  0.00    +0.007 C 
ATOM     30  C   UNL     1       5.609   0.586  24.137  0.00  0.00    +0.007 C 
ENDBRANCH  23  25
ENDBRANCH  22  23
ENDBRANCH  13  22
ENDBRANCH  15  21
BRANCH  15   5
ATOM      5  O   UNL     1       0.753   2.751  26.367  0.00  0.00    -0.379 OA
ATOM     36  H   UNL     1       0.752   2.034  27.021  0.00  0.00    +0.211 HD
ENDBRANCH  15   5
BRANCH  18   6
ATOM      6  O   UNL     1      -2.455   5.914  25.952  0.00  0.00    -0.388 OA
ATOM     37  H   UNL     1      -2.988   5.700  26.737  0.00  0.00    +0.210 HD
ENDBRANCH  18   6
BRANCH  20   7
ATOM      7  O   UNL     1      -0.683   5.752  23.653  0.00  0.00    -0.389 OA
ATOM     38  H   UNL     1      -0.088   5.398  22.969  0.00  0.00    +0.210 HD
ENDBRANCH  20   7
BRANCH  16  12
ATOM     12  N   UNL     1      -3.567   3.355  26.757  0.00  0.00    -0.184 NA
ATOM     35  H   UNL     1      -3.758   3.042  27.715  0.00  0.00    +0.148 HD
BRANCH  12   1
ATOM      1  S   UNL     1      -4.749   3.244  25.549  0.00  0.00    +0.059 S 
ATOM      9  O   UNL     1      -4.802   4.487  24.804  0.00  0.00    -0.153 OA
ATOM     10  O   UNL     1      -5.957   2.693  26.133  0.00  0.00    -0.153 OA
BRANCH   1  24
ATOM     24  C   UNL     1      -4.076   2.001  24.488  0.00  0.00    +0.106 A 
ATOM     27  C   UNL     1      -4.137   0.658  24.860  0.00  0.00    +0.041 A 
ATOM     28  C   UNL     1      -3.482   2.363  23.279  0.00  0.00    +0.028 A 
ATOM     31  C   UNL     1      -3.606  -0.323  24.024  0.00  0.00    +0.057 A 
ATOM     32  C   UNL     1      -2.951   1.382  22.441  0.00  0.00    +0.002 A 
ATOM     33  C   UNL     1      -3.013   0.039  22.813  0.00  0.00    +0.012 A 
BRANCH  31  34
ATOM      2  F   UNL     1      -4.698  -2.443  23.835  0.00  0.00    -0.166 F 
ATOM      3  F   UNL     1      -2.547  -2.466  24.103  0.00  0.00    -0.166 F 
ATOM      4  F   UNL     1      -3.842  -1.926  25.765  0.00  0.00    -0.166 F 
ATOM     34  C   UNL     1      -3.671  -1.759  24.421  0.00  0.00    +0.417 C 
ENDBRANCH  31  34
ENDBRANCH   1  24
ENDBRANCH  12   1
ENDBRANCH  16  12
TORSDOF 12
ENDMDL
MODEL 2
REMARK VINA RESULT:      -2.9      3.573      7.468
REMARK  Name = 7134479
REMARK  14 active torsions:
REMARK  status: ('A' for Active; 'I' for Inactive)
REMARK    1  A    between atoms: S_1  and  N_12
REMARK    2  A    between atoms: S_1  and  C_24
REMARK    3  A    between atoms: O_5  and  C_15
REMARK    4  A    between atoms: O_6  and  C_18
REMARK    5  A    between atoms: O_7  and  C_20
REMARK    6  A    between atoms: N_12  and  C_16
REMARK    7  A    between atoms: N_13  and  C_22
REMARK    8  A    between atoms: C_15  and  C_21
REMARK    9  A    between atoms: C_22  and  C_23
REMARK   10  A    between atoms: C_22  and  C_26
REMARK   11  A    between atoms: C_23  and  C_25
REMARK   12  A    between atoms: C_25  and  C_29
REMARK   13  A    between atoms: C_25  and  C_30
REMARK   14  A    between atoms: C_31  and  C_34
REMARK                            x       y       z     vdW  Elec       q    Type
REMARK                         _______ _______ _______ _____ _____    ______ ____
ROOT
ATOM     15  C   UNL     1      -3.974  -0.131  25.149  0.00  0.00    +0.145 C 
ATOM     16  C   UNL     1      -1.581  -0.936  25.391  0.00  0.00    +0.111 C 
ATOM     17  C   UNL     1      -2.496   0.256  25.094  0.00  0.00    +0.067 C 
ATOM     18  C   UNL     1      -1.882  -2.139  24.491  0.00  0.00    +0.162 C 
ATOM     19  C   UNL     1      -4.271  -1.315  24.230  0.00  0.00    +0.078 C 
ATOM     20  C   UNL     1      -3.368  -2.515  24.524  0.00  0.00    +0.148 C 
ENDROOT
BRANCH  15  21
ATOM      8  O   UNL     1      -6.009   0.891  24.427  0.00  0.00    -0.273 OA
ATOM     13  N   UNL     1      -4.166   2.242  24.876  0.00  0.00    -0.302 N 
ATOM     21  C   UNL     1      -4.842   1.037  24.783  0.00  0.00    +0.245 C 
ATOM     39  H   UNL     1      -3.226   2.263  25.256  0.00  0.00    +0.150 HD
BRANCH  13  22
ATOM     22  C   UNL     1      -4.772   3.515  24.555  0.00  0.00    +0.159 C 
BRANCH  22  26
ATOM     11  O   UNL     1      -6.341   4.907  25.783  0.00  0.00    -0.274 OA
ATOM     14  N   UNL     1      -5.980   2.758  26.509  0.00  0.00    -0.328 N 
ATOM     26  C   UNL     1      -5.762   3.830  25.668  0.00  0.00    +0.231 C 
ATOM     40  H   UNL     1      -5.511   1.866  26.388  0.00  0.00    +0.145 HD
ATOM     41  H   UNL     1      -6.629   2.830  27.285  0.00  0.00    +0.145 HD
ENDBRANCH  22  26
BRANCH  22  23
ATOM     23  C   UNL     1      -3.734   4.637  24.434  0.00  0.00    +0.034 C 
BRANCH  23  25
ATOM     25  C   UNL     1      -2.371   4.334  25.091  0.00  0.00    -0.015 C 
ATOM     29  C   UNL     1      -2.548   4.189  26.605  0.00  0.00    +0.007 C 
ATOM     30  C   UNL     1      -1.329   5.414  24.795  0.00  0.00    +0.007 C 
ENDBRANCH  23  25
ENDBRANCH  22  23
ENDBRANCH  13  22
ENDBRANCH  15  21
BRANCH  15   5
ATOM      5  O   UNL     1      -4.351  -0.467  26.479  0.00  0.00    -0.379 OA
ATOM     36  H   UNL     1      -5.107   0.082  26.744  0.00  0.00    +0.211 HD
ENDBRANCH  15   5
BRANCH  18   6
ATOM      6  O   UNL     1      -1.119  -3.249  24.969  0.00  0.00    -0.388 OA
ATOM     37  H   UNL     1      -0.802  -3.035  25.863  0.00  0.00    +0.210 HD
ENDBRANCH  18   6
BRANCH  20   7
ATOM      7  O   UNL     1      -3.634  -3.507  23.533  0.00  0.00    -0.389 OA
ATOM     38  H   UNL     1      -4.403  -4.022  23.832  0.00  0.00    +0.210 HD
ENDBRANCH  20   7
BRANCH  16  12
ATOM     12  N   UNL     1      -0.169  -0.513  25.182  0.00  0.00    -0.184 NA
ATOM     35  H   UNL     1       0.555  -0.984  25.737  0.00  0.00    +0.148 HD
BRANCH  12   1
ATOM      1  S   UNL     1       0.158   0.938  24.371  0.00  0.00    +0.059 S 
ATOM      9  O   UNL     1       0.613   1.934  25.322  0.00  0.00    -0.153 OA
ATOM     10  O   UNL     1      -0.949   1.230  23.481  0.00  0.00    -0.153 OA
BRANCH   1  24
ATOM     24  C   UNL     1       1.532   0.489  23.353  0.00  0.00    +0.106 A 
ATOM     27  C   UNL     1       2.829   0.562  23.861  0.00  0.00    +0.041 A 
ATOM     28  C   UNL     1       1.320   0.063  22.042  0.00  0.00    +0.028 A 
ATOM     31  C   UNL     1       3.914   0.208  23.059  0.00  0.00    +0.057 A 
ATOM     32  C   UNL     1       2.404  -0.292  21.239  0.00  0.00    +0.002 A 
ATOM     33  C   UNL     1       3.702  -0.219  21.748  0.00  0.00    +0.012 A 
BRANCH  31  34
ATOM      2  F   UNL     1       6.248  -0.219  22.758  0.00  0.00    -0.166 F 
ATOM      3  F   UNL     1       5.711   1.560  23.876  0.00  0.00    -0.166 F 
ATOM      4  F   UNL     1       5.447  -0.405  24.770  0.00  0.00    -0.166 F 
ATOM     34  C   UNL     1       5.300   0.286  23.602  0.00  0.00    +0.417 C 
ENDBRANCH  31  34
ENDBRANCH   1  24
ENDBRANCH  12   1
ENDBRANCH  16  12
TORSDOF 12
ENDMDL
MODEL 3
REMARK VINA RESULT:      -2.5      1.740      2.357
REMARK  Name = 7134479
REMARK  14 active torsions:
REMARK  status: ('A' for Active; 'I' for Inactive)
REMARK    1  A    between atoms: S_1  and  N_12
REMARK    2  A    between atoms: S_1  and  C_24
REMARK    3  A    between atoms: O_5  and  C_15
REMARK    4  A    between atoms: O_6  and  C_18
REMARK    5  A    between atoms: O_7  and  C_20
REMARK    6  A    between atoms: N_12  and  C_16
REMARK    7  A    between atoms: N_13  and  C_22
REMARK    8  A    between atoms: C_15  and  C_21
REMARK    9  A    between atoms: C_22  and  C_23
REMARK   10  A    between atoms: C_22  and  C_26
REMARK   11  A    between atoms: C_23  and  C_25
REMARK   12  A    between atoms: C_25  and  C_29
REMARK   13  A    between atoms: C_25  and  C_30
REMARK   14  A    between atoms: C_31  and  C_34
REMARK                            x       y       z     vdW  Elec       q    Type
REMARK                         _______ _______ _______ _____ _____    ______ ____
ROOT
ATOM     15  C   UNL     1      -0.334   2.625  24.674  0.00  0.00    +0.145 C 
ATOM     16  C   UNL     1      -2.867   2.597  24.806  0.00  0.00    +0.111 C 
ATOM     17  C   UNL     1      -1.627   2.060  24.084  0.00  0.00    +0.067 C 
ATOM     18  C   UNL     1      -2.893   4.128  24.855  0.00  0.00    +0.162 C 
ATOM     19  C   UNL     1      -0.358   4.152  24.697  0.00  0.00    +0.078 C 
ATOM     20  C   UNL     1      -1.589   4.700  25.423  0.00  0.00    +0.148 C 
ENDROOT
BRANCH  15  21
ATOM      8  O   UNL     1       1.623   2.915  23.335  0.00  0.00    -0.273 OA
ATOM     13  N   UNL     1       0.954   0.757  23.900  0.00  0.00    -0.302 N 
ATOM     21  C   UNL     1       0.858   2.139  23.902  0.00  0.00    +0.245 C 
ATOM     39  H   UNL     1       0.315   0.208  24.466  0.00  0.00    +0.150 HD
BRANCH  13  22
ATOM     22  C   UNL     1       2.000   0.038  23.208  0.00  0.00    +0.159 C 
BRANCH  22  26
ATOM     11  O   UNL     1       2.228  -0.325  20.815  0.00  0.00    -0.274 OA
ATOM     14  N   UNL     1       0.129  -0.410  21.743  0.00  0.00    -0.328 N 
ATOM     26  C   UNL     1       1.496  -0.231  21.797  0.00  0.00    +0.231 C 
ATOM     40  H   UNL     1      -0.462  -0.352  22.566  0.00  0.00    +0.145 HD
ATOM     41  H   UNL     1      -0.335  -0.611  20.863  0.00  0.00    +0.145 HD
ENDBRANCH  22  26
BRANCH  22  23
ATOM     23  C   UNL     1       3.313   0.827  23.162  0.00  0.00    +0.034 C 
BRANCH  23  25
ATOM     25  C   UNL     1       4.590  -0.037  23.212  0.00  0.00    -0.015 C 
ATOM     29  C   UNL     1       4.257  -1.420  23.778  0.00  0.00    +0.007 C 
ATOM     30  C   UNL     1       5.698   0.608  24.048  0.00  0.00    +0.007 C 
ENDBRANCH  23  25
ENDBRANCH  22  23
ENDBRANCH  13  22
ENDBRANCH  15  21
BRANCH  15   5
ATOM      5  O   UNL     1      -0.137   2.142  25.997  0.00  0.00    -0.379 OA
ATOM     36  H   UNL     1      -0.820   2.515  26.577  0.00  0.00    +0.211 HD
ENDBRANCH  15   5
BRANCH  18   6
ATOM      6  O   UNL     1      -3.973   4.522  25.704  0.00  0.00    -0.388 OA
ATOM     37  H   UNL     1      -4.284   5.396  25.412  0.00  0.00    +0.210 HD
ENDBRANCH  18   6
BRANCH  20   7
ATOM      7  O   UNL     1      -1.582   6.119  25.273  0.00  0.00    -0.389 OA
ATOM     38  H   UNL     1      -2.348   6.360  24.724  0.00  0.00    +0.210 HD
ENDBRANCH  20   7
BRANCH  16  12
ATOM     12  N   UNL     1      -4.078   2.112  24.088  0.00  0.00    -0.184 NA
ATOM     35  H   UNL     1      -4.386   2.642  23.265  0.00  0.00    +0.148 HD
BRANCH  12   1
ATOM      1  S   UNL     1      -5.102   0.991  24.839  0.00  0.00    +0.059 S 
ATOM      9  O   UNL     1      -6.336   0.879  24.084  0.00  0.00    -0.153 OA
ATOM     10  O   UNL     1      -5.140   1.277  26.260  0.00  0.00    -0.153 OA
BRANCH   1  24
ATOM     24  C   UNL     1      -4.204  -0.519  24.640  0.00  0.00    +0.106 A 
ATOM     27  C   UNL     1      -2.900  -0.624  25.123  0.00  0.00    +0.041 A 
ATOM     28  C   UNL     1      -4.799  -1.605  23.998  0.00  0.00    +0.028 A 
ATOM     31  C   UNL     1      -2.191  -1.814  24.967  0.00  0.00    +0.057 A 
ATOM     32  C   UNL     1      -4.091  -2.797  23.841  0.00  0.00    +0.002 A 
ATOM     33  C   UNL     1      -2.786  -2.901  24.326  0.00  0.00    +0.012 A 
BRANCH  31  34
ATOM      2  F   UNL     1      -0.425  -3.207  25.783  0.00  0.00    -0.166 F 
ATOM      3  F   UNL     1       0.150  -1.478  24.608  0.00  0.00    -0.166 F 
ATOM      4  F   UNL     1      -0.603  -1.213  26.631  0.00  0.00    -0.166 F 
ATOM     34  C   UNL     1      -0.797  -1.927  25.484  0.00  0.00    +0.417 C 
ENDBRANCH  31  34
ENDBRANCH   1  24
ENDBRANCH  12   1
ENDBRANCH  16  12
TORSDOF 12
ENDMDL
MODEL 4
REMARK VINA RESULT:      -2.4      1.510      2.156
REMARK  Name = 7134479
REMARK  14 active torsions:
REMARK  status: ('A' for Active; 'I' for Inactive)
REMARK    1  A    between atoms: S_1  and  N_12
REMARK    2  A    between atoms: S_1  and  C_24
REMARK    3  A    between atoms: O_5  and  C_15
REMARK    4  A    between atoms: O_6  and  C_18
REMARK    5  A    between atoms: O_7  and  C_20
REMARK    6  A    between atoms: N_12  and  C_16
REMARK    7  A    between atoms: N_13  and  C_22
REMARK    8  A    between atoms: C_15  and  C_21
REMARK    9  A    between atoms: C_22  and  C_23
REMARK   10  A    between atoms: C_22  and  C_26
REMARK   11  A    between atoms: C_23  and  C_25
REMARK   12  A    between atoms: C_25  and  C_29
REMARK   13  A    between atoms: C_25  and  C_30
REMARK   14  A    between atoms: C_31  and  C_34
REMARK                            x       y       z     vdW  Elec       q    Type
REMARK                         _______ _______ _______ _____ _____    ______ ____
ROOT
ATOM     15  C   UNL     1      -0.422   1.636  24.763  0.00  0.00    +0.145 C 
ATOM     16  C   UNL     1      -2.747   2.648  24.843  0.00  0.00    +0.111 C 
ATOM     17  C   UNL     1      -1.871   1.521  24.287  0.00  0.00    +0.067 C 
ATOM     18  C   UNL     1      -2.166   4.035  24.549  0.00  0.00    +0.162 C 
ATOM     19  C   UNL     1       0.157   3.013  24.443  0.00  0.00    +0.078 C 
ATOM     20  C   UNL     1      -0.706   4.146  25.002  0.00  0.00    +0.148 C 
ENDROOT
BRANCH  15  21
ATOM      8  O   UNL     1       0.016  -0.587  24.008  0.00  0.00    -0.273 OA
ATOM     13  N   UNL     1       1.681   1.026  23.789  0.00  0.00    -0.302 N 
ATOM     21  C   UNL     1       0.425   0.563  24.144  0.00  0.00    +0.245 C 
ATOM     39  H   UNL     1       1.895   2.014  23.871  0.00  0.00    +0.150 HD
BRANCH  13  22
ATOM     22  C   UNL     1       2.695   0.184  23.195  0.00  0.00    +0.159 C 
BRANCH  22  26
ATOM     11  O   UNL     1       1.289  -0.430  21.308  0.00  0.00    -0.274 OA
ATOM     14  N   UNL     1       3.327   0.543  20.888  0.00  0.00    -0.328 N 
ATOM     26  C   UNL     1       2.347   0.041  21.719  0.00  0.00    +0.231 C 
ATOM     40  H   UNL     1       4.187   0.951  21.243  0.00  0.00    +0.145 HD
ATOM     41  H   UNL     1       3.215   0.523  19.880  0.00  0.00    +0.145 HD
ENDBRANCH  22  26
BRANCH  22  23
ATOM     23  C   UNL     1       4.103   0.770  23.354  0.00  0.00    +0.034 C 
BRANCH  23  25
ATOM     25  C   UNL     1       5.147  -0.203  23.941  0.00  0.00    -0.015 C 
ATOM     29  C   UNL     1       6.437  -0.134  23.119  0.00  0.00    +0.007 C 
ATOM     30  C   UNL     1       4.639  -1.646  23.982  0.00  0.00    +0.007 C 
ENDBRANCH  23  25
ENDBRANCH  22  23
ENDBRANCH  13  22
ENDBRANCH  15  21
BRANCH  15   5
ATOM      5  O   UNL     1      -0.339   1.409  26.164  0.00  0.00    -0.379 OA
ATOM     36  H   UNL     1      -0.793   0.578  26.379  0.00  0.00    +0.211 HD
ENDBRANCH  15   5
BRANCH  18   6
ATOM      6  O   UNL     1      -2.941   4.998  25.265  0.00  0.00    -0.388 OA
ATOM     37  H   UNL     1      -2.384   5.373  25.969  0.00  0.00    +0.210 HD
ENDBRANCH  18   6
BRANCH  20   7
ATOM      7  O   UNL     1      -0.152   5.378  24.538  0.00  0.00    -0.389 OA
ATOM     38  H   UNL     1       0.622   5.579  25.091  0.00  0.00    +0.210 HD
ENDBRANCH  20   7
BRANCH  16  12
ATOM     12  N   UNL     1      -4.098   2.545  24.227  0.00  0.00    -0.184 NA
ATOM     35  H   UNL     1      -4.332   3.212  23.482  0.00  0.00    +0.148 HD
BRANCH  12   1
ATOM      1  S   UNL     1      -5.304   1.640  25.000  0.00  0.00    +0.059 S 
ATOM      9  O   UNL     1      -6.382   1.372  24.067  0.00  0.00    -0.153 OA
ATOM     10  O   UNL     1      -5.586   2.248  26.286  0.00  0.00    -0.153 OA
BRANCH   1  24
ATOM     24  C   UNL     1      -4.470   0.115  25.322  0.00  0.00    +0.106 A 
ATOM     27  C   UNL     1      -4.455  -0.889  24.354  0.00  0.00    +0.041 A 
ATOM     28  C   UNL     1      -3.828  -0.084  26.544  0.00  0.00    +0.028 A 
ATOM     31  C   UNL     1      -3.797  -2.093  24.608  0.00  0.00    +0.057 A 
ATOM     32  C   UNL     1      -3.169  -1.287  26.798  0.00  0.00    +0.002 A 
ATOM     33  C   UNL     1      -3.154  -2.292  25.830  0.00  0.00    +0.012 A 
BRANCH  31  34
ATOM      2  F   UNL     1      -4.458  -2.840  22.434  0.00  0.00    -0.166 F 
ATOM      3  F   UNL     1      -2.524  -3.503  23.155  0.00  0.00    -0.166 F 
ATOM      4  F   UNL     1      -4.344  -4.329  24.013  0.00  0.00    -0.166 F 
ATOM     34  C   UNL     1      -3.780  -3.166  23.574  0.00  0.00    +0.417 C 
ENDBRANCH  31  34
ENDBRANCH   1  24
ENDBRANCH  12   1
ENDBRANCH  16  12
TORSDOF 12
ENDMDL
MODEL 5
REMARK VINA RESULT:      -0.4      1.678      2.208
REMARK  Name = 7134479
REMARK  14 active torsions:
REMARK  status: ('A' for Active; 'I' for Inactive)
REMARK    1  A    between atoms: S_1  and  N_12
REMARK    2  A    between atoms: S_1  and  C_24
REMARK    3  A    between atoms: O_5  and  C_15
REMARK    4  A    between atoms: O_6  and  C_18
REMARK    5  A    between atoms: O_7  and  C_20
REMARK    6  A    between atoms: N_12  and  C_16
REMARK    7  A    between atoms: N_13  and  C_22
REMARK    8  A    between atoms: C_15  and  C_21
REMARK    9  A    between atoms: C_22  and  C_23
REMARK   10  A    between atoms: C_22  and  C_26
REMARK   11  A    between atoms: C_23  and  C_25
REMARK   12  A    between atoms: C_25  and  C_29
REMARK   13  A    between atoms: C_25  and  C_30
REMARK   14  A    between atoms: C_31  and  C_34
REMARK                            x       y       z     vdW  Elec       q    Type
REMARK                         _______ _______ _______ _____ _____    ______ ____
ROOT
ATOM     15  C   UNL     1      -0.311   2.426  25.423  0.00  0.00    +0.145 C 
ATOM     16  C   UNL     1      -2.248   3.602  26.564  0.00  0.00    +0.111 C 
ATOM     17  C   UNL     1      -1.691   2.266  26.065  0.00  0.00    +0.067 C 
ATOM     18  C   UNL     1      -2.259   4.672  25.468  0.00  0.00    +0.162 C 
ATOM     19  C   UNL     1      -0.337   3.477  24.315  0.00  0.00    +0.078 C 
ATOM     20  C   UNL     1      -0.885   4.820  24.805  0.00  0.00    +0.148 C 
ENDROOT
BRANCH  15  21
ATOM      8  O   UNL     1      -0.367   0.052  25.168  0.00  0.00    -0.273 OA
ATOM     13  N   UNL     1       1.288   1.265  24.067  0.00  0.00    -0.302 N 
ATOM     21  C   UNL     1       0.177   1.115  24.880  0.00  0.00    +0.245 C 
ATOM     39  H   UNL     1       1.614   2.195  23.828  0.00  0.00    +0.150 HD
BRANCH  13  22
ATOM     22  C   UNL     1       1.963   0.152  23.439  0.00  0.00    +0.159 C 
BRANCH  22  26
ATOM     11  O   UNL     1       1.493  -0.227  21.084  0.00  0.00    -0.274 OA
ATOM     14  N   UNL     1      -0.123  -0.764  22.626  0.00  0.00    -0.328 N 
ATOM     26  C   UNL     1       1.111  -0.273  22.251  0.00  0.00    +0.231 C 
ATOM     40  H   UNL     1      -0.416  -0.818  23.597  0.00  0.00    +0.145 HD
ATOM     41  H   UNL     1      -0.784  -1.096  21.932  0.00  0.00    +0.145 HD
ENDBRANCH  22  26
BRANCH  22  23
ATOM     23  C   UNL     1       3.377   0.518  22.974  0.00  0.00    +0.034 C 
BRANCH  23  25
ATOM     25  C   UNL     1       4.516  -0.135  23.786  0.00  0.00    -0.015 C 
ATOM     29  C   UNL     1       5.866   0.210  23.153  0.00  0.00    +0.007 C 
ATOM     30  C   UNL     1       4.365  -1.654  23.881  0.00  0.00    +0.007 C 
ENDBRANCH  23  25
ENDBRANCH  22  23
ENDBRANCH  13  22
ENDBRANCH  15  21
BRANCH  15   5
ATOM      5  O   UNL     1       0.652   2.801  26.400  0.00  0.00    -0.379 OA
ATOM     36  H   UNL     1       0.628   3.765  26.517  0.00  0.00    +0.211 HD
ENDBRANCH  15   5
BRANCH  18   6
ATOM      6  O   UNL     1      -2.610   5.919  26.073  0.00  0.00    -0.388 OA
ATOM     37  H   UNL     1      -1.864   6.208  26.627  0.00  0.00    +0.210 HD
ENDBRANCH  18   6
BRANCH  20   7
ATOM      7  O   UNL     1      -0.988   5.682  23.672  0.00  0.00    -0.389 OA
ATOM     38  H   UNL     1      -1.934   5.851  23.517  0.00  0.00    +0.210 HD
ENDBRANCH  20   7
BRANCH  16  12
ATOM     12  N   UNL     1      -3.640   3.383  27.045  0.00  0.00    -0.184 NA
ATOM     35  H   UNL     1      -3.764   3.070  28.014  0.00  0.00    +0.148 HD
BRANCH  12   1
ATOM      1  S   UNL     1      -4.905   3.275  25.924  0.00  0.00    +0.059 S 
ATOM      9  O   UNL     1      -5.002   4.516  25.179  0.00  0.00    -0.153 OA
ATOM     10  O   UNL     1      -6.072   2.733  26.593  0.00  0.00    -0.153 OA
BRANCH   1  24
ATOM     24  C   UNL     1      -4.315   2.024  24.823  0.00  0.00    +0.106 A 
ATOM     27  C   UNL     1      -3.642   2.384  23.655  0.00  0.00    +0.041 A 
ATOM     28  C   UNL     1      -4.524   0.677  25.120  0.00  0.00    +0.028 A 
ATOM     31  C   UNL     1      -3.176   1.398  22.786  0.00  0.00    +0.057 A 
ATOM     32  C   UNL     1      -4.058  -0.310  24.252  0.00  0.00    +0.002 A 
ATOM     33  C   UNL     1      -3.384   0.050  23.084  0.00  0.00    +0.012 A 
BRANCH  31  34
ATOM      2  F   UNL     1      -2.431   0.795  20.594  0.00  0.00    -0.166 F 
ATOM      3  F   UNL     1      -2.996   2.865  20.906  0.00  0.00    -0.166 F 
ATOM      4  F   UNL     1      -1.149   2.104  21.764  0.00  0.00    -0.166 F 
ATOM     34  C   UNL     1      -2.456   1.782  21.539  0.00  0.00    +0.417 C 
ENDBRANCH  31  34
ENDBRANCH   1  24
ENDBRANCH  12   1
ENDBRANCH  16  12
TORSDOF 12
ENDMDL
