MODEL 1
REMARK VINA RESULT:      10.7      0.000      0.000
REMARK  Name = 45360614
REMARK  12 active torsions:
REMARK  status: ('A' for Active; 'I' for Inactive)
REMARK    1  A    between atoms: S_1  and  N_7
REMARK    2  A    between atoms: S_1  and  C_16
REMARK    3  A    between atoms: O_4  and  C_17
REMARK    4  A    between atoms: O_4  and  C_32
REMARK    5  A    between atoms: O_6  and  C_35
REMARK    6  A    between atoms: O_6  and  C_38
REMARK    7  A    between atoms: N_8  and  C_18
REMARK    8  A    between atoms: N_10  and  C_25
REMARK    9  A    between atoms: N_10  and  C_36
REMARK   10  A    between atoms: N_10  and  C_37
REMARK   11  A    between atoms: C_11  and  C_17
REMARK   12  A    between atoms: C_18  and  C_23
REMARK                            x       y       z     vdW  Elec       q    Type
REMARK                         _______ _______ _______ _____ _____    ______ ____
ROOT
ATOM      7  N   UNL     1      -4.102   2.260  25.511  0.00  0.00    -0.157 NA
ATOM      8  N   UNL     1      -0.897   3.234  23.845  0.00  0.00    -0.328 N 
ATOM      9  N   UNL     1      -0.754   4.728  25.499  0.00  0.00    -0.240 NA
ATOM     11  C   UNL     1      -4.323   3.608  26.150  0.00  0.00    +0.194 C 
ATOM     12  C   UNL     1      -3.198   2.234  24.303  0.00  0.00    +0.165 C 
ATOM     13  C   UNL     1      -2.995   4.264  26.585  0.00  0.00    +0.089 C 
ATOM     14  C   UNL     1      -2.053   3.129  24.559  0.00  0.00    +0.057 A 
ATOM     15  C   UNL     1      -1.943   4.058  25.564  0.00  0.00    +0.066 A 
ATOM     19  C   UNL     1      -0.146   4.209  24.451  0.00  0.00    +0.200 A 
ENDROOT
BRANCH   7   1
ATOM      1  S   UNL     1      -5.457   1.216  25.435  0.00  0.00    +0.062 S 
ATOM      2  O   UNL     1      -6.340   1.665  24.380  0.00  0.00    -0.153 OA
ATOM      3  O   UNL     1      -5.952   0.989  26.776  0.00  0.00    -0.153 OA
BRANCH   1  16
ATOM     16  C   UNL     1      -4.673  -0.268  24.887  0.00  0.00    +0.113 A 
ATOM     20  C   UNL     1      -3.335  -0.576  25.185  0.00  0.00    +0.010 A 
ATOM     21  C   UNL     1      -5.453  -1.142  24.130  0.00  0.00    +0.029 A 
ATOM     22  C   UNL     1      -2.782  -1.788  24.707  0.00  0.00    +0.005 A 
ATOM     24  C   UNL     1      -2.534   0.292  25.945  0.00  0.00    +0.010 A 
ATOM     25  C   UNL     1      -1.445  -2.096  25.004  0.00  0.00    +0.037 A 
ATOM     26  C   UNL     1      -4.909  -2.333  23.660  0.00  0.00    +0.003 A 
ATOM     27  C   UNL     1      -3.582  -2.656  23.946  0.00  0.00    +0.010 A 
ATOM     28  C   UNL     1      -1.208  -0.031  26.231  0.00  0.00    +0.002 A 
ATOM     29  C   UNL     1      -0.663  -1.222  25.761  0.00  0.00    +0.024 A 
BRANCH  25  10
ATOM     10  N   UNL     1      -0.842  -3.295  24.552  0.00  0.00    -0.336 N 
ATOM     36  C   UNL     1       0.171  -3.948  25.353  0.00  0.00    +0.129 C 
ATOM     37  C   UNL     1      -1.227  -3.871  23.282  0.00  0.00    +0.129 C 
ENDBRANCH  25  10
ENDBRANCH   1  16
ENDBRANCH   7   1
BRANCH  11  17
ATOM      5  O   UNL     1      -6.098   5.098  25.508  0.00  0.00    -0.249 OA
ATOM     17  C   UNL     1      -5.093   4.472  25.202  0.00  0.00    +0.326 C 
BRANCH  17   4
ATOM      4  O   UNL     1      -4.499   4.442  23.975  0.00  0.00    -0.467 OA
ATOM     32  C   UNL     1      -4.169   5.718  23.421  0.00  0.00    +0.280 C 
ENDBRANCH  17   4
ENDBRANCH  11  17
BRANCH   8  18
ATOM     18  C   UNL     1      -0.523   2.479  22.673  0.00  0.00    +0.158 C 
BRANCH  18  23
ATOM     23  C   UNL     1       0.628   1.533  22.914  0.00  0.00    -0.028 A 
ATOM     30  C   UNL     1       1.905   2.036  23.158  0.00  0.00    +0.009 A 
ATOM     31  C   UNL     1       0.412   0.155  22.892  0.00  0.00    +0.009 A 
ATOM     33  C   UNL     1       2.968   1.161  23.380  0.00  0.00    +0.046 A 
ATOM     34  C   UNL     1       1.476  -0.720  23.115  0.00  0.00    +0.046 A 
ATOM     35  C   UNL     1       2.753  -0.217  23.359  0.00  0.00    +0.120 A 
BRANCH  35   6
ATOM      6  O   UNL     1       3.791  -1.071  23.577  0.00  0.00    -0.495 OA
ATOM     38  C   UNL     1       5.075  -0.489  23.797  0.00  0.00    +0.277 C 
ENDBRANCH  35   6
ENDBRANCH  18  23
ENDBRANCH   8  18
TORSDOF 8
ENDMDL
MODEL 2
REMARK VINA RESULT:      11.1      2.591      4.985
REMARK  Name = 45360614
REMARK  12 active torsions:
REMARK  status: ('A' for Active; 'I' for Inactive)
REMARK    1  A    between atoms: S_1  and  N_7
REMARK    2  A    between atoms: S_1  and  C_16
REMARK    3  A    between atoms: O_4  and  C_17
REMARK    4  A    between atoms: O_4  and  C_32
REMARK    5  A    between atoms: O_6  and  C_35
REMARK    6  A    between atoms: O_6  and  C_38
REMARK    7  A    between atoms: N_8  and  C_18
REMARK    8  A    between atoms: N_10  and  C_25
REMARK    9  A    between atoms: N_10  and  C_36
REMARK   10  A    between atoms: N_10  and  C_37
REMARK   11  A    between atoms: C_11  and  C_17
REMARK   12  A    between atoms: C_18  and  C_23
REMARK                            x       y       z     vdW  Elec       q    Type
REMARK                         _______ _______ _______ _____ _____    ______ ____
ROOT
ATOM      7  N   UNL     1      -3.915  -0.331  25.906  0.00  0.00    -0.157 NA
ATOM      8  N   UNL     1      -4.399   3.362  25.563  0.00  0.00    -0.328 N 
ATOM      9  N   UNL     1      -6.341   2.791  24.618  0.00  0.00    -0.240 NA
ATOM     11  C   UNL     1      -4.813  -0.682  24.746  0.00  0.00    +0.194 C 
ATOM     12  C   UNL     1      -3.345   1.066  25.911  0.00  0.00    +0.165 C 
ATOM     13  C   UNL     1      -6.015   0.279  24.639  0.00  0.00    +0.089 C 
ATOM     14  C   UNL     1      -4.404   2.001  25.485  0.00  0.00    +0.057 A 
ATOM     15  C   UNL     1      -5.602   1.677  24.899  0.00  0.00    +0.066 A 
ATOM     19  C   UNL     1      -5.588   3.792  25.029  0.00  0.00    +0.200 A 
ENDROOT
BRANCH   7   1
ATOM      1  S   UNL     1      -2.850  -1.558  26.450  0.00  0.00    +0.062 S 
ATOM      2  O   UNL     1      -3.537  -2.831  26.409  0.00  0.00    -0.153 OA
ATOM      3  O   UNL     1      -2.189  -1.106  27.655  0.00  0.00    -0.153 OA
BRANCH   1  16
ATOM     16  C   UNL     1      -1.666  -1.541  25.142  0.00  0.00    +0.113 A 
ATOM     20  C   UNL     1      -0.757  -0.486  24.951  0.00  0.00    +0.010 A 
ATOM     21  C   UNL     1      -1.667  -2.642  24.284  0.00  0.00    +0.029 A 
ATOM     22  C   UNL     1       0.161  -0.550  23.876  0.00  0.00    +0.005 A 
ATOM     24  C   UNL     1      -0.740   0.630  25.803  0.00  0.00    +0.010 A 
ATOM     25  C   UNL     1       1.069   0.504  23.685  0.00  0.00    +0.037 A 
ATOM     26  C   UNL     1      -0.765  -2.703  23.228  0.00  0.00    +0.003 A 
ATOM     27  C   UNL     1       0.145  -1.666  23.023  0.00  0.00    +0.010 A 
ATOM     28  C   UNL     1       0.168   1.668  25.599  0.00  0.00    +0.002 A 
ATOM     29  C   UNL     1       1.072   1.606  24.542  0.00  0.00    +0.024 A 
BRANCH  25  10
ATOM     10  N   UNL     1       2.010   0.491  22.627  0.00  0.00    -0.336 N 
ATOM     36  C   UNL     1       1.717  -0.220  21.401  0.00  0.00    +0.129 C 
ATOM     37  C   UNL     1       3.273   1.181  22.766  0.00  0.00    +0.129 C 
ENDBRANCH  25  10
ENDBRANCH   1  16
ENDBRANCH   7   1
BRANCH  11  17
ATOM      5  O   UNL     1      -3.333   0.242  23.091  0.00  0.00    -0.249 OA
ATOM     17  C   UNL     1      -3.997  -0.704  23.493  0.00  0.00    +0.326 C 
BRANCH  17   4
ATOM      4  O   UNL     1      -4.116  -1.923  22.893  0.00  0.00    -0.467 OA
ATOM     32  C   UNL     1      -4.875  -2.894  23.619  0.00  0.00    +0.280 C 
ENDBRANCH  17   4
ENDBRANCH  11  17
BRANCH   8  18
ATOM     18  C   UNL     1      -3.353   4.203  26.093  0.00  0.00    +0.158 C 
BRANCH  18  23
ATOM     23  C   UNL     1      -2.195   4.386  25.144  0.00  0.00    -0.028 A 
ATOM     30  C   UNL     1      -2.039   3.524  24.059  0.00  0.00    +0.009 A 
ATOM     31  C   UNL     1      -1.280   5.418  25.352  0.00  0.00    +0.009 A 
ATOM     33  C   UNL     1      -0.968   3.693  23.181  0.00  0.00    +0.046 A 
ATOM     34  C   UNL     1      -0.208   5.587  24.474  0.00  0.00    +0.046 A 
ATOM     35  C   UNL     1      -0.053   4.726  23.389  0.00  0.00    +0.120 A 
BRANCH  35   6
ATOM      6  O   UNL     1       0.992   4.891  22.533  0.00  0.00    -0.495 OA
ATOM     38  C   UNL     1       0.930   6.002  21.640  0.00  0.00    +0.277 C 
ENDBRANCH  35   6
ENDBRANCH  18  23
ENDBRANCH   8  18
TORSDOF 8
ENDMDL
MODEL 3
REMARK VINA RESULT:      11.6      2.124      5.100
REMARK  Name = 45360614
REMARK  12 active torsions:
REMARK  status: ('A' for Active; 'I' for Inactive)
REMARK    1  A    between atoms: S_1  and  N_7
REMARK    2  A    between atoms: S_1  and  C_16
REMARK    3  A    between atoms: O_4  and  C_17
REMARK    4  A    between atoms: O_4  and  C_32
REMARK    5  A    between atoms: O_6  and  C_35
REMARK    6  A    between atoms: O_6  and  C_38
REMARK    7  A    between atoms: N_8  and  C_18
REMARK    8  A    between atoms: N_10  and  C_25
REMARK    9  A    between atoms: N_10  and  C_36
REMARK   10  A    between atoms: N_10  and  C_37
REMARK   11  A    between atoms: C_11  and  C_17
REMARK   12  A    between atoms: C_18  and  C_23
REMARK                            x       y       z     vdW  Elec       q    Type
REMARK                         _______ _______ _______ _____ _____    ______ ____
ROOT
ATOM      7  N   UNL     1      -3.559   1.055  23.695  0.00  0.00    -0.157 NA
ATOM      8  N   UNL     1      -1.995  -2.183  24.727  0.00  0.00    -0.328 N 
ATOM      9  N   UNL     1      -3.938  -3.070  24.071  0.00  0.00    -0.240 NA
ATOM     11  C   UNL     1      -4.976   0.578  23.899  0.00  0.00    +0.194 C 
ATOM     12  C   UNL     1      -2.487   0.304  24.446  0.00  0.00    +0.165 C 
ATOM     13  C   UNL     1      -5.141  -0.910  23.523  0.00  0.00    +0.089 C 
ATOM     14  C   UNL     1      -2.800  -1.137  24.385  0.00  0.00    +0.057 A 
ATOM     15  C   UNL     1      -3.985  -1.707  23.991  0.00  0.00    +0.066 A 
ATOM     19  C   UNL     1      -2.725  -3.326  24.520  0.00  0.00    +0.200 A 
ENDROOT
BRANCH   7   1
ATOM      1  S   UNL     1      -3.328   2.748  23.588  0.00  0.00    +0.062 S 
ATOM      2  O   UNL     1      -4.620   3.401  23.564  0.00  0.00    -0.153 OA
ATOM      3  O   UNL     1      -2.335   3.023  22.572  0.00  0.00    -0.153 OA
BRANCH   1  16
ATOM     16  C   UNL     1      -2.594   3.060  25.162  0.00  0.00    +0.113 A 
ATOM     20  C   UNL     1      -1.257   2.743  25.455  0.00  0.00    +0.010 A 
ATOM     21  C   UNL     1      -3.414   3.646  26.127  0.00  0.00    +0.029 A 
ATOM     22  C   UNL     1      -0.746   3.026  26.744  0.00  0.00    +0.005 A 
ATOM     24  C   UNL     1      -0.417   2.153  24.498  0.00  0.00    +0.010 A 
ATOM     25  C   UNL     1       0.591   2.710  27.037  0.00  0.00    +0.037 A 
ATOM     26  C   UNL     1      -2.911   3.923  27.394  0.00  0.00    +0.003 A 
ATOM     27  C   UNL     1      -1.585   3.617  27.702  0.00  0.00    +0.010 A 
ATOM     28  C   UNL     1       0.908   1.845  24.805  0.00  0.00    +0.002 A 
ATOM     29  C   UNL     1       1.412   2.123  26.073  0.00  0.00    +0.024 A 
BRANCH  25  10
ATOM     10  N   UNL     1       1.153   2.972  28.310  0.00  0.00    -0.336 N 
ATOM     36  C   UNL     1       2.491   3.513  28.417  0.00  0.00    +0.129 C 
ATOM     37  C   UNL     1       0.399   2.693  29.512  0.00  0.00    +0.129 C 
ENDBRANCH  25  10
ENDBRANCH   1  16
ENDBRANCH   7   1
BRANCH  11  17
ATOM      5  O   UNL     1      -4.838   0.343  26.289  0.00  0.00    -0.249 OA
ATOM     17  C   UNL     1      -5.378   0.849  25.314  0.00  0.00    +0.326 C 
BRANCH  17   4
ATOM      4  O   UNL     1      -6.418   1.731  25.331  0.00  0.00    -0.467 OA
ATOM     32  C   UNL     1      -6.534   2.521  26.518  0.00  0.00    +0.280 C 
ENDBRANCH  17   4
ENDBRANCH  11  17
BRANCH   8  18
ATOM     18  C   UNL     1      -0.641  -2.118  25.220  0.00  0.00    +0.158 C 
BRANCH  18  23
ATOM     23  C   UNL     1       0.322  -1.490  24.243  0.00  0.00    -0.028 A 
ATOM     30  C   UNL     1      -0.160  -0.871  23.090  0.00  0.00    +0.009 A 
ATOM     31  C   UNL     1       1.694  -1.528  24.494  0.00  0.00    +0.009 A 
ATOM     33  C   UNL     1       0.731  -0.291  22.187  0.00  0.00    +0.046 A 
ATOM     34  C   UNL     1       2.584  -0.948  23.591  0.00  0.00    +0.046 A 
ATOM     35  C   UNL     1       2.103  -0.329  22.438  0.00  0.00    +0.120 A 
BRANCH  35   6
ATOM      6  O   UNL     1       2.971   0.238  21.556  0.00  0.00    -0.495 OA
ATOM     38  C   UNL     1       4.165   0.805  22.095  0.00  0.00    +0.277 C 
ENDBRANCH  35   6
ENDBRANCH  18  23
ENDBRANCH   8  18
TORSDOF 8
ENDMDL
MODEL 4
REMARK VINA RESULT:      11.9      2.711      5.353
REMARK  Name = 45360614
REMARK  12 active torsions:
REMARK  status: ('A' for Active; 'I' for Inactive)
REMARK    1  A    between atoms: S_1  and  N_7
REMARK    2  A    between atoms: S_1  and  C_16
REMARK    3  A    between atoms: O_4  and  C_17
REMARK    4  A    between atoms: O_4  and  C_32
REMARK    5  A    between atoms: O_6  and  C_35
REMARK    6  A    between atoms: O_6  and  C_38
REMARK    7  A    between atoms: N_8  and  C_18
REMARK    8  A    between atoms: N_10  and  C_25
REMARK    9  A    between atoms: N_10  and  C_36
REMARK   10  A    between atoms: N_10  and  C_37
REMARK   11  A    between atoms: C_11  and  C_17
REMARK   12  A    between atoms: C_18  and  C_23
REMARK                            x       y       z     vdW  Elec       q    Type
REMARK                         _______ _______ _______ _____ _____    ______ ____
ROOT
ATOM      7  N   UNL     1      -3.088  -0.233  25.464  0.00  0.00    -0.157 NA
ATOM      8  N   UNL     1      -4.204   3.309  25.013  0.00  0.00    -0.328 N 
ATOM      9  N   UNL     1      -6.257   2.430  25.062  0.00  0.00    -0.240 NA
ATOM     11  C   UNL     1      -4.326  -0.833  24.847  0.00  0.00    +0.194 C 
ATOM     12  C   UNL     1      -2.778   1.195  25.089  0.00  0.00    +0.165 C 
ATOM     13  C   UNL     1      -5.590  -0.011  25.180  0.00  0.00    +0.089 C 
ATOM     14  C   UNL     1      -4.042   1.957  25.075  0.00  0.00    +0.057 A 
ATOM     15  C   UNL     1      -5.314   1.441  25.100  0.00  0.00    +0.066 A 
ATOM     19  C   UNL     1      -5.556   3.544  25.008  0.00  0.00    +0.200 A 
ENDROOT
BRANCH   7   1
ATOM      1  S   UNL     1      -1.727  -1.263  25.607  0.00  0.00    +0.062 S 
ATOM      2  O   UNL     1      -2.012  -2.517  24.945  0.00  0.00    -0.153 OA
ATOM      3  O   UNL     1      -1.257  -1.233  26.976  0.00  0.00    -0.153 OA
BRANCH   1  16
ATOM     16  C   UNL     1      -0.565  -0.380  24.615  0.00  0.00    +0.113 A 
ATOM     20  C   UNL     1       0.745  -0.835  24.390  0.00  0.00    +0.010 A 
ATOM     21  C   UNL     1      -1.010   0.816  24.050  0.00  0.00    +0.029 A 
ATOM     22  C   UNL     1       1.615  -0.066  23.581  0.00  0.00    +0.005 A 
ATOM     24  C   UNL     1       1.211  -2.035  24.951  0.00  0.00    +0.010 A 
ATOM     25  C   UNL     1       2.924  -0.520  23.356  0.00  0.00    +0.037 A 
ATOM     26  C   UNL     1      -0.154   1.572  23.256  0.00  0.00    +0.003 A 
ATOM     27  C   UNL     1       1.150   1.135  23.021  0.00  0.00    +0.010 A 
ATOM     28  C   UNL     1       2.514  -2.472  24.717  0.00  0.00    +0.002 A 
ATOM     29  C   UNL     1       3.370  -1.716  23.921  0.00  0.00    +0.024 A 
BRANCH  25  10
ATOM     10  N   UNL     1       3.836   0.210  22.554  0.00  0.00    -0.336 N 
ATOM     36  C   UNL     1       3.546   0.451  21.158  0.00  0.00    +0.129 C 
ATOM     37  C   UNL     1       5.066   0.712  23.124  0.00  0.00    +0.129 C 
ENDBRANCH  25  10
ENDBRANCH   1  16
ENDBRANCH   7   1
BRANCH  11  17
ATOM      5  O   UNL     1      -3.596  -0.107  22.673  0.00  0.00    -0.249 OA
ATOM     17  C   UNL     1      -4.115  -0.967  23.373  0.00  0.00    +0.326 C 
BRANCH  17   4
ATOM      4  O   UNL     1      -4.587  -2.175  22.953  0.00  0.00    -0.467 OA
ATOM     32  C   UNL     1      -4.328  -3.275  23.831  0.00  0.00    +0.280 C 
ENDBRANCH  17   4
ENDBRANCH  11  17
BRANCH   8  18
ATOM     18  C   UNL     1      -3.167   4.311  24.954  0.00  0.00    +0.158 C 
BRANCH  18  23
ATOM     23  C   UNL     1      -1.879   3.877  25.610  0.00  0.00    -0.028 A 
ATOM     30  C   UNL     1      -1.912   3.149  26.798  0.00  0.00    +0.009 A 
ATOM     31  C   UNL     1      -0.655   4.204  25.025  0.00  0.00    +0.009 A 
ATOM     33  C   UNL     1      -0.722   2.748  27.404  0.00  0.00    +0.046 A 
ATOM     34  C   UNL     1       0.535   3.803  25.631  0.00  0.00    +0.046 A 
ATOM     35  C   UNL     1       0.502   3.075  26.820  0.00  0.00    +0.120 A 
BRANCH  35   6
ATOM      6  O   UNL     1       1.664   2.684  27.411  0.00  0.00    -0.495 OA
ATOM     38  C   UNL     1       1.688   2.652  28.837  0.00  0.00    +0.277 C 
ENDBRANCH  35   6
ENDBRANCH  18  23
ENDBRANCH   8  18
TORSDOF 8
ENDMDL
MODEL 5
REMARK VINA RESULT:      12.2      2.196      7.381
REMARK  Name = 45360614
REMARK  12 active torsions:
REMARK  status: ('A' for Active; 'I' for Inactive)
REMARK    1  A    between atoms: S_1  and  N_7
REMARK    2  A    between atoms: S_1  and  C_16
REMARK    3  A    between atoms: O_4  and  C_17
REMARK    4  A    between atoms: O_4  and  C_32
REMARK    5  A    between atoms: O_6  and  C_35
REMARK    6  A    between atoms: O_6  and  C_38
REMARK    7  A    between atoms: N_8  and  C_18
REMARK    8  A    between atoms: N_10  and  C_25
REMARK    9  A    between atoms: N_10  and  C_36
REMARK   10  A    between atoms: N_10  and  C_37
REMARK   11  A    between atoms: C_11  and  C_17
REMARK   12  A    between atoms: C_18  and  C_23
REMARK                            x       y       z     vdW  Elec       q    Type
REMARK                         _______ _______ _______ _____ _____    ______ ____
ROOT
ATOM      7  N   UNL     1       0.093   0.499  24.526  0.00  0.00    -0.157 NA
ATOM      8  N   UNL     1      -2.222  -2.400  24.048  0.00  0.00    -0.328 N 
ATOM      9  N   UNL     1      -0.481  -3.614  24.746  0.00  0.00    -0.240 NA
ATOM     11  C   UNL     1       1.350  -0.313  24.335  0.00  0.00    +0.194 C 
ATOM     12  C   UNL     1      -1.172  -0.078  23.940  0.00  0.00    +0.165 C 
ATOM     13  C   UNL     1       1.208  -1.735  24.919  0.00  0.00    +0.089 C 
ATOM     14  C   UNL     1      -1.182  -1.531  24.198  0.00  0.00    +0.057 A 
ATOM     15  C   UNL     1      -0.127  -2.300  24.622  0.00  0.00    +0.066 A 
ATOM     19  C   UNL     1      -1.751  -3.642  24.391  0.00  0.00    +0.200 A 
ENDROOT
BRANCH   7   1
ATOM      1  S   UNL     1       0.252   2.199  24.392  0.00  0.00    +0.062 S 
ATOM      2  O   UNL     1       1.061   2.508  23.233  0.00  0.00    -0.153 OA
ATOM      3  O   UNL     1       0.574   2.745  25.693  0.00  0.00    -0.153 OA
BRANCH   1  16
ATOM     16  C   UNL     1      -1.416   2.637  24.018  0.00  0.00    +0.113 A 
ATOM     20  C   UNL     1      -2.285   3.204  24.965  0.00  0.00    +0.010 A 
ATOM     21  C   UNL     1      -1.848   2.391  22.714  0.00  0.00    +0.029 A 
ATOM     22  C   UNL     1      -3.610   3.525  24.584  0.00  0.00    +0.005 A 
ATOM     24  C   UNL     1      -1.869   3.458  26.282  0.00  0.00    +0.010 A 
ATOM     25  C   UNL     1      -4.479   4.092  25.530  0.00  0.00    +0.037 A 
ATOM     26  C   UNL     1      -3.150   2.707  22.340  0.00  0.00    +0.003 A 
ATOM     27  C   UNL     1      -4.026   3.271  23.267  0.00  0.00    +0.010 A 
ATOM     28  C   UNL     1      -2.746   4.021  27.209  0.00  0.00    +0.002 A 
ATOM     29  C   UNL     1      -4.048   4.338  26.835  0.00  0.00    +0.024 A 
BRANCH  25  10
ATOM     10  N   UNL     1      -5.813   4.434  25.201  0.00  0.00    -0.336 N 
ATOM     36  C   UNL     1      -6.263   5.804  25.316  0.00  0.00    +0.129 C 
ATOM     37  C   UNL     1      -6.738   3.414  24.757  0.00  0.00    +0.129 C 
ENDBRANCH  25  10
ENDBRANCH   1  16
ENDBRANCH   7   1
BRANCH  11  17
ATOM      5  O   UNL     1       0.871  -0.270  21.979  0.00  0.00    -0.249 OA
ATOM     17  C   UNL     1       1.696  -0.334  22.881  0.00  0.00    +0.326 C 
BRANCH  17   4
ATOM      4  O   UNL     1       3.048  -0.433  22.735  0.00  0.00    -0.467 OA
ATOM     32  C   UNL     1       3.765   0.803  22.803  0.00  0.00    +0.280 C 
ENDBRANCH  17   4
ENDBRANCH  11  17
BRANCH   8  18
ATOM     18  C   UNL     1      -3.561  -2.091  23.607  0.00  0.00    +0.158 C 
BRANCH  18  23
ATOM     23  C   UNL     1      -4.248  -1.056  24.463  0.00  0.00    -0.028 A 
ATOM     30  C   UNL     1      -5.252  -0.256  23.919  0.00  0.00    +0.009 A 
ATOM     31  C   UNL     1      -3.880  -0.902  25.800  0.00  0.00    +0.009 A 
ATOM     33  C   UNL     1      -5.887   0.701  24.710  0.00  0.00    +0.046 A 
ATOM     34  C   UNL     1      -4.515   0.055  26.591  0.00  0.00    +0.046 A 
ATOM     35  C   UNL     1      -5.518   0.856  26.047  0.00  0.00    +0.120 A 
BRANCH  35   6
ATOM      6  O   UNL     1      -6.139   1.789  26.819  0.00  0.00    -0.495 OA
ATOM     38  C   UNL     1      -7.028   1.311  27.828  0.00  0.00    +0.277 C 
ENDBRANCH  35   6
ENDBRANCH  18  23
ENDBRANCH   8  18
TORSDOF 8
ENDMDL
MODEL 6
REMARK VINA RESULT:      12.4      2.876      6.512
REMARK  Name = 45360614
REMARK  12 active torsions:
REMARK  status: ('A' for Active; 'I' for Inactive)
REMARK    1  A    between atoms: S_1  and  N_7
REMARK    2  A    between atoms: S_1  and  C_16
REMARK    3  A    between atoms: O_4  and  C_17
REMARK    4  A    between atoms: O_4  and  C_32
REMARK    5  A    between atoms: O_6  and  C_35
REMARK    6  A    between atoms: O_6  and  C_38
REMARK    7  A    between atoms: N_8  and  C_18
REMARK    8  A    between atoms: N_10  and  C_25
REMARK    9  A    between atoms: N_10  and  C_36
REMARK   10  A    between atoms: N_10  and  C_37
REMARK   11  A    between atoms: C_11  and  C_17
REMARK   12  A    between atoms: C_18  and  C_23
REMARK                            x       y       z     vdW  Elec       q    Type
REMARK                         _______ _______ _______ _____ _____    ______ ____
ROOT
ATOM      7  N   UNL     1      -0.597   1.371  23.925  0.00  0.00    -0.157 NA
ATOM      8  N   UNL     1      -3.913   2.894  24.749  0.00  0.00    -0.328 N 
ATOM      9  N   UNL     1      -2.741   4.785  24.947  0.00  0.00    -0.240 NA
ATOM     11  C   UNL     1       0.204   2.403  24.679  0.00  0.00    +0.194 C 
ATOM     12  C   UNL     1      -2.040   1.212  24.338  0.00  0.00    +0.165 C 
ATOM     13  C   UNL     1      -0.433   3.806  24.584  0.00  0.00    +0.089 C 
ATOM     14  C   UNL     1      -2.604   2.554  24.581  0.00  0.00    +0.057 A 
ATOM     15  C   UNL     1      -1.906   3.729  24.711  0.00  0.00    +0.066 A 
ATOM     19  C   UNL     1      -3.945   4.248  24.965  0.00  0.00    +0.200 A 
ENDROOT
BRANCH   7   1
ATOM      1  S   UNL     1       0.213  -0.083  23.523  0.00  0.00    +0.062 S 
ATOM      2  O   UNL     1      -0.256  -0.544  22.233  0.00  0.00    -0.153 OA
ATOM      3  O   UNL     1       0.206  -0.960  24.674  0.00  0.00    -0.153 OA
BRANCH   1  16
ATOM     16  C   UNL     1       1.856   0.526  23.314  0.00  0.00    +0.113 A 
ATOM     20  C   UNL     1       2.995  -0.270  23.522  0.00  0.00    +0.010 A 
ATOM     21  C   UNL     1       1.982   1.860  22.924  0.00  0.00    +0.029 A 
ATOM     22  C   UNL     1       4.279   0.297  23.333  0.00  0.00    +0.005 A 
ATOM     24  C   UNL     1       2.889  -1.614  23.915  0.00  0.00    +0.010 A 
ATOM     25  C   UNL     1       5.417  -0.498  23.542  0.00  0.00    +0.037 A 
ATOM     26  C   UNL     1       3.243   2.416  22.739  0.00  0.00    +0.003 A 
ATOM     27  C   UNL     1       4.386   1.641  22.941  0.00  0.00    +0.010 A 
ATOM     28  C   UNL     1       4.031  -2.388  24.117  0.00  0.00    +0.002 A 
ATOM     29  C   UNL     1       5.293  -1.832  23.931  0.00  0.00    +0.024 A 
BRANCH  25  10
ATOM     10  N   UNL     1       6.724   0.018  23.366  0.00  0.00    -0.336 N 
ATOM     36  C   UNL     1       7.701  -0.720  22.595  0.00  0.00    +0.129 C 
ATOM     37  C   UNL     1       7.095   1.282  23.963  0.00  0.00    +0.129 C 
ENDBRANCH  25  10
ENDBRANCH   1  16
ENDBRANCH   7   1
BRANCH  11  17
ATOM      5  O   UNL     1      -0.214   0.985  26.576  0.00  0.00    -0.249 OA
ATOM     17  C   UNL     1       0.362   1.952  26.096  0.00  0.00    +0.326 C 
BRANCH  17   4
ATOM      4  O   UNL     1       1.232   2.779  26.743  0.00  0.00    -0.467 OA
ATOM     32  C   UNL     1       1.292   2.618  28.163  0.00  0.00    +0.280 C 
ENDBRANCH  17   4
ENDBRANCH  11  17
BRANCH   8  18
ATOM     18  C   UNL     1      -5.055   2.012  24.716  0.00  0.00    +0.158 C 
BRANCH  18  23
ATOM     23  C   UNL     1      -4.682   0.550  24.726  0.00  0.00    -0.028 A 
ATOM     30  C   UNL     1      -4.231  -0.047  25.902  0.00  0.00    +0.009 A 
ATOM     31  C   UNL     1      -4.788  -0.204  23.556  0.00  0.00    +0.009 A 
ATOM     33  C   UNL     1      -3.886  -1.399  25.911  0.00  0.00    +0.046 A 
ATOM     34  C   UNL     1      -4.443  -1.556  23.565  0.00  0.00    +0.046 A 
ATOM     35  C   UNL     1      -3.993  -2.153  24.742  0.00  0.00    +0.120 A 
BRANCH  35   6
ATOM      6  O   UNL     1      -3.656  -3.471  24.750  0.00  0.00    -0.495 OA
ATOM     38  C   UNL     1      -2.561  -3.867  23.926  0.00  0.00    +0.277 C 
ENDBRANCH  35   6
ENDBRANCH  18  23
ENDBRANCH   8  18
TORSDOF 8
ENDMDL
MODEL 7
REMARK VINA RESULT:      12.6      3.172      6.253
REMARK  Name = 45360614
REMARK  12 active torsions:
REMARK  status: ('A' for Active; 'I' for Inactive)
REMARK    1  A    between atoms: S_1  and  N_7
REMARK    2  A    between atoms: S_1  and  C_16
REMARK    3  A    between atoms: O_4  and  C_17
REMARK    4  A    between atoms: O_4  and  C_32
REMARK    5  A    between atoms: O_6  and  C_35
REMARK    6  A    between atoms: O_6  and  C_38
REMARK    7  A    between atoms: N_8  and  C_18
REMARK    8  A    between atoms: N_10  and  C_25
REMARK    9  A    between atoms: N_10  and  C_36
REMARK   10  A    between atoms: N_10  and  C_37
REMARK   11  A    between atoms: C_11  and  C_17
REMARK   12  A    between atoms: C_18  and  C_23
REMARK                            x       y       z     vdW  Elec       q    Type
REMARK                         _______ _______ _______ _____ _____    ______ ____
ROOT
ATOM      7  N   UNL     1      -2.264  -0.563  24.319  0.00  0.00    -0.157 NA
ATOM      8  N   UNL     1       0.520   1.916  24.625  0.00  0.00    -0.328 N 
ATOM      9  N   UNL     1       1.545   0.610  23.131  0.00  0.00    -0.240 NA
ATOM     11  C   UNL     1      -1.371  -1.701  23.892  0.00  0.00    +0.194 C 
ATOM     12  C   UNL     1      -1.598   0.566  25.067  0.00  0.00    +0.165 C 
ATOM     13  C   UNL     1      -0.208  -1.214  23.001  0.00  0.00    +0.089 C 
ATOM     14  C   UNL     1      -0.299   0.845  24.425  0.00  0.00    +0.057 A 
ATOM     15  C   UNL     1       0.353   0.058  23.509  0.00  0.00    +0.066 A 
ATOM     19  C   UNL     1       1.617   1.729  23.823  0.00  0.00    +0.200 A 
ENDROOT
BRANCH   7   1
ATOM      1  S   UNL     1      -3.829  -0.984  24.873  0.00  0.00    +0.062 S 
ATOM      2  O   UNL     1      -3.718  -1.611  26.172  0.00  0.00    -0.153 OA
ATOM      3  O   UNL     1      -4.552  -1.625  23.795  0.00  0.00    -0.153 OA
BRANCH   1  16
ATOM     16  C   UNL     1      -4.517   0.624  25.107  0.00  0.00    +0.113 A 
ATOM     20  C   UNL     1      -4.160   1.727  24.314  0.00  0.00    +0.010 A 
ATOM     21  C   UNL     1      -5.452   0.759  26.134  0.00  0.00    +0.029 A 
ATOM     22  C   UNL     1      -4.759   2.985  24.568  0.00  0.00    +0.005 A 
ATOM     24  C   UNL     1      -3.221   1.611  23.276  0.00  0.00    +0.010 A 
ATOM     25  C   UNL     1      -4.402   4.088  23.776  0.00  0.00    +0.037 A 
ATOM     26  C   UNL     1      -6.040   1.995  26.383  0.00  0.00    +0.003 A 
ATOM     27  C   UNL     1      -5.697   3.102  25.606  0.00  0.00    +0.010 A 
ATOM     28  C   UNL     1      -2.878   2.717  22.499  0.00  0.00    +0.002 A 
ATOM     29  C   UNL     1      -3.467   3.954  22.748  0.00  0.00    +0.024 A 
BRANCH  25  10
ATOM     10  N   UNL     1      -4.971   5.367  23.986  0.00  0.00    -0.336 N 
ATOM     36  C   UNL     1      -4.566   6.488  23.165  0.00  0.00    +0.129 C 
ATOM     37  C   UNL     1      -5.954   5.565  25.027  0.00  0.00    +0.129 C 
ENDBRANCH  25  10
ENDBRANCH   1  16
ENDBRANCH   7   1
BRANCH  11  17
ATOM      5  O   UNL     1       0.069  -2.050  25.787  0.00  0.00    -0.249 OA
ATOM     17  C   UNL     1      -0.884  -2.416  25.111  0.00  0.00    +0.326 C 
BRANCH  17   4
ATOM      4  O   UNL     1      -1.659  -3.515  25.335  0.00  0.00    -0.467 OA
ATOM     32  C   UNL     1      -2.488  -3.916  24.239  0.00  0.00    +0.280 C 
ENDBRANCH  17   4
ENDBRANCH  11  17
BRANCH   8  18
ATOM     18  C   UNL     1       0.296   3.034  25.511  0.00  0.00    +0.158 C 
BRANCH  18  23
ATOM     23  C   UNL     1       0.743   2.772  26.928  0.00  0.00    -0.028 A 
ATOM     30  C   UNL     1       2.048   3.075  27.314  0.00  0.00    +0.009 A 
ATOM     31  C   UNL     1      -0.150   2.228  27.851  0.00  0.00    +0.009 A 
ATOM     33  C   UNL     1       2.462   2.833  28.624  0.00  0.00    +0.046 A 
ATOM     34  C   UNL     1       0.263   1.986  29.162  0.00  0.00    +0.046 A 
ATOM     35  C   UNL     1       1.568   2.289  29.548  0.00  0.00    +0.120 A 
BRANCH  35   6
ATOM      6  O   UNL     1       1.972   2.053  30.826  0.00  0.00    -0.495 OA
ATOM     38  C   UNL     1       0.974   2.118  31.845  0.00  0.00    +0.277 C 
ENDBRANCH  35   6
ENDBRANCH  18  23
ENDBRANCH   8  18
TORSDOF 8
ENDMDL
MODEL 8
REMARK VINA RESULT:      12.7      2.402      6.482
REMARK  Name = 45360614
REMARK  12 active torsions:
REMARK  status: ('A' for Active; 'I' for Inactive)
REMARK    1  A    between atoms: S_1  and  N_7
REMARK    2  A    between atoms: S_1  and  C_16
REMARK    3  A    between atoms: O_4  and  C_17
REMARK    4  A    between atoms: O_4  and  C_32
REMARK    5  A    between atoms: O_6  and  C_35
REMARK    6  A    between atoms: O_6  and  C_38
REMARK    7  A    between atoms: N_8  and  C_18
REMARK    8  A    between atoms: N_10  and  C_25
REMARK    9  A    between atoms: N_10  and  C_36
REMARK   10  A    between atoms: N_10  and  C_37
REMARK   11  A    between atoms: C_11  and  C_17
REMARK   12  A    between atoms: C_18  and  C_23
REMARK                            x       y       z     vdW  Elec       q    Type
REMARK                         _______ _______ _______ _____ _____    ______ ____
ROOT
ATOM      7  N   UNL     1      -2.328  -0.808  24.316  0.00  0.00    -0.157 NA
ATOM      8  N   UNL     1       0.663   1.377  24.840  0.00  0.00    -0.328 N 
ATOM      9  N   UNL     1       1.472   0.313  23.050  0.00  0.00    -0.240 NA
ATOM     11  C   UNL     1      -1.561  -1.900  23.612  0.00  0.00    +0.194 C 
ATOM     12  C   UNL     1      -1.522   0.111  25.200  0.00  0.00    +0.165 C 
ATOM     13  C   UNL     1      -0.428  -1.332  22.733  0.00  0.00    +0.089 C 
ATOM     14  C   UNL     1      -0.252   0.420  24.515  0.00  0.00    +0.057 A 
ATOM     15  C   UNL     1       0.268  -0.220  23.417  0.00  0.00    +0.066 A 
ATOM     19  C   UNL     1       1.683   1.273  23.928  0.00  0.00    +0.200 A 
ENDROOT
BRANCH   7   1
ATOM      1  S   UNL     1      -3.880  -1.222  24.911  0.00  0.00    +0.062 S 
ATOM      2  O   UNL     1      -3.740  -1.809  26.226  0.00  0.00    -0.153 OA
ATOM      3  O   UNL     1      -4.619  -1.899  23.867  0.00  0.00    -0.153 OA
BRANCH   1  16
ATOM     16  C   UNL     1      -4.573   0.389  25.110  0.00  0.00    +0.113 A 
ATOM     20  C   UNL     1      -4.212   1.478  24.300  0.00  0.00    +0.010 A 
ATOM     21  C   UNL     1      -5.516   0.540  26.128  0.00  0.00    +0.029 A 
ATOM     22  C   UNL     1      -4.816   2.738  24.526  0.00  0.00    +0.005 A 
ATOM     24  C   UNL     1      -3.266   1.345  23.271  0.00  0.00    +0.010 A 
ATOM     25  C   UNL     1      -4.456   3.828  23.716  0.00  0.00    +0.037 A 
ATOM     26  C   UNL     1      -6.108   1.779  26.350  0.00  0.00    +0.003 A 
ATOM     27  C   UNL     1      -5.763   2.872  25.555  0.00  0.00    +0.010 A 
ATOM     28  C   UNL     1      -2.920   2.438  22.477  0.00  0.00    +0.002 A 
ATOM     29  C   UNL     1      -3.513   3.677  22.698  0.00  0.00    +0.024 A 
BRANCH  25  10
ATOM     10  N   UNL     1      -5.030   5.109  23.899  0.00  0.00    -0.336 N 
ATOM     36  C   UNL     1      -5.800   5.400  25.088  0.00  0.00    +0.129 C 
ATOM     37  C   UNL     1      -4.857   6.134  22.893  0.00  0.00    +0.129 C 
ENDBRANCH  25  10
ENDBRANCH   1  16
ENDBRANCH   7   1
BRANCH  11  17
ATOM      5  O   UNL     1      -0.081  -2.657  25.351  0.00  0.00    -0.249 OA
ATOM     17  C   UNL     1      -1.050  -2.866  24.633  0.00  0.00    +0.326 C 
BRANCH  17   4
ATOM      4  O   UNL     1      -1.826  -3.987  24.628  0.00  0.00    -0.467 OA
ATOM     32  C   UNL     1      -2.563  -4.219  23.425  0.00  0.00    +0.280 C 
ENDBRANCH  17   4
ENDBRANCH  11  17
BRANCH   8  18
ATOM     18  C   UNL     1       0.592   2.317  25.933  0.00  0.00    +0.158 C 
BRANCH  18  23
ATOM     23  C   UNL     1      -0.257   3.526  25.627  0.00  0.00    -0.028 A 
ATOM     30  C   UNL     1      -1.485   3.695  26.265  0.00  0.00    +0.009 A 
ATOM     31  C   UNL     1       0.188   4.475  24.706  0.00  0.00    +0.009 A 
ATOM     33  C   UNL     1      -2.270   4.813  25.982  0.00  0.00    +0.046 A 
ATOM     34  C   UNL     1      -0.597   5.593  24.423  0.00  0.00    +0.046 A 
ATOM     35  C   UNL     1      -1.825   5.762  25.061  0.00  0.00    +0.120 A 
BRANCH  35   6
ATOM      6  O   UNL     1      -2.591   6.853  24.785  0.00  0.00    -0.495 OA
ATOM     38  C   UNL     1      -2.429   7.452  23.500  0.00  0.00    +0.277 C 
ENDBRANCH  35   6
ENDBRANCH  18  23
ENDBRANCH   8  18
TORSDOF 8
ENDMDL
MODEL 9
REMARK VINA RESULT:      13.0      2.610      5.446
REMARK  Name = 45360614
REMARK  12 active torsions:
REMARK  status: ('A' for Active; 'I' for Inactive)
REMARK    1  A    between atoms: S_1  and  N_7
REMARK    2  A    between atoms: S_1  and  C_16
REMARK    3  A    between atoms: O_4  and  C_17
REMARK    4  A    between atoms: O_4  and  C_32
REMARK    5  A    between atoms: O_6  and  C_35
REMARK    6  A    between atoms: O_6  and  C_38
REMARK    7  A    between atoms: N_8  and  C_18
REMARK    8  A    between atoms: N_10  and  C_25
REMARK    9  A    between atoms: N_10  and  C_36
REMARK   10  A    between atoms: N_10  and  C_37
REMARK   11  A    between atoms: C_11  and  C_17
REMARK   12  A    between atoms: C_18  and  C_23
REMARK                            x       y       z     vdW  Elec       q    Type
REMARK                         _______ _______ _______ _____ _____    ______ ____
ROOT
ATOM      7  N   UNL     1      -2.011   3.254  24.094  0.00  0.00    -0.157 NA
ATOM      8  N   UNL     1      -5.220   1.871  25.429  0.00  0.00    -0.328 N 
ATOM      9  N   UNL     1      -5.040   3.515  26.932  0.00  0.00    -0.240 NA
ATOM     11  C   UNL     1      -1.579   3.855  25.408  0.00  0.00    +0.194 C 
ATOM     12  C   UNL     1      -3.017   2.132  24.171  0.00  0.00    +0.165 C 
ATOM     13  C   UNL     1      -2.778   4.400  26.212  0.00  0.00    +0.089 C 
ATOM     14  C   UNL     1      -4.023   2.479  25.193  0.00  0.00    +0.057 A 
ATOM     15  C   UNL     1      -3.935   3.480  26.128  0.00  0.00    +0.066 A 
ATOM     19  C   UNL     1      -5.795   2.531  26.486  0.00  0.00    +0.200 A 
ENDROOT
BRANCH   7   1
ATOM      1  S   UNL     1      -0.797   3.067  22.900  0.00  0.00    +0.062 S 
ATOM      2  O   UNL     1       0.220   4.078  23.099  0.00  0.00    -0.153 OA
ATOM      3  O   UNL     1      -1.429   2.890  21.611  0.00  0.00    -0.153 OA
BRANCH   1  16
ATOM     16  C   UNL     1      -0.118   1.514  23.390  0.00  0.00    +0.113 A 
ATOM     20  C   UNL     1       1.249   1.211  23.277  0.00  0.00    +0.010 A 
ATOM     21  C   UNL     1      -1.014   0.577  23.906  0.00  0.00    +0.029 A 
ATOM     22  C   UNL     1       1.713  -0.060  23.693  0.00  0.00    +0.005 A 
ATOM     24  C   UNL     1       2.166   2.140  22.760  0.00  0.00    +0.010 A 
ATOM     25  C   UNL     1       3.079  -0.363  23.581  0.00  0.00    +0.037 A 
ATOM     26  C   UNL     1      -0.558  -0.672  24.314  0.00  0.00    +0.003 A 
ATOM     27  C   UNL     1       0.797  -0.990  24.210  0.00  0.00    +0.010 A 
ATOM     28  C   UNL     1       3.520   1.823  22.655  0.00  0.00    +0.002 A 
ATOM     29  C   UNL     1       3.977   0.573  23.064  0.00  0.00    +0.024 A 
BRANCH  25  10
ATOM     10  N   UNL     1       3.597  -1.619  23.983  0.00  0.00    -0.336 N 
ATOM     36  C   UNL     1       2.720  -2.620  24.549  0.00  0.00    +0.129 C 
ATOM     37  C   UNL     1       5.007  -1.906  23.838  0.00  0.00    +0.129 C 
ENDBRANCH  25  10
ENDBRANCH   1  16
ENDBRANCH   7   1
BRANCH  11  17
ATOM      5  O   UNL     1      -1.279   1.785  26.594  0.00  0.00    -0.249 OA
ATOM     17  C   UNL     1      -0.804   2.832  26.176  0.00  0.00    +0.326 C 
BRANCH  17   4
ATOM      4  O   UNL     1       0.484   3.255  26.327  0.00  0.00    -0.467 OA
ATOM     32  C   UNL     1       1.199   2.669  27.418  0.00  0.00    +0.280 C 
ENDBRANCH  17   4
ENDBRANCH  11  17
BRANCH   8  18
ATOM     18  C   UNL     1      -5.783   0.746  24.722  0.00  0.00    +0.158 C 
BRANCH  18  23
ATOM     23  C   UNL     1      -4.863  -0.448  24.671  0.00  0.00    -0.028 A 
ATOM     30  C   UNL     1      -4.831  -1.256  23.534  0.00  0.00    +0.009 A 
ATOM     31  C   UNL     1      -4.044  -0.744  25.761  0.00  0.00    +0.009 A 
ATOM     33  C   UNL     1      -3.980  -2.360  23.487  0.00  0.00    +0.046 A 
ATOM     34  C   UNL     1      -3.193  -1.849  25.714  0.00  0.00    +0.046 A 
ATOM     35  C   UNL     1      -3.161  -2.656  24.577  0.00  0.00    +0.120 A 
BRANCH  35   6
ATOM      6  O   UNL     1      -2.331  -3.733  24.531  0.00  0.00    -0.495 OA
ATOM     38  C   UNL     1      -1.498  -3.863  23.379  0.00  0.00    +0.277 C 
ENDBRANCH  35   6
ENDBRANCH  18  23
ENDBRANCH   8  18
TORSDOF 8
ENDMDL
MODEL 10
REMARK VINA RESULT:      13.1      2.615      5.438
REMARK  Name = 45360614
REMARK  12 active torsions:
REMARK  status: ('A' for Active; 'I' for Inactive)
REMARK    1  A    between atoms: S_1  and  N_7
REMARK    2  A    between atoms: S_1  and  C_16
REMARK    3  A    between atoms: O_4  and  C_17
REMARK    4  A    between atoms: O_4  and  C_32
REMARK    5  A    between atoms: O_6  and  C_35
REMARK    6  A    between atoms: O_6  and  C_38
REMARK    7  A    between atoms: N_8  and  C_18
REMARK    8  A    between atoms: N_10  and  C_25
REMARK    9  A    between atoms: N_10  and  C_36
REMARK   10  A    between atoms: N_10  and  C_37
REMARK   11  A    between atoms: C_11  and  C_17
REMARK   12  A    between atoms: C_18  and  C_23
REMARK                            x       y       z     vdW  Elec       q    Type
REMARK                         _______ _______ _______ _____ _____    ______ ____
ROOT
ATOM      7  N   UNL     1      -3.615  -0.011  25.755  0.00  0.00    -0.157 NA
ATOM      8  N   UNL     1      -4.755   3.551  25.677  0.00  0.00    -0.328 N 
ATOM      9  N   UNL     1      -6.692   2.679  24.985  0.00  0.00    -0.240 NA
ATOM     11  C   UNL     1      -4.603  -0.480  24.715  0.00  0.00    +0.194 C 
ATOM     12  C   UNL     1      -3.293   1.463  25.754  0.00  0.00    +0.165 C 
ATOM     13  C   UNL     1      -5.952   0.262  24.829  0.00  0.00    +0.089 C 
ATOM     14  C   UNL     1      -4.544   2.212  25.530  0.00  0.00    +0.057 A 
ATOM     15  C   UNL     1      -5.744   1.702  25.101  0.00  0.00    +0.066 A 
ATOM     19  C   UNL     1      -6.064   3.783  25.338  0.00  0.00    +0.200 A 
ENDROOT
BRANCH   7   1
ATOM      1  S   UNL     1      -2.293  -1.050  26.079  0.00  0.00    +0.062 S 
ATOM      2  O   UNL     1      -2.319  -2.154  25.143  0.00  0.00    -0.153 OA
ATOM      3  O   UNL     1      -2.217  -1.283  27.505  0.00  0.00    -0.153 OA
BRANCH   1  16
ATOM     16  C   UNL     1      -0.953   0.007  25.630  0.00  0.00    +0.113 A 
ATOM     20  C   UNL     1      -0.136  -0.232  24.513  0.00  0.00    +0.010 A 
ATOM     21  C   UNL     1      -0.732   1.116  26.448  0.00  0.00    +0.029 A 
ATOM     22  C   UNL     1       0.919   0.666  24.222  0.00  0.00    +0.005 A 
ATOM     24  C   UNL     1      -0.342  -1.342  23.678  0.00  0.00    +0.010 A 
ATOM     25  C   UNL     1       1.736   0.427  23.105  0.00  0.00    +0.037 A 
ATOM     26  C   UNL     1       0.305   1.997  26.162  0.00  0.00    +0.003 A 
ATOM     27  C   UNL     1       1.126   1.776  25.056  0.00  0.00    +0.010 A 
ATOM     28  C   UNL     1       0.479  -1.564  22.573  0.00  0.00    +0.002 A 
ATOM     29  C   UNL     1       1.516  -0.681  22.286  0.00  0.00    +0.024 A 
BRANCH  25  10
ATOM     10  N   UNL     1       2.804   1.294  22.768  0.00  0.00    -0.336 N 
ATOM     36  C   UNL     1       2.600   2.725  22.741  0.00  0.00    +0.129 C 
ATOM     37  C   UNL     1       4.105   0.753  22.441  0.00  0.00    +0.129 C 
ENDBRANCH  25  10
ENDBRANCH   1  16
ENDBRANCH   7   1
BRANCH  11  17
ATOM      5  O   UNL     1      -3.519   0.722  22.936  0.00  0.00    -0.249 OA
ATOM     17  C   UNL     1      -3.988  -0.325  23.361  0.00  0.00    +0.326 C 
BRANCH  17   4
ATOM      4  O   UNL     1      -4.038  -1.517  22.699  0.00  0.00    -0.467 OA
ATOM     32  C   UNL     1      -4.549  -2.619  23.455  0.00  0.00    +0.280 C 
ENDBRANCH  17   4
ENDBRANCH  11  17
BRANCH   8  18
ATOM     18  C   UNL     1      -3.798   4.545  26.099  0.00  0.00    +0.158 C 
BRANCH  18  23
ATOM     23  C   UNL     1      -2.577   4.611  25.216  0.00  0.00    -0.028 A 
ATOM     30  C   UNL     1      -2.340   3.607  24.277  0.00  0.00    +0.009 A 
ATOM     31  C   UNL     1      -1.686   5.678  25.338  0.00  0.00    +0.009 A 
ATOM     33  C   UNL     1      -1.210   3.669  23.461  0.00  0.00    +0.046 A 
ATOM     34  C   UNL     1      -0.557   5.739  24.521  0.00  0.00    +0.046 A 
ATOM     35  C   UNL     1      -0.319   4.736  23.583  0.00  0.00    +0.120 A 
BRANCH  35   6
ATOM      6  O   UNL     1       0.782   4.796  22.786  0.00  0.00    -0.495 OA
ATOM     38  C   UNL     1       0.902   5.929  21.927  0.00  0.00    +0.277 C 
ENDBRANCH  35   6
ENDBRANCH  18  23
ENDBRANCH   8  18
TORSDOF 8
ENDMDL
