MODEL 1
REMARK VINA RESULT:      -2.4      0.000      0.000
REMARK  Name = 26743094
REMARK  8 active torsions:
REMARK  status: ('A' for Active; 'I' for Inactive)
REMARK    1  A    between atoms: S_1  and  C_24
REMARK    2  A    between atoms: S_1  and  C_25
REMARK    3  A    between atoms: N_5  and  C_14
REMARK    4  A    between atoms: C_7  and  C_11
REMARK    5  A    between atoms: C_8  and  C_13
REMARK    6  A    between atoms: C_11  and  C_17
REMARK    7  A    between atoms: C_13  and  C_21
REMARK    8  A    between atoms: C_23  and  C_24
REMARK                            x       y       z     vdW  Elec       q    Type
REMARK                         _______ _______ _______ _____ _____    ______ ____
ROOT
ATOM      4  N   UNL     1      -6.253   3.951  25.902  0.00  0.00    -0.316 NA
ATOM      7  C   UNL     1      -3.822   2.441  25.183  0.00  0.00    +0.004 C 
ATOM      8  C   UNL     1      -3.777   3.778  25.960  0.00  0.00    +0.012 C 
ATOM      9  C   UNL     1      -5.191   1.777  25.407  0.00  0.00    +0.019 C 
ATOM     10  C   UNL     1      -4.998   4.658  25.647  0.00  0.00    +0.085 C 
ATOM     12  C   UNL     1      -6.354   2.723  25.116  0.00  0.00    +0.081 C 
ATOM     31  H   UNL     1      -7.037   4.562  25.676  0.00  0.00    +0.122 HD
ENDROOT
BRANCH   7  11
ATOM     11  C   UNL     1      -3.523   2.579  23.685  0.00  0.00    +0.099 C 
BRANCH  11  17
ATOM      2  O   UNL     1      -2.488   1.249  21.949  0.00  0.00    -0.276 OA
ATOM      5  N   UNL     1      -2.642   0.391  24.104  0.00  0.00    -0.312 N 
ATOM     17  C   UNL     1      -2.830   1.355  23.124  0.00  0.00    +0.214 C 
ATOM     32  H   UNL     1      -2.957   0.578  25.050  0.00  0.00    +0.149 HD
BRANCH   5  14
ATOM     14  C   UNL     1      -2.006  -0.882  23.848  0.00  0.00    +0.073 C 
ATOM     15  C   UNL     1      -1.252  -1.380  25.085  0.00  0.00    +0.022 C 
ATOM     16  C   UNL     1      -3.025  -1.919  23.364  0.00  0.00    +0.022 C 
ATOM     18  C   UNL     1      -2.193  -1.842  26.197  0.00  0.00    +0.002 C 
ATOM     19  C   UNL     1      -3.963  -2.382  24.479  0.00  0.00    +0.002 C 
ATOM     20  C   UNL     1      -3.189  -2.882  25.695  0.00  0.00    +0.000 C 
ENDBRANCH   5  14
ENDBRANCH  11  17
ENDBRANCH   7  11
BRANCH   8  13
ATOM     13  C   UNL     1      -2.480   4.558  25.735  0.00  0.00    +0.064 C 
BRANCH  13  21
ATOM      3  O   UNL     1       0.010   1.979  25.397  0.00  0.00    -0.359 OA
ATOM      6  N   UNL     1      -1.042   2.594  26.067  0.00  0.00    -0.083 NA
ATOM     21  C   UNL     1      -1.362   3.648  25.312  0.00  0.00    +0.084 A 
ATOM     22  C   UNL     1      -0.556   3.749  24.165  0.00  0.00    +0.071 A 
ATOM     23  C   UNL     1       0.289   2.676  24.266  0.00  0.00    +0.148 A 
BRANCH  23  24
ATOM     24  C   UNL     1       1.383   2.162  23.434  0.00  0.00    +0.151 C 
BRANCH  24   1
ATOM      1  S   UNL     1       1.322   0.350  23.200  0.00  0.00    -0.117 S 
BRANCH   1  25
ATOM     25  C   UNL     1       3.052  -0.073  23.357  0.00  0.00    +0.008 A 
ATOM     26  C   UNL     1       4.031   0.884  23.091  0.00  0.00    +0.015 A 
ATOM     27  C   UNL     1       3.421  -1.361  23.746  0.00  0.00    +0.015 A 
ATOM     28  C   UNL     1       5.380   0.552  23.213  0.00  0.00    +0.001 A 
ATOM     29  C   UNL     1       4.771  -1.691  23.869  0.00  0.00    +0.001 A 
ATOM     30  C   UNL     1       5.750  -0.735  23.602  0.00  0.00    +0.000 A 
ENDBRANCH   1  25
ENDBRANCH  24   1
ENDBRANCH  23  24
ENDBRANCH  13  21
ENDBRANCH   8  13
TORSDOF 8
ENDMDL
MODEL 2
REMARK VINA RESULT:      -2.0      1.696      2.834
REMARK  Name = 26743094
REMARK  8 active torsions:
REMARK  status: ('A' for Active; 'I' for Inactive)
REMARK    1  A    between atoms: S_1  and  C_24
REMARK    2  A    between atoms: S_1  and  C_25
REMARK    3  A    between atoms: N_5  and  C_14
REMARK    4  A    between atoms: C_7  and  C_11
REMARK    5  A    between atoms: C_8  and  C_13
REMARK    6  A    between atoms: C_11  and  C_17
REMARK    7  A    between atoms: C_13  and  C_21
REMARK    8  A    between atoms: C_23  and  C_24
REMARK                            x       y       z     vdW  Elec       q    Type
REMARK                         _______ _______ _______ _____ _____    ______ ____
ROOT
ATOM      4  N   UNL     1      -1.129   5.801  24.643  0.00  0.00    -0.316 NA
ATOM      7  C   UNL     1      -3.158   3.865  25.562  0.00  0.00    +0.004 C 
ATOM      8  C   UNL     1      -1.692   3.839  26.057  0.00  0.00    +0.012 C 
ATOM      9  C   UNL     1      -3.503   5.289  25.093  0.00  0.00    +0.019 C 
ATOM     10  C   UNL     1      -0.732   4.444  25.020  0.00  0.00    +0.085 C 
ATOM     12  C   UNL     1      -2.485   5.839  24.097  0.00  0.00    +0.081 C 
ATOM     31  H   UNL     1      -0.476   6.165  23.951  0.00  0.00    +0.122 HD
ENDROOT
BRANCH   7  11
ATOM     11  C   UNL     1      -3.465   2.841  24.463  0.00  0.00    +0.099 C 
BRANCH  11  17
ATOM      2  O   UNL     1      -5.363   1.832  25.574  0.00  0.00    -0.276 OA
ATOM      5  N   UNL     1      -3.710   0.468  24.673  0.00  0.00    -0.312 N 
ATOM     17  C   UNL     1      -4.301   1.687  24.973  0.00  0.00    +0.214 C 
ATOM     32  H   UNL     1      -2.831   0.455  24.167  0.00  0.00    +0.149 HD
BRANCH   5  14
ATOM     14  C   UNL     1      -4.291  -0.803  25.043  0.00  0.00    +0.073 C 
ATOM     15  C   UNL     1      -4.269  -1.783  23.866  0.00  0.00    +0.022 C 
ATOM     16  C   UNL     1      -3.588  -1.394  26.270  0.00  0.00    +0.022 C 
ATOM     18  C   UNL     1      -2.860  -2.287  23.550  0.00  0.00    +0.002 C 
ATOM     19  C   UNL     1      -2.180  -1.899  25.951  0.00  0.00    +0.002 C 
ATOM     20  C   UNL     1      -2.185  -2.880  24.783  0.00  0.00    +0.000 C 
ENDBRANCH   5  14
ENDBRANCH  11  17
ENDBRANCH   7  11
BRANCH   8  13
ATOM     13  C   UNL     1      -1.225   2.442  26.470  0.00  0.00    +0.064 C 
BRANCH  13  21
ATOM      3  O   UNL     1       1.068   1.534  23.848  0.00  0.00    -0.359 OA
ATOM      6  N   UNL     1       0.581   2.416  24.805  0.00  0.00    -0.083 NA
ATOM     21  C   UNL     1      -0.448   1.778  25.371  0.00  0.00    +0.084 A 
ATOM     22  C   UNL     1      -0.655   0.502  24.818  0.00  0.00    +0.071 A 
ATOM     23  C   UNL     1       0.324   0.398  23.866  0.00  0.00    +0.148 A 
BRANCH  23  24
ATOM     24  C   UNL     1       0.705  -0.648  22.909  0.00  0.00    +0.151 C 
BRANCH  24   1
ATOM      1  S   UNL     1       1.976  -0.106  21.713  0.00  0.00    -0.117 S 
BRANCH   1  25
ATOM     25  C   UNL     1       3.453  -0.212  22.714  0.00  0.00    +0.008 A 
ATOM     26  C   UNL     1       3.764  -1.399  23.376  0.00  0.00    +0.015 A 
ATOM     27  C   UNL     1       4.295   0.894  22.832  0.00  0.00    +0.015 A 
ATOM     28  C   UNL     1       4.916  -1.480  24.158  0.00  0.00    +0.001 A 
ATOM     29  C   UNL     1       5.448   0.812  23.613  0.00  0.00    +0.001 A 
ATOM     30  C   UNL     1       5.758  -0.375  24.275  0.00  0.00    +0.000 A 
ENDBRANCH   1  25
ENDBRANCH  24   1
ENDBRANCH  23  24
ENDBRANCH  13  21
ENDBRANCH   8  13
TORSDOF 8
ENDMDL
MODEL 3
REMARK VINA RESULT:      -1.9      2.664      6.008
REMARK  Name = 26743094
REMARK  8 active torsions:
REMARK  status: ('A' for Active; 'I' for Inactive)
REMARK    1  A    between atoms: S_1  and  C_24
REMARK    2  A    between atoms: S_1  and  C_25
REMARK    3  A    between atoms: N_5  and  C_14
REMARK    4  A    between atoms: C_7  and  C_11
REMARK    5  A    between atoms: C_8  and  C_13
REMARK    6  A    between atoms: C_11  and  C_17
REMARK    7  A    between atoms: C_13  and  C_21
REMARK    8  A    between atoms: C_23  and  C_24
REMARK                            x       y       z     vdW  Elec       q    Type
REMARK                         _______ _______ _______ _____ _____    ______ ____
ROOT
ATOM      4  N   UNL     1       2.770   0.771  22.105  0.00  0.00    -0.316 NA
ATOM      7  C   UNL     1       0.257   0.130  23.512  0.00  0.00    +0.004 C 
ATOM      8  C   UNL     1       1.083   1.403  23.814  0.00  0.00    +0.012 C 
ATOM      9  C   UNL     1       0.564  -0.340  22.081  0.00  0.00    +0.019 C 
ATOM     10  C   UNL     1       2.573   1.204  23.489  0.00  0.00    +0.085 C 
ATOM     12  C   UNL     1       2.063  -0.476  21.819  0.00  0.00    +0.081 C 
ATOM     31  H   UNL     1       3.766   0.643  21.930  0.00  0.00    +0.122 HD
ENDROOT
BRANCH   7  11
ATOM     11  C   UNL     1       0.475  -1.008  24.517  0.00  0.00    +0.099 C 
BRANCH  11  17
ATOM      2  O   UNL     1      -0.952  -0.745  26.453  0.00  0.00    -0.276 OA
ATOM      5  N   UNL     1      -1.606  -2.173  24.739  0.00  0.00    -0.312 N 
ATOM     17  C   UNL     1      -0.754  -1.272  25.360  0.00  0.00    +0.214 C 
ATOM     32  H   UNL     1      -1.352  -2.549  23.831  0.00  0.00    +0.149 HD
BRANCH   5  14
ATOM     14  C   UNL     1      -2.856  -2.608  25.320  0.00  0.00    +0.073 C 
ATOM     15  C   UNL     1      -3.447  -1.527  26.229  0.00  0.00    +0.022 C 
ATOM     16  C   UNL     1      -3.852  -3.027  24.234  0.00  0.00    +0.022 C 
ATOM     18  C   UNL     1      -3.994  -0.335  25.442  0.00  0.00    +0.002 C 
ATOM     19  C   UNL     1      -4.398  -1.834  23.450  0.00  0.00    +0.002 C 
ATOM     20  C   UNL     1      -4.991  -0.775  24.375  0.00  0.00    +0.000 C 
ENDBRANCH   5  14
ENDBRANCH  11  17
ENDBRANCH   7  11
BRANCH   8  13
ATOM     13  C   UNL     1       0.908   1.904  25.249  0.00  0.00    +0.064 C 
BRANCH  13  21
ATOM      3  O   UNL     1      -1.478   4.590  25.027  0.00  0.00    -0.359 OA
ATOM      6  N   UNL     1      -0.263   3.994  24.708  0.00  0.00    -0.083 NA
ATOM     21  C   UNL     1      -0.267   2.831  25.364  0.00  0.00    +0.084 A 
ATOM     22  C   UNL     1      -1.446   2.640  26.107  0.00  0.00    +0.071 A 
ATOM     23  C   UNL     1      -2.173   3.774  25.860  0.00  0.00    +0.148 A 
BRANCH  23  24
ATOM     24  C   UNL     1      -3.488   4.254  26.300  0.00  0.00    +0.151 C 
BRANCH  24   1
ATOM      1  S   UNL     1      -4.876   3.501  25.380  0.00  0.00    -0.117 S 
BRANCH   1  25
ATOM     25  C   UNL     1      -4.056   3.000  23.873  0.00  0.00    +0.008 A 
ATOM     26  C   UNL     1      -3.322   1.815  23.839  0.00  0.00    +0.015 A 
ATOM     27  C   UNL     1      -4.150   3.796  22.731  0.00  0.00    +0.015 A 
ATOM     28  C   UNL     1      -2.682   1.425  22.663  0.00  0.00    +0.001 A 
ATOM     29  C   UNL     1      -3.510   3.405  21.555  0.00  0.00    +0.001 A 
ATOM     30  C   UNL     1      -2.776   2.220  21.521  0.00  0.00    +0.000 A 
ENDBRANCH   1  25
ENDBRANCH  24   1
ENDBRANCH  23  24
ENDBRANCH  13  21
ENDBRANCH   8  13
TORSDOF 8
ENDMDL
MODEL 4
REMARK VINA RESULT:      -1.7      1.198      1.901
REMARK  Name = 26743094
REMARK  8 active torsions:
REMARK  status: ('A' for Active; 'I' for Inactive)
REMARK    1  A    between atoms: S_1  and  C_24
REMARK    2  A    between atoms: S_1  and  C_25
REMARK    3  A    between atoms: N_5  and  C_14
REMARK    4  A    between atoms: C_7  and  C_11
REMARK    5  A    between atoms: C_8  and  C_13
REMARK    6  A    between atoms: C_11  and  C_17
REMARK    7  A    between atoms: C_13  and  C_21
REMARK    8  A    between atoms: C_23  and  C_24
REMARK                            x       y       z     vdW  Elec       q    Type
REMARK                         _______ _______ _______ _____ _____    ______ ____
ROOT
ATOM      4  N   UNL     1      -6.137   4.461  25.731  0.00  0.00    -0.316 NA
ATOM      7  C   UNL     1      -4.199   2.264  25.380  0.00  0.00    +0.004 C 
ATOM      8  C   UNL     1      -3.796   3.755  25.298  0.00  0.00    +0.012 C 
ATOM      9  C   UNL     1      -5.473   2.134  26.230  0.00  0.00    +0.019 C 
ATOM     10  C   UNL     1      -4.976   4.638  24.859  0.00  0.00    +0.085 C 
ATOM     12  C   UNL     1      -6.586   3.070  25.761  0.00  0.00    +0.081 C 
ATOM     31  H   UNL     1      -6.899   5.054  25.404  0.00  0.00    +0.122 HD
ENDROOT
BRANCH   7  11
ATOM     11  C   UNL     1      -4.384   1.591  24.015  0.00  0.00    +0.099 C 
BRANCH  11  17
ATOM      2  O   UNL     1      -4.090  -0.621  23.079  0.00  0.00    -0.276 OA
ATOM      5  N   UNL     1      -4.004  -0.336  25.384  0.00  0.00    -0.312 N 
ATOM     17  C   UNL     1      -4.146   0.097  24.074  0.00  0.00    +0.214 C 
ATOM     32  H   UNL     1      -4.062   0.339  26.139  0.00  0.00    +0.149 HD
BRANCH   5  14
ATOM     14  C   UNL     1      -3.768  -1.718  25.738  0.00  0.00    +0.073 C 
ATOM     15  C   UNL     1      -3.319  -2.530  24.519  0.00  0.00    +0.022 C 
ATOM     16  C   UNL     1      -2.756  -1.830  26.883  0.00  0.00    +0.022 C 
ATOM     18  C   UNL     1      -1.894  -2.187  24.081  0.00  0.00    +0.002 C 
ATOM     19  C   UNL     1      -1.333  -1.488  26.441  0.00  0.00    +0.002 C 
ATOM     20  C   UNL     1      -0.904  -2.316  25.234  0.00  0.00    +0.000 C 
ENDBRANCH   5  14
ENDBRANCH  11  17
ENDBRANCH   7  11
BRANCH   8  13
ATOM     13  C   UNL     1      -2.580   3.999  24.402  0.00  0.00    +0.064 C 
BRANCH  13  21
ATOM      3  O   UNL     1       0.003   1.759  25.529  0.00  0.00    -0.359 OA
ATOM      6  N   UNL     1      -0.835   2.855  25.698  0.00  0.00    -0.083 NA
ATOM     21  C   UNL     1      -1.551   2.919  24.573  0.00  0.00    +0.084 A 
ATOM     22  C   UNL     1      -1.212   1.900  23.665  0.00  0.00    +0.071 A 
ATOM     23  C   UNL     1      -0.231   1.199  24.315  0.00  0.00    +0.148 A 
BRANCH  23  24
ATOM     24  C   UNL     1       0.575   0.022  23.970  0.00  0.00    +0.151 C 
BRANCH  24   1
ATOM      1  S   UNL     1       1.514   0.220  22.415  0.00  0.00    -0.117 S 
BRANCH   1  25
ATOM     25  C   UNL     1       3.187  -0.032  22.991  0.00  0.00    +0.008 A 
ATOM     26  C   UNL     1       3.563  -1.265  23.524  0.00  0.00    +0.015 A 
ATOM     27  C   UNL     1       4.116   1.005  22.909  0.00  0.00    +0.015 A 
ATOM     28  C   UNL     1       4.869  -1.461  23.974  0.00  0.00    +0.001 A 
ATOM     29  C   UNL     1       5.422   0.809  23.359  0.00  0.00    +0.001 A 
ATOM     30  C   UNL     1       5.798  -0.424  23.891  0.00  0.00    +0.000 A 
ENDBRANCH   1  25
ENDBRANCH  24   1
ENDBRANCH  23  24
ENDBRANCH  13  21
ENDBRANCH   8  13
TORSDOF 8
ENDMDL
MODEL 5
REMARK VINA RESULT:      -0.9      2.225      6.478
REMARK  Name = 26743094
REMARK  8 active torsions:
REMARK  status: ('A' for Active; 'I' for Inactive)
REMARK    1  A    between atoms: S_1  and  C_24
REMARK    2  A    between atoms: S_1  and  C_25
REMARK    3  A    between atoms: N_5  and  C_14
REMARK    4  A    between atoms: C_7  and  C_11
REMARK    5  A    between atoms: C_8  and  C_13
REMARK    6  A    between atoms: C_11  and  C_17
REMARK    7  A    between atoms: C_13  and  C_21
REMARK    8  A    between atoms: C_23  and  C_24
REMARK                            x       y       z     vdW  Elec       q    Type
REMARK                         _______ _______ _______ _____ _____    ______ ____
ROOT
ATOM      4  N   UNL     1      -1.574   4.568  25.911  0.00  0.00    -0.316 NA
ATOM      7  C   UNL     1      -0.568   2.299  24.314  0.00  0.00    +0.004 C 
ATOM      8  C   UNL     1      -1.165   2.125  25.731  0.00  0.00    +0.012 C 
ATOM      9  C   UNL     1      -1.130   3.586  23.688  0.00  0.00    +0.019 C 
ATOM     10  C   UNL     1      -1.000   3.398  26.577  0.00  0.00    +0.085 C 
ATOM     12  C   UNL     1      -0.967   4.799  24.601  0.00  0.00    +0.081 C 
ATOM     31  H   UNL     1      -1.439   5.391  26.497  0.00  0.00    +0.122 HD
ENDROOT
BRANCH   7  11
ATOM     11  C   UNL     1       0.965   2.300  24.278  0.00  0.00    +0.099 C 
BRANCH  11  17
ATOM      2  O   UNL     1       0.816   0.435  22.745  0.00  0.00    -0.276 OA
ATOM      5  N   UNL     1       2.897   1.346  23.234  0.00  0.00    -0.312 N 
ATOM     17  C   UNL     1       1.517   1.253  23.335  0.00  0.00    +0.214 C 
ATOM     32  H   UNL     1       3.385   2.063  23.761  0.00  0.00    +0.149 HD
BRANCH   5  14
ATOM     14  C   UNL     1       3.690   0.468  22.403  0.00  0.00    +0.073 C 
ATOM     15  C   UNL     1       5.187   0.717  22.608  0.00  0.00    +0.022 C 
ATOM     16  C   UNL     1       3.332  -1.001  22.656  0.00  0.00    +0.022 C 
ATOM     18  C   UNL     1       5.684   0.216  23.965  0.00  0.00    +0.002 C 
ATOM     19  C   UNL     1       3.832  -1.499  24.012  0.00  0.00    +0.002 C 
ATOM     20  C   UNL     1       5.326  -1.249  24.189  0.00  0.00    +0.000 C 
ENDBRANCH   5  14
ENDBRANCH  11  17
ENDBRANCH   7  11
BRANCH   8  13
ATOM     13  C   UNL     1      -0.603   0.911  26.472  0.00  0.00    +0.064 C 
BRANCH  13  21
ATOM      3  O   UNL     1      -1.104  -2.292  24.907  0.00  0.00    -0.359 OA
ATOM      6  N   UNL     1      -0.299  -1.234  25.313  0.00  0.00    -0.083 NA
ATOM     21  C   UNL     1      -1.134  -0.372  25.900  0.00  0.00    +0.084 A 
ATOM     22  C   UNL     1      -2.464  -0.827  25.894  0.00  0.00    +0.071 A 
ATOM     23  C   UNL     1      -2.390  -2.039  25.259  0.00  0.00    +0.148 A 
BRANCH  23  24
ATOM     24  C   UNL     1      -3.380  -3.061  24.901  0.00  0.00    +0.151 C 
BRANCH  24   1
ATOM      1  S   UNL     1      -4.586  -2.493  23.651  0.00  0.00    -0.117 S 
BRANCH   1  25
ATOM     25  C   UNL     1      -4.480  -0.720  23.855  0.00  0.00    +0.008 A 
ATOM     26  C   UNL     1      -3.601   0.021  23.066  0.00  0.00    +0.015 A 
ATOM     27  C   UNL     1      -5.277  -0.079  24.805  0.00  0.00    +0.015 A 
ATOM     28  C   UNL     1      -3.519   1.404  23.226  0.00  0.00    +0.001 A 
ATOM     29  C   UNL     1      -5.194   1.304  24.964  0.00  0.00    +0.001 A 
ATOM     30  C   UNL     1      -4.315   2.045  24.175  0.00  0.00    +0.000 A 
ENDBRANCH   1  25
ENDBRANCH  24   1
ENDBRANCH  23  24
ENDBRANCH  13  21
ENDBRANCH   8  13
TORSDOF 8
ENDMDL
MODEL 6
REMARK VINA RESULT:      -0.3      2.522      6.697
REMARK  Name = 26743094
REMARK  8 active torsions:
REMARK  status: ('A' for Active; 'I' for Inactive)
REMARK    1  A    between atoms: S_1  and  C_24
REMARK    2  A    between atoms: S_1  and  C_25
REMARK    3  A    between atoms: N_5  and  C_14
REMARK    4  A    between atoms: C_7  and  C_11
REMARK    5  A    between atoms: C_8  and  C_13
REMARK    6  A    between atoms: C_11  and  C_17
REMARK    7  A    between atoms: C_13  and  C_21
REMARK    8  A    between atoms: C_23  and  C_24
REMARK                            x       y       z     vdW  Elec       q    Type
REMARK                         _______ _______ _______ _____ _____    ______ ____
ROOT
ATOM      4  N   UNL     1       2.802   0.501  21.704  0.00  0.00    -0.316 NA
ATOM      7  C   UNL     1       0.380   0.054  23.329  0.00  0.00    +0.004 C 
ATOM      8  C   UNL     1       1.332   1.252  23.559  0.00  0.00    +0.012 C 
ATOM      9  C   UNL     1       0.518  -0.423  21.874  0.00  0.00    +0.019 C 
ATOM     10  C   UNL     1       2.765   0.934  23.101  0.00  0.00    +0.085 C 
ATOM     12  C   UNL     1       1.971  -0.680  21.479  0.00  0.00    +0.081 C 
ATOM     31  H   UNL     1       3.764   0.293  21.440  0.00  0.00    +0.122 HD
ENDROOT
BRANCH   7  11
ATOM     11  C   UNL     1       0.591  -1.108  24.307  0.00  0.00    +0.099 C 
BRANCH  11  17
ATOM      2  O   UNL     1      -0.723  -0.736  26.304  0.00  0.00    -0.276 OA
ATOM      5  N   UNL     1      -1.500  -2.212  24.685  0.00  0.00    -0.312 N 
ATOM     17  C   UNL     1      -0.596  -1.308  25.224  0.00  0.00    +0.214 C 
ATOM     32  H   UNL     1      -1.305  -2.629  23.781  0.00  0.00    +0.149 HD
BRANCH   5  14
ATOM     14  C   UNL     1      -2.726  -2.593  25.349  0.00  0.00    +0.073 C 
ATOM     15  C   UNL     1      -3.341  -1.406  26.097  0.00  0.00    +0.022 C 
ATOM     16  C   UNL     1      -3.724  -3.201  24.358  0.00  0.00    +0.022 C 
ATOM     18  C   UNL     1      -3.938  -0.364  25.151  0.00  0.00    +0.002 C 
ATOM     19  C   UNL     1      -4.322  -2.157  23.415  0.00  0.00    +0.002 C 
ATOM     20  C   UNL     1      -4.936  -0.991  24.182  0.00  0.00    +0.000 C 
ENDBRANCH   5  14
ENDBRANCH  11  17
ENDBRANCH   7  11
BRANCH   8  13
ATOM     13  C   UNL     1       1.329   1.750  25.006  0.00  0.00    +0.064 C 
BRANCH  13  21
ATOM      3  O   UNL     1      -1.551   3.390  26.413  0.00  0.00    -0.359 OA
ATOM      6  N   UNL     1      -0.485   2.500  26.483  0.00  0.00    -0.083 NA
ATOM     21  C   UNL     1       0.114   2.585  25.292  0.00  0.00    +0.084 A 
ATOM     22  C   UNL     1      -0.523   3.502  24.438  0.00  0.00    +0.071 A 
ATOM     23  C   UNL     1      -1.563   3.980  25.191  0.00  0.00    +0.148 A 
BRANCH  23  24
ATOM     24  C   UNL     1      -2.633   4.954  24.944  0.00  0.00    +0.151 C 
BRANCH  24   1
ATOM      1  S   UNL     1      -3.859   4.383  23.715  0.00  0.00    -0.117 S 
BRANCH   1  25
ATOM     25  C   UNL     1      -4.908   3.353  24.733  0.00  0.00    +0.008 A 
ATOM     26  C   UNL     1      -5.778   2.441  24.137  0.00  0.00    +0.015 A 
ATOM     27  C   UNL     1      -4.855   3.462  26.122  0.00  0.00    +0.015 A 
ATOM     28  C   UNL     1      -6.597   1.637  24.931  0.00  0.00    +0.001 A 
ATOM     29  C   UNL     1      -5.673   2.658  26.916  0.00  0.00    +0.001 A 
ATOM     30  C   UNL     1      -6.544   1.746  26.320  0.00  0.00    +0.000 A 
ENDBRANCH   1  25
ENDBRANCH  24   1
ENDBRANCH  23  24
ENDBRANCH  13  21
ENDBRANCH   8  13
TORSDOF 8
ENDMDL
MODEL 7
REMARK VINA RESULT:      -0.2      2.132      5.804
REMARK  Name = 26743094
REMARK  8 active torsions:
REMARK  status: ('A' for Active; 'I' for Inactive)
REMARK    1  A    between atoms: S_1  and  C_24
REMARK    2  A    between atoms: S_1  and  C_25
REMARK    3  A    between atoms: N_5  and  C_14
REMARK    4  A    between atoms: C_7  and  C_11
REMARK    5  A    between atoms: C_8  and  C_13
REMARK    6  A    between atoms: C_11  and  C_17
REMARK    7  A    between atoms: C_13  and  C_21
REMARK    8  A    between atoms: C_23  and  C_24
REMARK                            x       y       z     vdW  Elec       q    Type
REMARK                         _______ _______ _______ _____ _____    ______ ____
ROOT
ATOM      4  N   UNL     1      -1.145   3.450  26.861  0.00  0.00    -0.316 NA
ATOM      7  C   UNL     1       0.020   2.515  24.316  0.00  0.00    +0.004 C 
ATOM      8  C   UNL     1      -1.301   3.317  24.386  0.00  0.00    +0.012 C 
ATOM      9  C   UNL     1       0.863   2.827  25.563  0.00  0.00    +0.019 C 
ATOM     10  C   UNL     1      -2.016   3.117  25.733  0.00  0.00    +0.085 C 
ATOM     12  C   UNL     1       0.076   2.646  26.860  0.00  0.00    +0.081 C 
ATOM     31  H   UNL     1      -1.649   3.298  27.734  0.00  0.00    +0.122 HD
ENDROOT
BRANCH   7  11
ATOM     11  C   UNL     1      -0.175   1.003  24.154  0.00  0.00    +0.099 C 
BRANCH  11  17
ATOM      2  O   UNL     1       0.283  -0.259  22.141  0.00  0.00    -0.276 OA
ATOM      5  N   UNL     1       2.038   0.763  23.272  0.00  0.00    -0.312 N 
ATOM     17  C   UNL     1       0.708   0.423  23.070  0.00  0.00    +0.214 C 
ATOM     32  H   UNL     1       2.287   1.336  24.070  0.00  0.00    +0.149 HD
BRANCH   5  14
ATOM     14  C   UNL     1       3.103   0.342  22.389  0.00  0.00    +0.073 C 
ATOM     15  C   UNL     1       4.356   1.201  22.588  0.00  0.00    +0.022 C 
ATOM     16  C   UNL     1       3.416  -1.147  22.573  0.00  0.00    +0.022 C 
ATOM     18  C   UNL     1       5.062   0.908  23.913  0.00  0.00    +0.002 C 
ATOM     19  C   UNL     1       4.123  -1.436  23.897  0.00  0.00    +0.002 C 
ATOM     20  C   UNL     1       5.372  -0.577  24.068  0.00  0.00    +0.000 C 
ENDBRANCH   5  14
ENDBRANCH  11  17
ENDBRANCH   7  11
BRANCH   8  13
ATOM     13  C   UNL     1      -2.249   3.012  23.225  0.00  0.00    +0.064 C 
BRANCH  13  21
ATOM      3  O   UNL     1      -5.273   1.505  24.469  0.00  0.00    -0.359 OA
ATOM      6  N   UNL     1      -4.467   2.606  24.200  0.00  0.00    -0.083 NA
ATOM     21  C   UNL     1      -3.360   2.097  23.652  0.00  0.00    +0.084 A 
ATOM     22  C   UNL     1      -3.409   0.696  23.551  0.00  0.00    +0.071 A 
ATOM     23  C   UNL     1      -4.632   0.374  24.077  0.00  0.00    +0.148 A 
BRANCH  23  24
ATOM     24  C   UNL     1      -5.346  -0.890  24.291  0.00  0.00    +0.151 C 
BRANCH  24   1
ATOM      1  S   UNL     1      -4.354  -2.362  23.859  0.00  0.00    -0.117 S 
BRANCH   1  25
ATOM     25  C   UNL     1      -2.841  -2.028  24.750  0.00  0.00    +0.008 A 
ATOM     26  C   UNL     1      -1.631  -2.544  24.289  0.00  0.00    +0.015 A 
ATOM     27  C   UNL     1      -2.871  -1.250  25.908  0.00  0.00    +0.015 A 
ATOM     28  C   UNL     1      -0.451  -2.284  24.985  0.00  0.00    +0.001 A 
ATOM     29  C   UNL     1      -1.691  -0.989  26.604  0.00  0.00    +0.001 A 
ATOM     30  C   UNL     1      -0.481  -1.506  26.142  0.00  0.00    +0.000 A 
ENDBRANCH   1  25
ENDBRANCH  24   1
ENDBRANCH  23  24
ENDBRANCH  13  21
ENDBRANCH   8  13
TORSDOF 8
ENDMDL
