MODEL 1
REMARK VINA RESULT:      -5.4      0.000      0.000
REMARK  Name = 75536595
REMARK  6 active torsions:
REMARK  status: ('A' for Active; 'I' for Inactive)
REMARK    1  A    between atoms: O_5  and  C_11
REMARK    2  A    between atoms: N_7  and  C_9
REMARK    3  A    between atoms: N_7  and  C_10
REMARK    4  A    between atoms: N_8  and  C_19
REMARK    5  A    between atoms: C_14  and  C_19
REMARK    6  A    between atoms: C_20  and  C_21
REMARK                            x       y       z     vdW  Elec       q    Type
REMARK                         _______ _______ _______ _____ _____    ______ ____
ROOT
ATOM      4  O   UNL     1      -1.692  -2.375  23.767  0.00  0.00    -0.371 OA
ATOM     10  C   UNL     1      -0.076  -0.833  24.573  0.00  0.00    +0.111 C 
ATOM     11  C   UNL     1      -1.284  -0.809  25.491  0.00  0.00    +0.164 C 
ATOM     14  C   UNL     1      -1.925  -2.151  25.168  0.00  0.00    +0.165 C 
ATOM     15  C   UNL     1      -0.658  -1.477  23.326  0.00  0.00    +0.181 C 
ENDROOT
BRANCH  11   5
ATOM      5  O   UNL     1      -0.930  -0.709  26.857  0.00  0.00    -0.388 OA
ATOM     26  H   UNL     1       0.005  -0.958  26.950  0.00  0.00    +0.210 HD
ENDBRANCH  11   5
BRANCH  10   7
ATOM      7  N   UNL     1       0.491   0.481  24.319  0.00  0.00    -0.306 NA
ATOM     25  H   UNL     1       0.754   0.569  23.338  0.00  0.00    +0.123 HD
BRANCH   7   9
ATOM      2  F   UNL     1      -2.021   5.322  25.421  0.00  0.00    -0.206 F 
ATOM      3  F   UNL     1       0.041   5.022  24.799  0.00  0.00    -0.206 F 
ATOM      9  C   UNL     1      -0.460   1.533  24.675  0.00  0.00    +0.054 C 
ATOM     12  C   UNL     1       0.043   2.293  25.910  0.00  0.00    +0.024 C 
ATOM     13  C   UNL     1      -0.660   2.479  23.485  0.00  0.00    +0.024 C 
ATOM     16  C   UNL     1      -0.891   3.447  26.270  0.00  0.00    +0.077 C 
ATOM     17  C   UNL     1      -1.594   3.633  23.844  0.00  0.00    +0.077 C 
ATOM     18  C   UNL     1      -1.116   4.370  25.085  0.00  0.00    +0.249 C 
ENDBRANCH   7   9
ENDBRANCH  10   7
BRANCH  14  19
ATOM     19  C   UNL     1      -3.416  -2.189  25.452  0.00  0.00    +0.138 C 
BRANCH  19   8
ATOM      6  O   UNL     1      -4.056  -0.258  23.426  0.00  0.00    -0.270 OA
ATOM      8  N   UNL     1      -3.941  -0.871  25.661  0.00  0.00    -0.308 N 
ATOM     20  C   UNL     1      -4.224   0.003  24.614  0.00  0.00    +0.251 C 
ATOM     27  H   UNL     1      -4.091  -0.582  26.621  0.00  0.00    +0.149 HD
BRANCH  20  21
ATOM      1  S   UNL     1      -6.303   1.469  25.681  0.00  0.00    -0.092 S 
ATOM     21  C   UNL     1      -4.738   1.342  24.997  0.00  0.00    +0.074 A 
ATOM     22  C   UNL     1      -4.123   2.569  24.883  0.00  0.00    +0.021 A 
ATOM     23  C   UNL     1      -4.947   3.627  25.364  0.00  0.00    +0.008 A 
ATOM     24  C   UNL     1      -6.160   3.169  25.827  0.00  0.00    +0.046 A 
ENDBRANCH  20  21
ENDBRANCH  19   8
ENDBRANCH  14  19
TORSDOF 6
ENDMDL
MODEL 2
REMARK VINA RESULT:      -5.3      3.628      6.351
REMARK  Name = 75536595
REMARK  6 active torsions:
REMARK  status: ('A' for Active; 'I' for Inactive)
REMARK    1  A    between atoms: O_5  and  C_11
REMARK    2  A    between atoms: N_7  and  C_9
REMARK    3  A    between atoms: N_7  and  C_10
REMARK    4  A    between atoms: N_8  and  C_19
REMARK    5  A    between atoms: C_14  and  C_19
REMARK    6  A    between atoms: C_20  and  C_21
REMARK                            x       y       z     vdW  Elec       q    Type
REMARK                         _______ _______ _______ _____ _____    ______ ____
ROOT
ATOM      4  O   UNL     1      -2.798   3.822  23.446  0.00  0.00    -0.371 OA
ATOM     10  C   UNL     1      -4.253   2.741  24.981  0.00  0.00    +0.111 C 
ATOM     11  C   UNL     1      -2.993   3.168  25.711  0.00  0.00    +0.164 C 
ATOM     14  C   UNL     1      -2.467   4.250  24.778  0.00  0.00    +0.165 C 
ATOM     15  C   UNL     1      -3.792   2.785  23.533  0.00  0.00    +0.181 C 
ENDROOT
BRANCH  11   5
ATOM      5  O   UNL     1      -3.257   3.672  27.006  0.00  0.00    -0.388 OA
ATOM     26  H   UNL     1      -4.202   3.895  27.061  0.00  0.00    +0.210 HD
ENDBRANCH  11   5
BRANCH  10   7
ATOM      7  N   UNL     1      -4.742   1.431  25.379  0.00  0.00    -0.306 NA
ATOM     25  H   UNL     1      -5.719   1.322  25.111  0.00  0.00    +0.123 HD
BRANCH   7   9
ATOM      2  F   UNL     1      -2.254  -3.379  24.101  0.00  0.00    -0.206 F 
ATOM      3  F   UNL     1      -3.651  -3.012  25.727  0.00  0.00    -0.206 F 
ATOM      9  C   UNL     1      -3.938   0.371  24.773  0.00  0.00    +0.054 C 
ATOM     12  C   UNL     1      -2.920  -0.158  25.792  0.00  0.00    +0.024 C 
ATOM     13  C   UNL     1      -4.852  -0.752  24.268  0.00  0.00    +0.024 C 
ATOM     16  C   UNL     1      -2.108  -1.317  25.216  0.00  0.00    +0.077 C 
ATOM     17  C   UNL     1      -4.042  -1.911  23.691  0.00  0.00    +0.077 C 
ATOM     18  C   UNL     1      -3.011  -2.418  24.686  0.00  0.00    +0.249 C 
ENDBRANCH   7   9
ENDBRANCH  10   7
BRANCH  14  19
ATOM     19  C   UNL     1      -0.968   4.463  24.890  0.00  0.00    +0.138 C 
BRANCH  19   8
ATOM      6  O   UNL     1       0.090   1.997  25.915  0.00  0.00    -0.270 OA
ATOM      8  N   UNL     1      -0.242   3.469  24.152  0.00  0.00    -0.308 N 
ATOM     20  C   UNL     1       0.236   2.298  24.734  0.00  0.00    +0.251 C 
ATOM     27  H   UNL     1      -0.071   3.659  23.171  0.00  0.00    +0.149 HD
BRANCH  20  21
ATOM      1  S   UNL     1       0.201   0.007  23.196  0.00  0.00    -0.092 S 
ATOM     21  C   UNL     1       0.991   1.383  23.840  0.00  0.00    +0.074 A 
ATOM     22  C   UNL     1       2.301   1.468  23.423  0.00  0.00    +0.021 A 
ATOM     23  C   UNL     1       2.660   0.391  22.564  0.00  0.00    +0.008 A 
ATOM     24  C   UNL     1       1.612  -0.478  22.356  0.00  0.00    +0.046 A 
ENDBRANCH  20  21
ENDBRANCH  19   8
ENDBRANCH  14  19
TORSDOF 6
ENDMDL
MODEL 3
REMARK VINA RESULT:      -5.2      2.813      4.901
REMARK  Name = 75536595
REMARK  6 active torsions:
REMARK  status: ('A' for Active; 'I' for Inactive)
REMARK    1  A    between atoms: O_5  and  C_11
REMARK    2  A    between atoms: N_7  and  C_9
REMARK    3  A    between atoms: N_7  and  C_10
REMARK    4  A    between atoms: N_8  and  C_19
REMARK    5  A    between atoms: C_14  and  C_19
REMARK    6  A    between atoms: C_20  and  C_21
REMARK                            x       y       z     vdW  Elec       q    Type
REMARK                         _______ _______ _______ _____ _____    ______ ____
ROOT
ATOM      4  O   UNL     1      -0.124   2.925  23.337  0.00  0.00    -0.371 OA
ATOM     10  C   UNL     1      -0.840   3.738  25.450  0.00  0.00    +0.111 C 
ATOM     11  C   UNL     1      -0.301   2.329  25.619  0.00  0.00    +0.164 C 
ATOM     14  C   UNL     1       0.558   2.193  24.369  0.00  0.00    +0.165 C 
ATOM     15  C   UNL     1      -1.099   3.784  23.954  0.00  0.00    +0.181 C 
ENDROOT
BRANCH  11   5
ATOM      5  O   UNL     1       0.460   2.173  26.801  0.00  0.00    -0.388 OA
ATOM     26  H   UNL     1       1.224   2.772  26.754  0.00  0.00    +0.210 HD
ENDBRANCH  11   5
BRANCH  10   7
ATOM      7  N   UNL     1      -2.031   4.005  26.240  0.00  0.00    -0.306 NA
ATOM     25  H   UNL     1      -2.060   4.987  26.513  0.00  0.00    +0.123 HD
BRANCH   7   9
ATOM      2  F   UNL     1      -6.904   1.925  24.543  0.00  0.00    -0.206 F 
ATOM      3  F   UNL     1      -5.905   1.556  26.439  0.00  0.00    -0.206 F 
ATOM      9  C   UNL     1      -3.237   3.659  25.492  0.00  0.00    +0.054 C 
ATOM     12  C   UNL     1      -3.278   2.146  25.240  0.00  0.00    +0.024 C 
ATOM     13  C   UNL     1      -4.479   4.128  26.260  0.00  0.00    +0.024 C 
ATOM     16  C   UNL     1      -4.563   1.737  24.521  0.00  0.00    +0.077 C 
ATOM     17  C   UNL     1      -5.763   3.721  25.541  0.00  0.00    +0.077 C 
ATOM     18  C   UNL     1      -5.795   2.227  25.262  0.00  0.00    +0.249 C 
ENDBRANCH   7   9
ENDBRANCH  10   7
BRANCH  14  19
ATOM     19  C   UNL     1       0.756   0.753  23.931  0.00  0.00    +0.138 C 
BRANCH  19   8
ATOM      6  O   UNL     1      -0.290  -1.292  25.655  0.00  0.00    -0.270 OA
ATOM      8  N   UNL     1      -0.500   0.072  23.790  0.00  0.00    -0.308 N 
ATOM     20  C   UNL     1      -0.928  -0.911  24.678  0.00  0.00    +0.251 C 
ATOM     27  H   UNL     1      -1.074   0.326  22.994  0.00  0.00    +0.149 HD
BRANCH  20  21
ATOM      1  S   UNL     1      -2.431  -3.224  24.609  0.00  0.00    -0.092 S 
ATOM     21  C   UNL     1      -2.240  -1.539  24.378  0.00  0.00    +0.074 A 
ATOM     22  C   UNL     1      -3.396  -0.946  23.916  0.00  0.00    +0.021 A 
ATOM     23  C   UNL     1      -4.450  -1.890  23.751  0.00  0.00    +0.008 A 
ATOM     24  C   UNL     1      -4.062  -3.166  24.091  0.00  0.00    +0.046 A 
ENDBRANCH  20  21
ENDBRANCH  19   8
ENDBRANCH  14  19
TORSDOF 6
ENDMDL
MODEL 4
REMARK VINA RESULT:      -4.0      3.286      4.998
REMARK  Name = 75536595
REMARK  6 active torsions:
REMARK  status: ('A' for Active; 'I' for Inactive)
REMARK    1  A    between atoms: O_5  and  C_11
REMARK    2  A    between atoms: N_7  and  C_9
REMARK    3  A    between atoms: N_7  and  C_10
REMARK    4  A    between atoms: N_8  and  C_19
REMARK    5  A    between atoms: C_14  and  C_19
REMARK    6  A    between atoms: C_20  and  C_21
REMARK                            x       y       z     vdW  Elec       q    Type
REMARK                         _______ _______ _______ _____ _____    ______ ____
ROOT
ATOM      4  O   UNL     1       0.007   3.636  25.734  0.00  0.00    -0.371 OA
ATOM     10  C   UNL     1       0.164   1.327  25.201  0.00  0.00    +0.111 C 
ATOM     11  C   UNL     1      -0.879   1.971  24.307  0.00  0.00    +0.164 C 
ATOM     14  C   UNL     1      -0.476   3.437  24.395  0.00  0.00    +0.165 C 
ATOM     15  C   UNL     1       0.275   2.350  26.320  0.00  0.00    +0.181 C 
ENDROOT
BRANCH  11   5
ATOM      5  O   UNL     1      -0.830   1.490  22.977  0.00  0.00    -0.388 OA
ATOM     26  H   UNL     1      -1.656   1.742  22.530  0.00  0.00    +0.210 HD
ENDBRANCH  11   5
BRANCH  10   7
ATOM      7  N   UNL     1      -0.210   0.006  25.676  0.00  0.00    -0.306 NA
ATOM     25  H   UNL     1      -0.444   0.041  26.668  0.00  0.00    +0.123 HD
BRANCH   7   9
ATOM      2  F   UNL     1      -4.649  -2.839  23.897  0.00  0.00    -0.206 F 
ATOM      3  F   UNL     1      -3.575  -3.112  25.768  0.00  0.00    -0.206 F 
ATOM      9  C   UNL     1      -1.344  -0.516  24.916  0.00  0.00    +0.054 C 
ATOM     12  C   UNL     1      -1.114  -1.998  24.590  0.00  0.00    +0.024 C 
ATOM     13  C   UNL     1      -2.640  -0.318  25.712  0.00  0.00    +0.024 C 
ATOM     16  C   UNL     1      -2.313  -2.597  23.856  0.00  0.00    +0.077 C 
ATOM     17  C   UNL     1      -3.839  -0.916  24.978  0.00  0.00    +0.077 C 
ATOM     18  C   UNL     1      -3.604  -2.376  24.626  0.00  0.00    +0.249 C 
ENDBRANCH   7   9
ENDBRANCH  10   7
BRANCH  14  19
ATOM     19  C   UNL     1      -1.622   4.392  24.115  0.00  0.00    +0.138 C 
BRANCH  19   8
ATOM      6  O   UNL     1      -2.985   3.992  26.610  0.00  0.00    -0.270 OA
ATOM      8  N   UNL     1      -2.893   3.754  24.304  0.00  0.00    -0.308 N 
ATOM     20  C   UNL     1      -3.481   3.603  25.557  0.00  0.00    +0.251 C 
ATOM     27  H   UNL     1      -3.354   3.393  23.476  0.00  0.00    +0.149 HD
BRANCH  20  21
ATOM      1  S   UNL     1      -5.320   2.068  24.186  0.00  0.00    -0.092 S 
ATOM     21  C   UNL     1      -4.787   2.896  25.587  0.00  0.00    +0.074 A 
ATOM     22  C   UNL     1      -5.691   2.795  26.621  0.00  0.00    +0.021 A 
ATOM     23  C   UNL     1      -6.835   2.028  26.259  0.00  0.00    +0.008 A 
ATOM     24  C   UNL     1      -6.763   1.572  24.962  0.00  0.00    +0.046 A 
ENDBRANCH  20  21
ENDBRANCH  19   8
ENDBRANCH  14  19
TORSDOF 6
ENDMDL
MODEL 5
REMARK VINA RESULT:      -3.9      4.413      7.000
REMARK  Name = 75536595
REMARK  6 active torsions:
REMARK  status: ('A' for Active; 'I' for Inactive)
REMARK    1  A    between atoms: O_5  and  C_11
REMARK    2  A    between atoms: N_7  and  C_9
REMARK    3  A    between atoms: N_7  and  C_10
REMARK    4  A    between atoms: N_8  and  C_19
REMARK    5  A    between atoms: C_14  and  C_19
REMARK    6  A    between atoms: C_20  and  C_21
REMARK                            x       y       z     vdW  Elec       q    Type
REMARK                         _______ _______ _______ _____ _____    ______ ____
ROOT
ATOM      4  O   UNL     1      -1.846   1.911  22.629  0.00  0.00    -0.371 OA
ATOM     10  C   UNL     1      -2.772   1.916  24.816  0.00  0.00    +0.111 C 
ATOM     11  C   UNL     1      -1.680   0.865  24.744  0.00  0.00    +0.164 C 
ATOM     14  C   UNL     1      -0.885   1.351  23.540  0.00  0.00    +0.165 C 
ATOM     15  C   UNL     1      -3.074   2.138  23.343  0.00  0.00    +0.181 C 
ENDROOT
BRANCH  11   5
ATOM      5  O   UNL     1      -0.887   0.820  25.915  0.00  0.00    -0.388 OA
ATOM     26  H   UNL     1      -1.480   0.770  26.684  0.00  0.00    +0.210 HD
ENDBRANCH  11   5
BRANCH  10   7
ATOM      7  N   UNL     1      -3.937   1.495  25.576  0.00  0.00    -0.306 NA
ATOM     25  H   UNL     1      -4.754   2.038  25.300  0.00  0.00    +0.123 HD
BRANCH   7   9
ATOM      2  F   UNL     1      -3.628  -3.907  24.277  0.00  0.00    -0.206 F 
ATOM      3  F   UNL     1      -2.104  -2.388  23.959  0.00  0.00    -0.206 F 
ATOM      9  C   UNL     1      -4.197   0.070  25.379  0.00  0.00    +0.054 C 
ATOM     12  C   UNL     1      -4.148  -0.266  23.883  0.00  0.00    +0.024 C 
ATOM     13  C   UNL     1      -3.177  -0.760  26.168  0.00  0.00    +0.024 C 
ATOM     16  C   UNL     1      -4.345  -1.762  23.642  0.00  0.00    +0.077 C 
ATOM     17  C   UNL     1      -3.374  -2.256  25.929  0.00  0.00    +0.077 C 
ATOM     18  C   UNL     1      -3.356  -2.589  24.446  0.00  0.00    +0.249 C 
ENDBRANCH   7   9
ENDBRANCH  10   7
BRANCH  14  19
ATOM     19  C   UNL     1      -0.107   0.245  22.848  0.00  0.00    +0.138 C 
BRANCH  19   8
ATOM      6  O   UNL     1       2.207  -0.232  21.216  0.00  0.00    -0.270 OA
ATOM      8  N   UNL     1       1.259   0.215  23.286  0.00  0.00    -0.308 N 
ATOM     20  C   UNL     1       2.323  -0.025  22.421  0.00  0.00    +0.251 C 
ATOM     27  H   UNL     1       1.429   0.363  24.275  0.00  0.00    +0.149 HD
BRANCH  20  21
ATOM      1  S   UNL     1       4.215  -1.481  23.804  0.00  0.00    -0.092 S 
ATOM     21  C   UNL     1       3.675  -0.050  23.035  0.00  0.00    +0.074 A 
ATOM     22  C   UNL     1       4.618   0.953  23.089  0.00  0.00    +0.021 A 
ATOM     23  C   UNL     1       5.799   0.540  23.770  0.00  0.00    +0.008 A 
ATOM     24  C   UNL     1       5.714  -0.762  24.211  0.00  0.00    +0.046 A 
ENDBRANCH  20  21
ENDBRANCH  19   8
ENDBRANCH  14  19
TORSDOF 6
ENDMDL
MODEL 6
REMARK VINA RESULT:      -3.9      3.192      4.841
REMARK  Name = 75536595
REMARK  6 active torsions:
REMARK  status: ('A' for Active; 'I' for Inactive)
REMARK    1  A    between atoms: O_5  and  C_11
REMARK    2  A    between atoms: N_7  and  C_9
REMARK    3  A    between atoms: N_7  and  C_10
REMARK    4  A    between atoms: N_8  and  C_19
REMARK    5  A    between atoms: C_14  and  C_19
REMARK    6  A    between atoms: C_20  and  C_21
REMARK                            x       y       z     vdW  Elec       q    Type
REMARK                         _______ _______ _______ _____ _____    ______ ____
ROOT
ATOM      4  O   UNL     1      -0.310   3.286  26.417  0.00  0.00    -0.371 OA
ATOM     10  C   UNL     1       0.449   1.964  24.597  0.00  0.00    +0.111 C 
ATOM     11  C   UNL     1      -0.471   3.049  24.070  0.00  0.00    +0.164 C 
ATOM     14  C   UNL     1      -0.417   4.058  25.209  0.00  0.00    +0.165 C 
ATOM     15  C   UNL     1       0.080   1.946  26.071  0.00  0.00    +0.181 C 
ENDROOT
BRANCH  11   5
ATOM      5  O   UNL     1      -0.018   3.606  22.851  0.00  0.00    -0.388 OA
ATOM     26  H   UNL     1       0.467   2.919  22.362  0.00  0.00    +0.210 HD
ENDBRANCH  11   5
BRANCH  10   7
ATOM      7  N   UNL     1       0.261   0.676  23.950  0.00  0.00    -0.306 NA
ATOM     25  H   UNL     1       1.159   0.207  23.829  0.00  0.00    +0.123 HD
BRANCH   7   9
ATOM      2  F   UNL     1      -3.717  -2.824  25.649  0.00  0.00    -0.206 F 
ATOM      3  F   UNL     1      -3.290  -2.209  23.607  0.00  0.00    -0.206 F 
ATOM      9  C   UNL     1      -0.641  -0.169  24.730  0.00  0.00    +0.054 C 
ATOM     12  C   UNL     1      -2.087   0.310  24.552  0.00  0.00    +0.024 C 
ATOM     13  C   UNL     1      -0.485  -1.633  24.300  0.00  0.00    +0.024 C 
ATOM     16  C   UNL     1      -3.068  -0.594  25.297  0.00  0.00    +0.077 C 
ATOM     17  C   UNL     1      -1.464  -2.538  25.046  0.00  0.00    +0.077 C 
ATOM     18  C   UNL     1      -2.896  -2.049  24.897  0.00  0.00    +0.249 C 
ENDBRANCH   7   9
ENDBRANCH  10   7
BRANCH  14  19
ATOM     19  C   UNL     1      -1.643   4.952  25.279  0.00  0.00    +0.138 C 
BRANCH  19   8
ATOM      6  O   UNL     1      -3.273   3.594  23.344  0.00  0.00    -0.270 OA
ATOM      8  N   UNL     1      -2.830   4.191  25.542  0.00  0.00    -0.308 N 
ATOM     20  C   UNL     1      -3.562   3.563  24.537  0.00  0.00    +0.251 C 
ATOM     27  H   UNL     1      -3.137   4.135  26.507  0.00  0.00    +0.149 HD
BRANCH  20  21
ATOM      1  S   UNL     1      -5.476   3.204  26.492  0.00  0.00    -0.092 S 
ATOM     21  C   UNL     1      -4.782   2.836  24.971  0.00  0.00    +0.074 A 
ATOM     22  C   UNL     1      -5.484   1.854  24.306  0.00  0.00    +0.021 A 
ATOM     23  C   UNL     1      -6.607   1.400  25.056  0.00  0.00    +0.008 A 
ATOM     24  C   UNL     1      -6.720   2.050  26.265  0.00  0.00    +0.046 A 
ENDBRANCH  20  21
ENDBRANCH  19   8
ENDBRANCH  14  19
TORSDOF 6
ENDMDL
MODEL 7
REMARK VINA RESULT:      -3.6      3.126      4.015
REMARK  Name = 75536595
REMARK  6 active torsions:
REMARK  status: ('A' for Active; 'I' for Inactive)
REMARK    1  A    between atoms: O_5  and  C_11
REMARK    2  A    between atoms: N_7  and  C_9
REMARK    3  A    between atoms: N_7  and  C_10
REMARK    4  A    between atoms: N_8  and  C_19
REMARK    5  A    between atoms: C_14  and  C_19
REMARK    6  A    between atoms: C_20  and  C_21
REMARK                            x       y       z     vdW  Elec       q    Type
REMARK                         _______ _______ _______ _____ _____    ______ ____
ROOT
ATOM      4  O   UNL     1      -1.537  -2.597  23.932  0.00  0.00    -0.371 OA
ATOM     10  C   UNL     1       0.114  -0.904  24.145  0.00  0.00    +0.111 C 
ATOM     11  C   UNL     1      -1.041  -0.587  25.076  0.00  0.00    +0.164 C 
ATOM     14  C   UNL     1      -1.693  -1.956  25.210  0.00  0.00    +0.165 C 
ATOM     15  C   UNL     1      -0.534  -1.888  23.185  0.00  0.00    +0.181 C 
ENDROOT
BRANCH  11   5
ATOM      5  O   UNL     1      -0.612  -0.083  26.326  0.00  0.00    -0.388 OA
ATOM     26  H   UNL     1       0.256  -0.471  26.531  0.00  0.00    +0.210 HD
ENDBRANCH  11   5
BRANCH  10   7
ATOM      7  N   UNL     1       0.660   0.265  23.475  0.00  0.00    -0.306 NA
ATOM     25  H   UNL     1       0.667   1.064  24.108  0.00  0.00    +0.123 HD
BRANCH   7   9
ATOM      2  F   UNL     1       6.173  -0.231  22.905  0.00  0.00    -0.206 F 
ATOM      3  F   UNL     1       5.092   0.535  24.629  0.00  0.00    -0.206 F 
ATOM      9  C   UNL     1       2.014   0.001  22.992  0.00  0.00    +0.054 C 
ATOM     12  C   UNL     1       2.811   1.311  22.933  0.00  0.00    +0.024 C 
ATOM     13  C   UNL     1       2.701  -1.025  23.903  0.00  0.00    +0.024 C 
ATOM     16  C   UNL     1       4.255   1.064  22.500  0.00  0.00    +0.077 C 
ATOM     17  C   UNL     1       4.144  -1.273  23.470  0.00  0.00    +0.077 C 
ATOM     18  C   UNL     1       4.929   0.025  23.381  0.00  0.00    +0.249 C 
ENDBRANCH   7   9
ENDBRANCH  10   7
BRANCH  14  19
ATOM     19  C   UNL     1      -3.166  -1.887  25.573  0.00  0.00    +0.138 C 
BRANCH  19   8
ATOM      6  O   UNL     1      -4.116  -0.161  23.483  0.00  0.00    -0.270 OA
ATOM      8  N   UNL     1      -3.605  -0.529  25.717  0.00  0.00    -0.308 N 
ATOM     20  C   UNL     1      -4.052   0.237  24.643  0.00  0.00    +0.251 C 
ATOM     27  H   UNL     1      -3.565  -0.128  26.647  0.00  0.00    +0.149 HD
BRANCH  20  21
ATOM      1  S   UNL     1      -3.260   2.867  24.908  0.00  0.00    -0.092 S 
ATOM     21  C   UNL     1      -4.447   1.634  24.953  0.00  0.00    +0.074 A 
ATOM     22  C   UNL     1      -5.689   2.126  25.293  0.00  0.00    +0.021 A 
ATOM     23  C   UNL     1      -5.664   3.532  25.518  0.00  0.00    +0.008 A 
ATOM     24  C   UNL     1      -4.405   4.062  25.343  0.00  0.00    +0.046 A 
ENDBRANCH  20  21
ENDBRANCH  19   8
ENDBRANCH  14  19
TORSDOF 6
ENDMDL
MODEL 8
REMARK VINA RESULT:      -3.1      3.499      6.001
REMARK  Name = 75536595
REMARK  6 active torsions:
REMARK  status: ('A' for Active; 'I' for Inactive)
REMARK    1  A    between atoms: O_5  and  C_11
REMARK    2  A    between atoms: N_7  and  C_9
REMARK    3  A    between atoms: N_7  and  C_10
REMARK    4  A    between atoms: N_8  and  C_19
REMARK    5  A    between atoms: C_14  and  C_19
REMARK    6  A    between atoms: C_20  and  C_21
REMARK                            x       y       z     vdW  Elec       q    Type
REMARK                         _______ _______ _______ _____ _____    ______ ____
ROOT
ATOM      4  O   UNL     1      -0.592  -0.895  25.453  0.00  0.00    -0.371 OA
ATOM     10  C   UNL     1      -2.944  -1.131  25.677  0.00  0.00    +0.111 C 
ATOM     11  C   UNL     1      -2.591  -1.081  24.203  0.00  0.00    +0.164 C 
ATOM     14  C   UNL     1      -1.117  -1.463  24.241  0.00  0.00    +0.165 C 
ATOM     15  C   UNL     1      -1.694  -0.540  26.307  0.00  0.00    +0.181 C 
ENDROOT
BRANCH  11   5
ATOM      5  O   UNL     1      -3.350  -1.988  23.428  0.00  0.00    -0.388 OA
ATOM     26  H   UNL     1      -4.221  -1.591  23.257  0.00  0.00    +0.210 HD
ENDBRANCH  11   5
BRANCH  10   7
ATOM      7  N   UNL     1      -4.150  -0.392  26.013  0.00  0.00    -0.306 NA
ATOM     25  H   UNL     1      -4.131  -0.111  26.993  0.00  0.00    +0.123 HD
BRANCH   7   9
ATOM      2  F   UNL     1      -4.336   4.772  23.950  0.00  0.00    -0.206 F 
ATOM      3  F   UNL     1      -3.848   4.186  25.987  0.00  0.00    -0.206 F 
ATOM      9  C   UNL     1      -4.291   0.786  25.160  0.00  0.00    +0.054 C 
ATOM     12  C   UNL     1      -5.399   1.696  25.707  0.00  0.00    +0.024 C 
ATOM     13  C   UNL     1      -2.953   1.531  25.075  0.00  0.00    +0.024 C 
ATOM     16  C   UNL     1      -5.527   2.974  24.880  0.00  0.00    +0.077 C 
ATOM     17  C   UNL     1      -3.080   2.808  24.247  0.00  0.00    +0.077 C 
ATOM     18  C   UNL     1      -4.197   3.699  24.767  0.00  0.00    +0.249 C 
ENDBRANCH   7   9
ENDBRANCH  10   7
BRANCH  14  19
ATOM     19  C   UNL     1      -0.331  -0.946  23.050  0.00  0.00    +0.138 C 
BRANCH  19   8
ATOM      6  O   UNL     1       1.797  -0.259  21.248  0.00  0.00    -0.270 OA
ATOM      8  N   UNL     1       1.037  -0.688  23.398  0.00  0.00    -0.308 N 
ATOM     20  C   UNL     1       2.006  -0.361  22.454  0.00  0.00    +0.251 C 
ATOM     27  H   UNL     1       1.285  -0.770  24.378  0.00  0.00    +0.149 HD
BRANCH  20  21
ATOM      1  S   UNL     1       4.166  -1.428  23.799  0.00  0.00    -0.092 S 
ATOM     21  C   UNL     1       3.382  -0.150  22.972  0.00  0.00    +0.074 A 
ATOM     22  C   UNL     1       4.173   0.975  22.891  0.00  0.00    +0.021 A 
ATOM     23  C   UNL     1       5.439   0.784  23.514  0.00  0.00    +0.008 A 
ATOM     24  C   UNL     1       5.568  -0.478  24.049  0.00  0.00    +0.046 A 
ENDBRANCH  20  21
ENDBRANCH  19   8
ENDBRANCH  14  19
TORSDOF 6
ENDMDL
MODEL 9
REMARK VINA RESULT:      -2.7      2.234      4.537
REMARK  Name = 75536595
REMARK  6 active torsions:
REMARK  status: ('A' for Active; 'I' for Inactive)
REMARK    1  A    between atoms: O_5  and  C_11
REMARK    2  A    between atoms: N_7  and  C_9
REMARK    3  A    between atoms: N_7  and  C_10
REMARK    4  A    between atoms: N_8  and  C_19
REMARK    5  A    between atoms: C_14  and  C_19
REMARK    6  A    between atoms: C_20  and  C_21
REMARK                            x       y       z     vdW  Elec       q    Type
REMARK                         _______ _______ _______ _____ _____    ______ ____
ROOT
ATOM      4  O   UNL     1      -3.621  -1.428  26.329  0.00  0.00    -0.371 OA
ATOM     10  C   UNL     1      -4.675   0.014  24.764  0.00  0.00    +0.111 C 
ATOM     11  C   UNL     1      -3.746  -0.928  24.021  0.00  0.00    +0.164 C 
ATOM     14  C   UNL     1      -3.598  -2.054  25.034  0.00  0.00    +0.165 C 
ATOM     15  C   UNL     1      -4.142  -0.096  26.183  0.00  0.00    +0.181 C 
ENDROOT
BRANCH  11   5
ATOM      5  O   UNL     1      -4.296  -1.386  22.800  0.00  0.00    -0.388 OA
ATOM     26  H   UNL     1      -5.116  -1.870  22.997  0.00  0.00    +0.210 HD
ENDBRANCH  11   5
BRANCH  10   7
ATOM      7  N   UNL     1      -4.654   1.376  24.255  0.00  0.00    -0.306 NA
ATOM     25  H   UNL     1      -5.525   1.852  24.487  0.00  0.00    +0.123 HD
BRANCH   7   9
ATOM      2  F   UNL     1      -0.846   5.228  25.526  0.00  0.00    -0.206 F 
ATOM      3  F   UNL     1      -2.532   5.443  24.170  0.00  0.00    -0.206 F 
ATOM      9  C   UNL     1      -3.519   2.117  24.803  0.00  0.00    +0.054 C 
ATOM     12  C   UNL     1      -2.577   2.539  23.668  0.00  0.00    +0.024 C 
ATOM     13  C   UNL     1      -4.022   3.334  25.589  0.00  0.00    +0.024 C 
ATOM     16  C   UNL     1      -1.414   3.378  24.195  0.00  0.00    +0.077 C 
ATOM     17  C   UNL     1      -2.860   4.173  26.117  0.00  0.00    +0.077 C 
ATOM     18  C   UNL     1      -1.908   4.568  25.001  0.00  0.00    +0.249 C 
ENDBRANCH   7   9
ENDBRANCH  10   7
BRANCH  14  19
ATOM     19  C   UNL     1      -2.312  -2.845  24.870  0.00  0.00    +0.138 C 
BRANCH  19   8
ATOM      6  O   UNL     1      -0.744  -0.733  26.021  0.00  0.00    -0.270 OA
ATOM      8  N   UNL     1      -1.303  -2.069  24.209  0.00  0.00    -0.308 N 
ATOM     20  C   UNL     1      -0.589  -1.059  24.848  0.00  0.00    +0.251 C 
ATOM     27  H   UNL     1      -1.131  -2.275  23.230  0.00  0.00    +0.149 HD
BRANCH  20  21
ATOM      1  S   UNL     1       0.796   1.288  24.414  0.00  0.00    -0.092 S 
ATOM     21  C   UNL     1       0.404  -0.331  24.017  0.00  0.00    +0.074 A 
ATOM     22  C   UNL     1       1.100  -0.776  22.914  0.00  0.00    +0.021 A 
ATOM     23  C   UNL     1       1.966   0.226  22.389  0.00  0.00    +0.008 A 
ATOM     24  C   UNL     1       1.899   1.397  23.109  0.00  0.00    +0.046 A 
ENDBRANCH  20  21
ENDBRANCH  19   8
ENDBRANCH  14  19
TORSDOF 6
ENDMDL
MODEL 10
REMARK VINA RESULT:      -2.7      4.260      7.001
REMARK  Name = 75536595
REMARK  6 active torsions:
REMARK  status: ('A' for Active; 'I' for Inactive)
REMARK    1  A    between atoms: O_5  and  C_11
REMARK    2  A    between atoms: N_7  and  C_9
REMARK    3  A    between atoms: N_7  and  C_10
REMARK    4  A    between atoms: N_8  and  C_19
REMARK    5  A    between atoms: C_14  and  C_19
REMARK    6  A    between atoms: C_20  and  C_21
REMARK                            x       y       z     vdW  Elec       q    Type
REMARK                         _______ _______ _______ _____ _____    ______ ____
ROOT
ATOM      4  O   UNL     1      -0.416   3.970  23.659  0.00  0.00    -0.371 OA
ATOM     10  C   UNL     1      -1.401   4.015  25.819  0.00  0.00    +0.111 C 
ATOM     11  C   UNL     1      -0.839   2.630  25.561  0.00  0.00    +0.164 C 
ATOM     14  C   UNL     1       0.165   2.923  24.454  0.00  0.00    +0.165 C 
ATOM     15  C   UNL     1      -1.485   4.574  24.409  0.00  0.00    +0.181 C 
ENDROOT
BRANCH  11   5
ATOM      5  O   UNL     1      -0.217   2.071  26.702  0.00  0.00    -0.388 OA
ATOM     26  H   UNL     1      -0.846   1.463  27.127  0.00  0.00    +0.210 HD
ENDBRANCH  11   5
BRANCH  10   7
ATOM      7  N   UNL     1      -2.685   4.005  26.501  0.00  0.00    -0.306 NA
ATOM     25  H   UNL     1      -2.919   4.943  26.826  0.00  0.00    +0.123 HD
BRANCH   7   9
ATOM      2  F   UNL     1      -7.116   1.447  24.315  0.00  0.00    -0.206 F 
ATOM      3  F   UNL     1      -6.419   1.342  26.372  0.00  0.00    -0.206 F 
ATOM      9  C   UNL     1      -3.737   3.506  25.619  0.00  0.00    +0.054 C 
ATOM     12  C   UNL     1      -3.665   1.975  25.536  0.00  0.00    +0.024 C 
ATOM     13  C   UNL     1      -5.108   3.970  26.128  0.00  0.00    +0.024 C 
ATOM     16  C   UNL     1      -4.795   1.412  24.677  0.00  0.00    +0.077 C 
ATOM     17  C   UNL     1      -6.239   3.407  25.269  0.00  0.00    +0.077 C 
ATOM     18  C   UNL     1      -6.153   1.893  25.159  0.00  0.00    +0.249 C 
ENDBRANCH   7   9
ENDBRANCH  10   7
BRANCH  14  19
ATOM     19  C   UNL     1       0.461   1.718  23.578  0.00  0.00    +0.138 C 
BRANCH  19   8
ATOM      6  O   UNL     1       1.853  -0.174  21.926  0.00  0.00    -0.270 OA
ATOM      8  N   UNL     1       1.818   1.280  23.734  0.00  0.00    -0.308 N 
ATOM     20  C   UNL     1       2.414   0.354  22.882  0.00  0.00    +0.251 C 
ATOM     27  H   UNL     1       2.339   1.664  24.514  0.00  0.00    +0.149 HD
BRANCH  20  21
ATOM      1  S   UNL     1       4.154  -1.583  23.795  0.00  0.00    -0.092 S 
ATOM     21  C   UNL     1       3.818  -0.016  23.194  0.00  0.00    +0.074 A 
ATOM     22  C   UNL     1       4.960   0.746  23.071  0.00  0.00    +0.021 A 
ATOM     23  C   UNL     1       6.124   0.032  23.475  0.00  0.00    +0.008 A 
ATOM     24  C   UNL     1       5.829  -1.247  23.892  0.00  0.00    +0.046 A 
ENDBRANCH  20  21
ENDBRANCH  19   8
ENDBRANCH  14  19
TORSDOF 6
ENDMDL
