MODEL 1
REMARK VINA RESULT:      10.6      0.000      0.000
REMARK  Name = 11885143
REMARK  2 active torsions:
REMARK  status: ('A' for Active; 'I' for Inactive)
REMARK    1  A    between atoms: C_12  and  C_13
REMARK    2  A    between atoms: C_21  and  C_23
REMARK                            x       y       z     vdW  Elec       q    Type
REMARK                         _______ _______ _______ _____ _____    ______ ____
ROOT
ATOM      1  O   UNL     1      -3.352  -0.668  27.336  0.00  0.00    -0.275 OA
ATOM      2  O   UNL     1       0.494   2.390  25.226  0.00  0.00    -0.267 OA
ATOM      3  N   UNL     1      -4.116   0.412  25.426  0.00  0.00    -0.300 N 
ATOM      4  N   UNL     1      -1.606   2.020  24.281  0.00  0.00    -0.311 N 
ATOM      5  C   UNL     1      -3.767   2.885  25.349  0.00  0.00    +0.027 C 
ATOM      6  C   UNL     1      -3.868   1.601  23.254  0.00  0.00    +0.054 C 
ATOM      7  C   UNL     1      -4.300   2.904  23.922  0.00  0.00    +0.018 C 
ATOM      8  C   UNL     1      -4.338   1.682  26.121  0.00  0.00    +0.113 C 
ATOM      9  C   UNL     1      -4.490   0.406  24.004  0.00  0.00    +0.117 C 
ATOM     10  C   UNL     1      -2.234   2.866  25.306  0.00  0.00    +0.130 C 
ATOM     11  C   UNL     1      -2.357   1.468  23.241  0.00  0.00    +0.027 A 
ATOM     13  C   UNL     1      -3.660  -0.695  26.142  0.00  0.00    +0.219 C 
ATOM     16  C   UNL     1      -1.744   0.799  22.251  0.00  0.00    +0.022 A 
ATOM     19  C   UNL     1      -0.205   1.889  24.344  0.00  0.00    +0.259 A 
ATOM     21  C   UNL     1       0.449   1.102  23.239  0.00  0.00    +0.047 A 
ATOM     22  C   UNL     1      -0.321   0.611  22.257  0.00  0.00    +0.015 A 
ENDROOT
BRANCH  21  23
ATOM     23  C   UNL     1       1.903   0.863  23.230  0.00  0.00    -0.012 A 
ATOM     24  C   UNL     1       2.408  -0.388  23.589  0.00  0.00    +0.017 A 
ATOM     25  C   UNL     1       2.774   1.884  22.863  0.00  0.00    +0.009 A 
ATOM     26  C   UNL     1       3.791  -0.631  23.585  0.00  0.00    -0.017 A 
ATOM     27  C   UNL     1       4.151   1.660  22.853  0.00  0.00    +0.009 A 
ATOM     28  C   UNL     1       4.675   0.409  23.211  0.00  0.00    -0.018 A 
ATOM     29  C   UNL     1       4.315  -1.884  23.943  0.00  0.00    +0.008 A 
ATOM     30  C   UNL     1       6.059   0.165  23.207  0.00  0.00    +0.008 A 
ATOM     31  C   UNL     1       5.692  -2.109  23.933  0.00  0.00    +0.001 A 
ATOM     32  C   UNL     1       6.563  -1.086  23.566  0.00  0.00    +0.001 A 
ENDBRANCH  21  23
BRANCH  13  12
ATOM     12  C   UNL     1      -3.540  -1.982  25.383  0.00  0.00    +0.075 C 
ATOM     14  C   UNL     1      -4.477  -1.963  24.172  0.00  0.00    +0.013 C 
ATOM     15  C   UNL     1      -2.086  -2.206  24.961  0.00  0.00    +0.013 C 
ATOM     17  C   UNL     1      -4.319  -3.218  23.318  0.00  0.00    +0.001 C 
ATOM     18  C   UNL     1      -1.933  -3.459  24.103  0.00  0.00    +0.001 C 
ATOM     20  C   UNL     1      -2.868  -3.434  22.897  0.00  0.00    +0.000 C 
ENDBRANCH  13  12
TORSDOF 2
ENDMDL
MODEL 2
REMARK VINA RESULT:      13.0      1.856      4.243
REMARK  Name = 11885143
REMARK  2 active torsions:
REMARK  status: ('A' for Active; 'I' for Inactive)
REMARK    1  A    between atoms: C_12  and  C_13
REMARK    2  A    between atoms: C_21  and  C_23
REMARK                            x       y       z     vdW  Elec       q    Type
REMARK                         _______ _______ _______ _____ _____    ______ ____
ROOT
ATOM      1  O   UNL     1      -4.438   1.976  23.040  0.00  0.00    -0.275 OA
ATOM      2  O   UNL     1      -0.301  -1.325  22.271  0.00  0.00    -0.267 OA
ATOM      3  N   UNL     1      -4.420   0.293  24.642  0.00  0.00    -0.300 N 
ATOM      4  N   UNL     1      -1.788  -1.420  24.065  0.00  0.00    -0.311 N 
ATOM      5  C   UNL     1      -4.255  -2.045  23.777  0.00  0.00    +0.027 C 
ATOM      6  C   UNL     1      -3.383  -1.506  26.013  0.00  0.00    +0.054 C 
ATOM      7  C   UNL     1      -4.148  -2.555  25.209  0.00  0.00    +0.018 C 
ATOM      8  C   UNL     1      -5.003  -0.701  23.738  0.00  0.00    +0.113 C 
ATOM      9  C   UNL     1      -4.170  -0.180  26.011  0.00  0.00    +0.117 C 
ATOM     10  C   UNL     1      -2.845  -1.936  23.183  0.00  0.00    +0.130 C 
ATOM     11  C   UNL     1      -1.997  -1.281  25.439  0.00  0.00    +0.027 A 
ATOM     13  C   UNL     1      -4.220   1.600  24.194  0.00  0.00    +0.219 C 
ATOM     16  C   UNL     1      -0.982  -0.923  26.241  0.00  0.00    +0.022 A 
ATOM     19  C   UNL     1      -0.533  -1.180  23.472  0.00  0.00    +0.259 A 
ATOM     21  C   UNL     1       0.576  -0.744  24.392  0.00  0.00    +0.047 A 
ATOM     22  C   UNL     1       0.320  -0.646  25.705  0.00  0.00    +0.015 A 
ENDROOT
BRANCH  21  23
ATOM     23  C   UNL     1       1.916  -0.421  23.872  0.00  0.00    -0.012 A 
ATOM     24  C   UNL     1       3.013  -1.206  24.230  0.00  0.00    +0.017 A 
ATOM     25  C   UNL     1       2.089   0.668  23.023  0.00  0.00    +0.009 A 
ATOM     26  C   UNL     1       4.297  -0.910  23.743  0.00  0.00    -0.017 A 
ATOM     27  C   UNL     1       3.357   0.976  22.528  0.00  0.00    +0.009 A 
ATOM     28  C   UNL     1       4.470   0.197  22.879  0.00  0.00    -0.018 A 
ATOM     29  C   UNL     1       5.411  -1.690  24.093  0.00  0.00    +0.008 A 
ATOM     30  C   UNL     1       5.754   0.492  22.390  0.00  0.00    +0.008 A 
ATOM     31  C   UNL     1       6.679  -1.382  23.599  0.00  0.00    +0.001 A 
ATOM     32  C   UNL     1       6.851  -0.293  22.750  0.00  0.00    +0.001 A 
ENDBRANCH  21  23
BRANCH  13  12
ATOM     12  C   UNL     1      -3.702   2.582  25.201  0.00  0.00    +0.075 C 
ATOM     14  C   UNL     1      -2.172   2.544  25.227  0.00  0.00    +0.013 C 
ATOM     15  C   UNL     1      -4.221   3.985  24.876  0.00  0.00    +0.013 C 
ATOM     17  C   UNL     1      -1.598   3.596  26.172  0.00  0.00    +0.001 C 
ATOM     18  C   UNL     1      -3.642   5.034  25.821  0.00  0.00    +0.001 C 
ATOM     20  C   UNL     1      -2.116   4.993  25.841  0.00  0.00    +0.000 C 
ENDBRANCH  13  12
TORSDOF 2
ENDMDL
