MODEL 1
REMARK VINA RESULT:      25.8      0.000      0.000
REMARK  Name = 11911512
REMARK  8 active torsions:
REMARK  status: ('A' for Active; 'I' for Inactive)
REMARK    1  A    between atoms: O_5  and  C_32
REMARK    2  A    between atoms: O_5  and  C_37
REMARK    3  A    between atoms: O_6  and  C_36
REMARK    4  A    between atoms: O_6  and  C_38
REMARK    5  A    between atoms: N_8  and  C_14
REMARK    6  A    between atoms: C_22  and  C_28
REMARK    7  A    between atoms: C_24  and  C_30
REMARK    8  A    between atoms: C_27  and  C_31
REMARK                            x       y       z     vdW  Elec       q    Type
REMARK                         _______ _______ _______ _____ _____    ______ ____
ROOT
ATOM      1  O   UNL     1      -2.913  -1.681  25.380  0.00  0.00    -0.273 OA
ATOM      2  O   UNL     1       0.220   0.085  21.599  0.00  0.00    -0.270 OA
ATOM      7  N   UNL     1      -1.279   0.296  23.359  0.00  0.00    -0.286 N 
ATOM      9  N   UNL     1      -0.705  -2.116  24.975  0.00  0.00    -0.283 N 
ATOM     14  C   UNL     1      -3.807   1.293  24.422  0.00  0.00    +0.113 C 
ATOM     15  C   UNL     1      -1.515   0.196  24.795  0.00  0.00    +0.164 C 
ATOM     16  C   UNL     1      -2.586   1.150  25.339  0.00  0.00    +0.059 C 
ATOM     17  C   UNL     1      -3.349   1.645  23.003  0.00  0.00    +0.046 C 
ATOM     18  C   UNL     1      -2.418   0.565  22.475  0.00  0.00    +0.111 C 
ATOM     19  C   UNL     1      -1.797  -1.272  25.055  0.00  0.00    +0.238 C 
ATOM     20  C   UNL     1      -0.063  -0.078  22.786  0.00  0.00    +0.249 C 
ATOM     21  C   UNL     1       0.937  -0.783  23.632  0.00  0.00    +0.059 A 
ATOM     23  C   UNL     1       0.605  -1.796  24.549  0.00  0.00    +0.046 A 
ATOM     25  C   UNL     1       2.287  -0.541  23.325  0.00  0.00    +0.023 A 
ATOM     26  C   UNL     1       1.632  -2.589  25.087  0.00  0.00    +0.024 A 
ATOM     27  C   UNL     1       3.296  -1.305  23.908  0.00  0.00    -0.014 A 
ATOM     29  C   UNL     1       2.969  -2.338  24.778  0.00  0.00    +0.010 A 
ATOM     39  H   UNL     1      -0.838  -3.047  25.362  0.00  0.00    +0.155 HD
ENDROOT
BRANCH  27  31
ATOM     31  C   UNL     1       4.683  -1.040  23.588  0.00  0.00    +0.024 A 
ATOM     32  C   UNL     1       5.140   0.267  23.406  0.00  0.00    +0.131 A 
ATOM     33  C   UNL     1       5.570  -2.110  23.461  0.00  0.00    +0.016 A 
ATOM     34  C   UNL     1       6.481   0.502  23.098  0.00  0.00    +0.091 A 
ATOM     35  C   UNL     1       6.909  -1.875  23.154  0.00  0.00    +0.046 A 
ATOM     36  C   UNL     1       7.364  -0.570  22.972  0.00  0.00    +0.124 A 
BRANCH  32   5
ATOM      5  O   UNL     1       4.297   1.333  23.522  0.00  0.00    -0.494 OA
ATOM     37  C   UNL     1       3.833   1.925  22.312  0.00  0.00    +0.277 C 
ENDBRANCH  32   5
BRANCH  36   6
ATOM      6  O   UNL     1       8.673  -0.341  22.673  0.00  0.00    -0.495 OA
ATOM     38  C   UNL     1       9.495   0.186  23.713  0.00  0.00    +0.277 C 
ENDBRANCH  36   6
ENDBRANCH  27  31
BRANCH  14   8
ATOM      8  N   UNL     1      -4.796   2.240  24.951  0.00  0.00    -0.236 N 
ATOM     10  N   UNL     1      -5.906   1.785  25.546  0.00  0.00    -0.064 NA
ATOM     11  N   UNL     1      -6.610   2.848  25.919  0.00  0.00    -0.124 NA
ATOM     22  C   UNL     1      -4.751   3.595  24.923  0.00  0.00    +0.156 A 
ATOM     24  C   UNL     1      -5.916   3.965  25.544  0.00  0.00    +0.179 A 
BRANCH  22  28
ATOM      3  O   UNL     1      -3.815   5.013  23.277  0.00  0.00    -0.269 OA
ATOM     12  N   UNL     1      -2.514   4.512  25.080  0.00  0.00    -0.324 N 
ATOM     28  C   UNL     1      -3.709   4.395  24.362  0.00  0.00    +0.262 C 
ATOM     40  H   UNL     1      -2.373   4.045  25.970  0.00  0.00    +0.145 HD
ATOM     41  H   UNL     1      -1.748   5.076  24.728  0.00  0.00    +0.145 HD
ENDBRANCH  22  28
BRANCH  24  30
ATOM      4  O   UNL     1      -6.585   5.753  26.938  0.00  0.00    -0.269 OA
ATOM     13  N   UNL     1      -6.618   6.120  24.689  0.00  0.00    -0.324 N 
ATOM     30  C   UNL     1      -6.389   5.292  25.792  0.00  0.00    +0.264 C 
ATOM     42  H   UNL     1      -6.467   5.802  23.736  0.00  0.00    +0.145 HD
ATOM     43  H   UNL     1      -6.946   7.072  24.811  0.00  0.00    +0.145 HD
ENDBRANCH  24  30
ENDBRANCH  14   8
TORSDOF 6
ENDMDL
MODEL 2
REMARK VINA RESULT:      27.6      1.614      2.462
REMARK  Name = 11911512
REMARK  8 active torsions:
REMARK  status: ('A' for Active; 'I' for Inactive)
REMARK    1  A    between atoms: O_5  and  C_32
REMARK    2  A    between atoms: O_5  and  C_37
REMARK    3  A    between atoms: O_6  and  C_36
REMARK    4  A    between atoms: O_6  and  C_38
REMARK    5  A    between atoms: N_8  and  C_14
REMARK    6  A    between atoms: C_22  and  C_28
REMARK    7  A    between atoms: C_24  and  C_30
REMARK    8  A    between atoms: C_27  and  C_31
REMARK                            x       y       z     vdW  Elec       q    Type
REMARK                         _______ _______ _______ _____ _____    ______ ____
ROOT
ATOM      1  O   UNL     1      -1.155  -1.506  24.859  0.00  0.00    -0.273 OA
ATOM      2  O   UNL     1       2.012   0.439  21.194  0.00  0.00    -0.270 OA
ATOM      7  N   UNL     1       0.480   0.565  22.935  0.00  0.00    -0.286 N 
ATOM      9  N   UNL     1       1.067  -1.891  24.477  0.00  0.00    -0.283 N 
ATOM     14  C   UNL     1      -2.081   1.485  23.986  0.00  0.00    +0.113 C 
ATOM     15  C   UNL     1       0.222   0.412  24.362  0.00  0.00    +0.164 C 
ATOM     16  C   UNL     1      -0.874   1.330  24.920  0.00  0.00    +0.059 C 
ATOM     17  C   UNL     1      -1.606   1.893  22.589  0.00  0.00    +0.046 C 
ATOM     18  C   UNL     1      -0.648   0.846  22.041  0.00  0.00    +0.111 C 
ATOM     19  C   UNL     1      -0.041  -1.068  24.567  0.00  0.00    +0.238 C 
ATOM     20  C   UNL     1       1.712   0.231  22.370  0.00  0.00    +0.249 C 
ATOM     21  C   UNL     1       2.709  -0.487  23.209  0.00  0.00    +0.059 A 
ATOM     23  C   UNL     1       2.378  -1.536  24.086  0.00  0.00    +0.046 A 
ATOM     25  C   UNL     1       4.060  -0.213  22.935  0.00  0.00    +0.023 A 
ATOM     26  C   UNL     1       3.409  -2.330  24.614  0.00  0.00    +0.024 A 
ATOM     27  C   UNL     1       5.071  -0.980  23.509  0.00  0.00    -0.014 A 
ATOM     29  C   UNL     1       4.746  -2.047  24.337  0.00  0.00    +0.010 A 
ATOM     39  H   UNL     1       0.943  -2.837  24.830  0.00  0.00    +0.155 HD
ENDROOT
BRANCH  27  31
ATOM     31  C   UNL     1       6.458  -0.682  23.222  0.00  0.00    +0.024 A 
ATOM     32  C   UNL     1       7.050   0.494  23.686  0.00  0.00    +0.131 A 
ATOM     33  C   UNL     1       7.209  -1.588  22.471  0.00  0.00    +0.016 A 
ATOM     34  C   UNL     1       8.389   0.763  23.400  0.00  0.00    +0.091 A 
ATOM     35  C   UNL     1       8.547  -1.320  22.185  0.00  0.00    +0.046 A 
ATOM     36  C   UNL     1       9.137  -0.144  22.649  0.00  0.00    +0.124 A 
BRANCH  32   5
ATOM      5  O   UNL     1       6.343   1.399  24.421  0.00  0.00    -0.494 OA
ATOM     37  C   UNL     1       5.585   0.892  25.517  0.00  0.00    +0.277 C 
ENDBRANCH  32   5
BRANCH  36   6
ATOM      6  O   UNL     1      10.443   0.118  22.370  0.00  0.00    -0.495 OA
ATOM     38  C   UNL     1      10.739   1.377  21.766  0.00  0.00    +0.277 C 
ENDBRANCH  36   6
ENDBRANCH  27  31
BRANCH  14   8
ATOM      8  N   UNL     1      -3.094   2.397  24.530  0.00  0.00    -0.236 N 
ATOM     10  N   UNL     1      -2.836   3.709  24.616  0.00  0.00    -0.064 NA
ATOM     11  N   UNL     1      -3.913   4.284  25.139  0.00  0.00    -0.124 NA
ATOM     22  C   UNL     1      -4.333   2.090  24.990  0.00  0.00    +0.156 A 
ATOM     24  C   UNL     1      -4.840   3.306  25.375  0.00  0.00    +0.179 A 
BRANCH  22  28
ATOM      3  O   UNL     1      -6.091   0.540  24.677  0.00  0.00    -0.269 OA
ATOM     12  N   UNL     1      -4.123  -0.269  25.496  0.00  0.00    -0.324 N 
ATOM     28  C   UNL     1      -4.917   0.789  25.040  0.00  0.00    +0.262 C 
ATOM     40  H   UNL     1      -3.162  -0.132  25.792  0.00  0.00    +0.145 HD
ATOM     41  H   UNL     1      -4.491  -1.214  25.541  0.00  0.00    +0.145 HD
ENDBRANCH  22  28
BRANCH  24  30
ATOM      4  O   UNL     1      -6.741   4.651  25.775  0.00  0.00    -0.269 OA
ATOM     13  N   UNL     1      -6.731   2.566  26.695  0.00  0.00    -0.324 N 
ATOM     30  C   UNL     1      -6.126   3.575  25.940  0.00  0.00    +0.264 C 
ATOM     42  H   UNL     1      -6.282   1.668  26.854  0.00  0.00    +0.145 HD
ATOM     43  H   UNL     1      -7.646   2.703  27.110  0.00  0.00    +0.145 HD
ENDBRANCH  24  30
ENDBRANCH  14   8
TORSDOF 6
ENDMDL
MODEL 3
REMARK VINA RESULT:      28.6      1.802      3.111
REMARK  Name = 11911512
REMARK  8 active torsions:
REMARK  status: ('A' for Active; 'I' for Inactive)
REMARK    1  A    between atoms: O_5  and  C_32
REMARK    2  A    between atoms: O_5  and  C_37
REMARK    3  A    between atoms: O_6  and  C_36
REMARK    4  A    between atoms: O_6  and  C_38
REMARK    5  A    between atoms: N_8  and  C_14
REMARK    6  A    between atoms: C_22  and  C_28
REMARK    7  A    between atoms: C_24  and  C_30
REMARK    8  A    between atoms: C_27  and  C_31
REMARK                            x       y       z     vdW  Elec       q    Type
REMARK                         _______ _______ _______ _____ _____    ______ ____
ROOT
ATOM      1  O   UNL     1      -0.682  -1.706  24.773  0.00  0.00    -0.273 OA
ATOM      2  O   UNL     1       2.405   0.507  21.194  0.00  0.00    -0.270 OA
ATOM      7  N   UNL     1       0.847   0.502  22.915  0.00  0.00    -0.286 N 
ATOM      9  N   UNL     1       1.564  -1.948  24.414  0.00  0.00    -0.283 N 
ATOM     14  C   UNL     1      -1.778   1.241  23.951  0.00  0.00    +0.113 C 
ATOM     15  C   UNL     1       0.582   0.303  24.336  0.00  0.00    +0.164 C 
ATOM     16  C   UNL     1      -0.575   1.140  24.897  0.00  0.00    +0.059 C 
ATOM     17  C   UNL     1      -1.311   1.708  22.569  0.00  0.00    +0.046 C 
ATOM     18  C   UNL     1      -0.284   0.733  22.012  0.00  0.00    +0.111 C 
ATOM     19  C   UNL     1       0.407  -1.195  24.506  0.00  0.00    +0.238 C 
ATOM     20  C   UNL     1       2.104   0.255  22.361  0.00  0.00    +0.249 C 
ATOM     21  C   UNL     1       3.132  -0.419  23.198  0.00  0.00    +0.059 A 
ATOM     23  C   UNL     1       2.855  -1.505  24.048  0.00  0.00    +0.046 A 
ATOM     25  C   UNL     1       4.468  -0.057  22.948  0.00  0.00    +0.023 A 
ATOM     26  C   UNL     1       3.926  -2.246  24.573  0.00  0.00    +0.024 A 
ATOM     27  C   UNL     1       5.517  -0.774  23.520  0.00  0.00    -0.014 A 
ATOM     29  C   UNL     1       5.247  -1.877  24.321  0.00  0.00    +0.010 A 
ATOM     39  H   UNL     1       1.493  -2.906  24.745  0.00  0.00    +0.155 HD
ENDROOT
BRANCH  27  31
ATOM     31  C   UNL     1       6.887  -0.387  23.258  0.00  0.00    +0.024 A 
ATOM     32  C   UNL     1       7.728  -1.197  22.493  0.00  0.00    +0.131 A 
ATOM     33  C   UNL     1       7.367   0.815  23.781  0.00  0.00    +0.016 A 
ATOM     34  C   UNL     1       9.046  -0.806  22.251  0.00  0.00    +0.091 A 
ATOM     35  C   UNL     1       8.683   1.207  23.539  0.00  0.00    +0.046 A 
ATOM     36  C   UNL     1       9.522   0.396  22.775  0.00  0.00    +0.124 A 
BRANCH  32   5
ATOM      5  O   UNL     1       7.289  -2.377  21.970  0.00  0.00    -0.494 OA
ATOM     37  C   UNL     1       8.249  -3.181  21.290  0.00  0.00    +0.277 C 
ENDBRANCH  32   5
BRANCH  36   6
ATOM      6  O   UNL     1      10.808   0.779  22.540  0.00  0.00    -0.495 OA
ATOM     38  C   UNL     1      11.035   1.644  21.428  0.00  0.00    +0.277 C 
ENDBRANCH  36   6
ENDBRANCH  27  31
BRANCH  14   8
ATOM      8  N   UNL     1      -2.851   2.079  24.500  0.00  0.00    -0.236 N 
ATOM     10  N   UNL     1      -2.687   3.406  24.585  0.00  0.00    -0.064 NA
ATOM     11  N   UNL     1      -3.801   3.902  25.113  0.00  0.00    -0.124 NA
ATOM     22  C   UNL     1      -4.062   1.684  24.966  0.00  0.00    +0.156 A 
ATOM     24  C   UNL     1      -4.653   2.860  25.354  0.00  0.00    +0.179 A 
BRANCH  22  28
ATOM      3  O   UNL     1      -5.551  -0.057  24.376  0.00  0.00    -0.269 OA
ATOM     12  N   UNL     1      -3.858  -0.577  25.812  0.00  0.00    -0.324 N 
ATOM     28  C   UNL     1      -4.551   0.344  25.018  0.00  0.00    +0.262 C 
ATOM     40  H   UNL     1      -3.035  -0.315  26.345  0.00  0.00    +0.145 HD
ATOM     41  H   UNL     1      -4.162  -1.543  25.875  0.00  0.00    +0.145 HD
ENDBRANCH  22  28
BRANCH  24  30
ATOM      4  O   UNL     1      -6.604   4.101  25.846  0.00  0.00    -0.269 OA
ATOM     13  N   UNL     1      -6.529   1.945  26.583  0.00  0.00    -0.324 N 
ATOM     30  C   UNL     1      -5.952   3.035  25.925  0.00  0.00    +0.264 C 
ATOM     42  H   UNL     1      -6.051   1.053  26.669  0.00  0.00    +0.145 HD
ATOM     43  H   UNL     1      -7.452   2.015  26.998  0.00  0.00    +0.145 HD
ENDBRANCH  24  30
ENDBRANCH  14   8
TORSDOF 6
ENDMDL
MODEL 4
REMARK VINA RESULT:      29.7      3.481     10.361
REMARK  Name = 11911512
REMARK  8 active torsions:
REMARK  status: ('A' for Active; 'I' for Inactive)
REMARK    1  A    between atoms: O_5  and  C_32
REMARK    2  A    between atoms: O_5  and  C_37
REMARK    3  A    between atoms: O_6  and  C_36
REMARK    4  A    between atoms: O_6  and  C_38
REMARK    5  A    between atoms: N_8  and  C_14
REMARK    6  A    between atoms: C_22  and  C_28
REMARK    7  A    between atoms: C_24  and  C_30
REMARK    8  A    between atoms: C_27  and  C_31
REMARK                            x       y       z     vdW  Elec       q    Type
REMARK                         _______ _______ _______ _____ _____    ______ ____
ROOT
ATOM      1  O   UNL     1       2.471  -1.004  20.436  0.00  0.00    -0.273 OA
ATOM      2  O   UNL     1       0.018  -1.036  25.043  0.00  0.00    -0.270 OA
ATOM      7  N   UNL     1       1.785  -0.595  23.602  0.00  0.00    -0.286 N 
ATOM      9  N   UNL     1       0.410  -0.198  21.012  0.00  0.00    -0.283 N 
ATOM     14  C   UNL     1       4.599  -0.888  22.890  0.00  0.00    +0.113 C 
ATOM     15  C   UNL     1       2.312   0.217  22.511  0.00  0.00    +0.164 C 
ATOM     16  C   UNL     1       3.836   0.389  22.515  0.00  0.00    +0.059 C 
ATOM     17  C   UNL     1       4.052  -1.450  24.206  0.00  0.00    +0.046 C 
ATOM     18  C   UNL     1       2.567  -1.746  24.065  0.00  0.00    +0.111 C 
ATOM     19  C   UNL     1       1.758  -0.406  21.243  0.00  0.00    +0.238 C 
ATOM     20  C   UNL     1       0.475  -0.451  24.060  0.00  0.00    +0.249 C 
ATOM     21  C   UNL     1      -0.461   0.404  23.282  0.00  0.00    +0.059 A 
ATOM     23  C   UNL     1      -0.532   0.405  21.878  0.00  0.00    +0.046 A 
ATOM     25  C   UNL     1      -1.446   1.078  24.026  0.00  0.00    +0.023 A 
ATOM     26  C   UNL     1      -1.626   1.025  21.252  0.00  0.00    +0.024 A 
ATOM     27  C   UNL     1      -2.497   1.731  23.385  0.00  0.00    -0.014 A 
ATOM     29  C   UNL     1      -2.595   1.693  22.000  0.00  0.00    +0.010 A 
ATOM     39  H   UNL     1       0.086  -0.412  20.073  0.00  0.00    +0.155 HD
ENDROOT
BRANCH  27  31
ATOM     31  C   UNL     1      -3.500   2.427  24.163  0.00  0.00    +0.024 A 
ATOM     32  C   UNL     1      -3.293   3.740  24.591  0.00  0.00    +0.131 A 
ATOM     33  C   UNL     1      -4.688   1.769  24.488  0.00  0.00    +0.016 A 
ATOM     34  C   UNL     1      -4.273   4.394  25.340  0.00  0.00    +0.091 A 
ATOM     35  C   UNL     1      -5.667   2.423  25.236  0.00  0.00    +0.046 A 
ATOM     36  C   UNL     1      -5.459   3.734  25.662  0.00  0.00    +0.124 A 
BRANCH  32   5
ATOM      5  O   UNL     1      -2.143   4.407  24.291  0.00  0.00    -0.494 OA
ATOM     37  C   UNL     1      -1.224   4.624  25.358  0.00  0.00    +0.277 C 
ENDBRANCH  32   5
BRANCH  36   6
ATOM      6  O   UNL     1      -6.415   4.372  26.392  0.00  0.00    -0.495 OA
ATOM     38  C   UNL     1      -6.811   5.670  25.951  0.00  0.00    +0.277 C 
ENDBRANCH  36   6
ENDBRANCH  27  31
BRANCH  14   8
ATOM      8  N   UNL     1       6.052  -0.682  22.922  0.00  0.00    -0.236 N 
ATOM     10  N   UNL     1       6.849  -1.410  22.128  0.00  0.00    -0.064 NA
ATOM     11  N   UNL     1       8.096  -1.019  22.365  0.00  0.00    -0.124 NA
ATOM     22  C   UNL     1       6.754   0.191  23.686  0.00  0.00    +0.156 A 
ATOM     24  C   UNL     1       8.056  -0.039  23.318  0.00  0.00    +0.179 A 
BRANCH  22  28
ATOM      3  O   UNL     1       6.386   2.349  24.580  0.00  0.00    -0.269 OA
ATOM     12  N   UNL     1       5.422   0.593  25.669  0.00  0.00    -0.324 N 
ATOM     28  C   UNL     1       6.212   1.109  24.635  0.00  0.00    +0.262 C 
ATOM     40  H   UNL     1       5.236  -0.401  25.758  0.00  0.00    +0.145 HD
ATOM     41  H   UNL     1       5.007   1.206  26.363  0.00  0.00    +0.145 HD
ENDBRANCH  22  28
BRANCH  24  30
ATOM      4  O   UNL     1       9.982   0.111  24.680  0.00  0.00    -0.269 OA
ATOM     13  N   UNL     1       9.562   1.858  23.278  0.00  0.00    -0.324 N 
ATOM     30  C   UNL     1       9.230   0.610  23.814  0.00  0.00    +0.264 C 
ATOM     42  H   UNL     1       8.993   2.307  22.565  0.00  0.00    +0.145 HD
ATOM     43  H   UNL     1      10.388   2.356  23.590  0.00  0.00    +0.145 HD
ENDBRANCH  24  30
ENDBRANCH  14   8
TORSDOF 6
ENDMDL
MODEL 5
REMARK VINA RESULT:      29.7      3.740     10.733
REMARK  Name = 11911512
REMARK  8 active torsions:
REMARK  status: ('A' for Active; 'I' for Inactive)
REMARK    1  A    between atoms: O_5  and  C_32
REMARK    2  A    between atoms: O_5  and  C_37
REMARK    3  A    between atoms: O_6  and  C_36
REMARK    4  A    between atoms: O_6  and  C_38
REMARK    5  A    between atoms: N_8  and  C_14
REMARK    6  A    between atoms: C_22  and  C_28
REMARK    7  A    between atoms: C_24  and  C_30
REMARK    8  A    between atoms: C_27  and  C_31
REMARK                            x       y       z     vdW  Elec       q    Type
REMARK                         _______ _______ _______ _____ _____    ______ ____
ROOT
ATOM      1  O   UNL     1       2.689  -0.149  20.677  0.00  0.00    -0.273 OA
ATOM      2  O   UNL     1       0.114  -1.630  24.968  0.00  0.00    -0.270 OA
ATOM      7  N   UNL     1       1.834  -0.600  23.795  0.00  0.00    -0.286 N 
ATOM      9  N   UNL     1       0.504   0.176  21.268  0.00  0.00    -0.283 N 
ATOM     14  C   UNL     1       4.681  -0.285  23.241  0.00  0.00    +0.113 C 
ATOM     15  C   UNL     1       2.257   0.515  22.956  0.00  0.00    +0.164 C 
ATOM     16  C   UNL     1       3.731   0.912  23.108  0.00  0.00    +0.059 C 
ATOM     17  C   UNL     1       4.188  -1.215  24.354  0.00  0.00    +0.046 C 
ATOM     18  C   UNL     1       2.778  -1.694  24.043  0.00  0.00    +0.111 C 
ATOM     19  C   UNL     1       1.859   0.128  21.543  0.00  0.00    +0.238 C 
ATOM     20  C   UNL     1       0.502  -0.769  24.178  0.00  0.00    +0.249 C 
ATOM     21  C   UNL     1      -0.535   0.091  23.546  0.00  0.00    +0.059 A 
ATOM     23  C   UNL     1      -0.554   0.409  22.176  0.00  0.00    +0.046 A 
ATOM     25  C   UNL     1      -1.643   0.414  24.349  0.00  0.00    +0.023 A 
ATOM     26  C   UNL     1      -1.713   0.983  21.628  0.00  0.00    +0.024 A 
ATOM     27  C   UNL     1      -2.764   1.031  23.797  0.00  0.00    -0.014 A 
ATOM     29  C   UNL     1      -2.806   1.302  22.435  0.00  0.00    +0.010 A 
ATOM     39  H   UNL     1       0.253   0.140  20.283  0.00  0.00    +0.155 HD
ENDROOT
BRANCH  27  31
ATOM     31  C   UNL     1      -3.895   1.364  24.636  0.00  0.00    +0.024 A 
ATOM     32  C   UNL     1      -4.102   2.673  25.074  0.00  0.00    +0.131 A 
ATOM     33  C   UNL     1      -4.787   0.357  25.010  0.00  0.00    +0.016 A 
ATOM     34  C   UNL     1      -5.199   2.975  25.883  0.00  0.00    +0.091 A 
ATOM     35  C   UNL     1      -5.883   0.658  25.817  0.00  0.00    +0.046 A 
ATOM     36  C   UNL     1      -6.088   1.967  26.254  0.00  0.00    +0.124 A 
BRANCH  32   5
ATOM      5  O   UNL     1      -3.248   3.678  24.727  0.00  0.00    -0.494 OA
ATOM     37  C   UNL     1      -2.327   4.116  25.722  0.00  0.00    +0.277 C 
ENDBRANCH  32   5
BRANCH  36   6
ATOM      6  O   UNL     1      -7.159   2.260  27.043  0.00  0.00    -0.495 OA
ATOM     38  C   UNL     1      -7.534   1.287  28.017  0.00  0.00    +0.277 C 
ENDBRANCH  36   6
ENDBRANCH  27  31
BRANCH  14   8
ATOM      8  N   UNL     1       6.078   0.127  23.424  0.00  0.00    -0.236 N 
ATOM     10  N   UNL     1       6.358   1.315  23.976  0.00  0.00    -0.064 NA
ATOM     11  N   UNL     1       7.681   1.423  24.014  0.00  0.00    -0.124 NA
ATOM     22  C   UNL     1       7.200  -0.559  23.093  0.00  0.00    +0.156 A 
ATOM     24  C   UNL     1       8.213   0.284  23.476  0.00  0.00    +0.179 A 
BRANCH  22  28
ATOM      3  O   UNL     1       6.361  -2.720  22.626  0.00  0.00    -0.269 OA
ATOM     12  N   UNL     1       8.354  -2.150  21.677  0.00  0.00    -0.324 N 
ATOM     28  C   UNL     1       7.253  -1.851  22.488  0.00  0.00    +0.262 C 
ATOM     40  H   UNL     1       9.102  -1.483  21.518  0.00  0.00    +0.145 HD
ATOM     41  H   UNL     1       8.433  -3.052  21.218  0.00  0.00    +0.145 HD
ENDBRANCH  22  28
BRANCH  24  30
ATOM      4  O   UNL     1      10.242   0.124  22.275  0.00  0.00    -0.269 OA
ATOM     13  N   UNL     1      10.339  -0.207  24.528  0.00  0.00    -0.324 N 
ATOM     30  C   UNL     1       9.621   0.064  23.359  0.00  0.00    +0.264 C 
ATOM     42  H   UNL     1       9.888  -0.259  25.437  0.00  0.00    +0.145 HD
ATOM     43  H   UNL     1      11.340  -0.363  24.501  0.00  0.00    +0.145 HD
ENDBRANCH  24  30
ENDBRANCH  14   8
TORSDOF 6
ENDMDL
