MODEL 1
REMARK VINA RESULT:       0.0      0.000      0.000
REMARK  Name = 26742500
REMARK  7 active torsions:
REMARK  status: ('A' for Active; 'I' for Inactive)
REMARK    1  A    between atoms: O_3  and  C_27
REMARK    2  A    between atoms: O_3  and  C_28
REMARK    3  A    between atoms: N_5  and  C_15
REMARK    4  A    between atoms: N_6  and  C_16
REMARK    5  A    between atoms: N_7  and  C_22
REMARK    6  A    between atoms: C_9  and  C_15
REMARK    7  A    between atoms: C_10  and  C_16
REMARK                            x       y       z     vdW  Elec       q    Type
REMARK                         _______ _______ _______ _____ _____    ______ ____
ROOT
ATOM      4  N   UNL     1      -3.713   3.391  26.281  0.00  0.00    -0.298 NA
ATOM      8  C   UNL     1      -4.703   2.786  23.953  0.00  0.00    -0.003 C 
ATOM      9  C   UNL     1      -3.896   1.602  24.533  0.00  0.00    +0.020 C 
ATOM     10  C   UNL     1      -3.349   4.435  25.286  0.00  0.00    +0.074 C 
ATOM     11  C   UNL     1      -3.796   4.027  23.865  0.00  0.00    +0.024 C 
ATOM     12  C   UNL     1      -3.215   2.065  25.841  0.00  0.00    +0.089 C 
ATOM     13  C   UNL     1      -5.818   3.107  24.967  0.00  0.00    +0.019 C 
ATOM     14  C   UNL     1      -5.193   3.327  26.356  0.00  0.00    +0.085 C 
ENDROOT
BRANCH   9  15
ATOM     15  C   UNL     1      -2.885   1.021  23.548  0.00  0.00    +0.089 C 
BRANCH  15   5
ATOM      1  S   UNL     1      -3.238  -3.275  25.033  0.00  0.00    -0.158 S 
ATOM      5  N   UNL     1      -2.871  -0.442  23.612  0.00  0.00    -0.300 NA
ATOM     17  C   UNL     1      -1.893  -0.893  24.614  0.00  0.00    +0.095 C 
ATOM     18  C   UNL     1      -4.221  -0.947  23.906  0.00  0.00    +0.095 C 
ATOM     19  C   UNL     1      -1.703  -2.408  24.612  0.00  0.00    +0.084 C 
ATOM     20  C   UNL     1      -4.313  -2.468  23.816  0.00  0.00    +0.084 C 
ENDBRANCH  15   5
ENDBRANCH   9  15
BRANCH  10  16
ATOM     16  C   UNL     1      -1.862   4.793  25.332  0.00  0.00    +0.124 C 
BRANCH  16   6
ATOM      2  O   UNL     1       0.081   2.751  25.838  0.00  0.00    -0.253 OA
ATOM      6  N   UNL     1      -1.127   4.051  24.356  0.00  0.00    -0.298 N 
ATOM      7  N   UNL     1       0.371   2.506  23.521  0.00  0.00    -0.269 N 
ATOM     21  C   UNL     1      -0.186   3.058  24.679  0.00  0.00    +0.304 C 
ATOM     29  H   UNL     1      -1.294   4.253  23.374  0.00  0.00    +0.150 HD
ATOM     30  H   UNL     1       0.039   2.877  22.635  0.00  0.00    +0.156 HD
BRANCH   7  22
ATOM     22  C   UNL     1       1.349   1.488  23.428  0.00  0.00    +0.035 A 
ATOM     23  C   UNL     1       2.681   1.821  23.189  0.00  0.00    +0.027 A 
ATOM     24  C   UNL     1       0.979   0.151  23.573  0.00  0.00    +0.027 A 
ATOM     25  C   UNL     1       3.646   0.818  23.096  0.00  0.00    +0.047 A 
ATOM     26  C   UNL     1       1.943  -0.853  23.481  0.00  0.00    +0.047 A 
ATOM     27  C   UNL     1       3.276  -0.520  23.242  0.00  0.00    +0.120 A 
BRANCH  27   3
ATOM      3  O   UNL     1       4.217  -1.499  23.152  0.00  0.00    -0.495 OA
ATOM     28  C   UNL     1       5.402  -1.333  23.929  0.00  0.00    +0.277 C 
ENDBRANCH  27   3
ENDBRANCH   7  22
ENDBRANCH  16   6
ENDBRANCH  10  16
TORSDOF 6
ENDMDL
MODEL 2
REMARK VINA RESULT:       2.2      1.551      2.389
REMARK  Name = 26742500
REMARK  7 active torsions:
REMARK  status: ('A' for Active; 'I' for Inactive)
REMARK    1  A    between atoms: O_3  and  C_27
REMARK    2  A    between atoms: O_3  and  C_28
REMARK    3  A    between atoms: N_5  and  C_15
REMARK    4  A    between atoms: N_6  and  C_16
REMARK    5  A    between atoms: N_7  and  C_22
REMARK    6  A    between atoms: C_9  and  C_15
REMARK    7  A    between atoms: C_10  and  C_16
REMARK                            x       y       z     vdW  Elec       q    Type
REMARK                         _______ _______ _______ _____ _____    ______ ____
ROOT
ATOM      4  N   UNL     1      -1.860   2.791  24.477  0.00  0.00    -0.298 NA
ATOM      8  C   UNL     1      -4.431   3.164  24.620  0.00  0.00    -0.003 C 
ATOM      9  C   UNL     1      -3.948   2.220  25.744  0.00  0.00    +0.020 C 
ATOM     10  C   UNL     1      -2.490   2.508  23.160  0.00  0.00    +0.074 C 
ATOM     11  C   UNL     1      -4.030   2.577  23.254  0.00  0.00    +0.024 C 
ATOM     12  C   UNL     1      -2.447   1.920  25.526  0.00  0.00    +0.089 C 
ATOM     13  C   UNL     1      -3.664   4.490  24.789  0.00  0.00    +0.019 C 
ATOM     14  C   UNL     1      -2.153   4.201  24.831  0.00  0.00    +0.085 C 
ENDROOT
BRANCH   9  15
ATOM     15  C   UNL     1      -4.769   0.937  25.849  0.00  0.00    +0.089 C 
BRANCH  15   5
ATOM      1  S   UNL     1      -3.566  -3.263  24.545  0.00  0.00    -0.158 S 
ATOM      5  N   UNL     1      -4.074  -0.185  25.213  0.00  0.00    -0.300 NA
ATOM     17  C   UNL     1      -3.513  -1.077  26.240  0.00  0.00    +0.095 C 
ATOM     18  C   UNL     1      -4.991  -0.902  24.315  0.00  0.00    +0.095 C 
ATOM     19  C   UNL     1      -2.630  -2.173  25.649  0.00  0.00    +0.084 C 
ATOM     20  C   UNL     1      -4.287  -1.976  23.490  0.00  0.00    +0.084 C 
ENDBRANCH  15   5
ENDBRANCH   9  15
BRANCH  10  16
ATOM     16  C   UNL     1      -2.016   1.182  22.558  0.00  0.00    +0.124 C 
BRANCH  16   6
ATOM      2  O   UNL     1       0.138  -0.057  23.983  0.00  0.00    -0.253 OA
ATOM      6  N   UNL     1      -0.626   1.241  22.227  0.00  0.00    -0.298 N 
ATOM      7  N   UNL     1       1.639   0.836  22.413  0.00  0.00    -0.269 N 
ATOM     21  C   UNL     1       0.380   0.604  22.975  0.00  0.00    +0.304 C 
ATOM     29  H   UNL     1      -0.350   1.772  21.407  0.00  0.00    +0.150 HD
ATOM     30  H   UNL     1       1.664   1.409  21.575  0.00  0.00    +0.156 HD
BRANCH   7  22
ATOM     22  C   UNL     1       2.893   0.370  22.871  0.00  0.00    +0.035 A 
ATOM     23  C   UNL     1       3.995   1.224  22.876  0.00  0.00    +0.027 A 
ATOM     24  C   UNL     1       3.029  -0.946  23.316  0.00  0.00    +0.027 A 
ATOM     25  C   UNL     1       5.233   0.765  23.327  0.00  0.00    +0.047 A 
ATOM     26  C   UNL     1       4.265  -1.405  23.767  0.00  0.00    +0.047 A 
ATOM     27  C   UNL     1       5.367  -0.551  23.772  0.00  0.00    +0.120 A 
BRANCH  27   3
ATOM      3  O   UNL     1       6.575  -0.998  24.212  0.00  0.00    -0.495 OA
ATOM     28  C   UNL     1       7.730  -0.547  23.507  0.00  0.00    +0.277 C 
ENDBRANCH  27   3
ENDBRANCH   7  22
ENDBRANCH  16   6
ENDBRANCH  10  16
TORSDOF 6
ENDMDL
MODEL 3
REMARK VINA RESULT:       2.5      2.438      4.516
REMARK  Name = 26742500
REMARK  7 active torsions:
REMARK  status: ('A' for Active; 'I' for Inactive)
REMARK    1  A    between atoms: O_3  and  C_27
REMARK    2  A    between atoms: O_3  and  C_28
REMARK    3  A    between atoms: N_5  and  C_15
REMARK    4  A    between atoms: N_6  and  C_16
REMARK    5  A    between atoms: N_7  and  C_22
REMARK    6  A    between atoms: C_9  and  C_15
REMARK    7  A    between atoms: C_10  and  C_16
REMARK                            x       y       z     vdW  Elec       q    Type
REMARK                         _______ _______ _______ _____ _____    ______ ____
ROOT
ATOM      4  N   UNL     1      -3.266  -1.533  23.885  0.00  0.00    -0.298 NA
ATOM      8  C   UNL     1      -3.654  -0.243  26.110  0.00  0.00    -0.003 C 
ATOM      9  C   UNL     1      -4.786   0.050  25.098  0.00  0.00    +0.020 C 
ATOM     10  C   UNL     1      -2.047  -0.762  24.245  0.00  0.00    +0.074 C 
ATOM     11  C   UNL     1      -2.300   0.130  25.481  0.00  0.00    +0.024 C 
ATOM     12  C   UNL     1      -4.430  -0.624  23.753  0.00  0.00    +0.089 C 
ATOM     13  C   UNL     1      -3.645  -1.767  26.342  0.00  0.00    +0.019 C 
ATOM     14  C   UNL     1      -3.547  -2.487  24.986  0.00  0.00    +0.085 C 
ENDROOT
BRANCH   9  15
ATOM     15  C   UNL     1      -5.069   1.540  24.924  0.00  0.00    +0.089 C 
BRANCH  15   5
ATOM      1  S   UNL     1      -2.079   4.977  25.086  0.00  0.00    -0.158 S 
ATOM      5  N   UNL     1      -3.866   2.336  25.177  0.00  0.00    -0.300 NA
ATOM     17  C   UNL     1      -3.282   2.784  23.903  0.00  0.00    +0.095 C 
ATOM     18  C   UNL     1      -4.189   3.471  26.055  0.00  0.00    +0.095 C 
ATOM     19  C   UNL     1      -1.932   3.473  24.085  0.00  0.00    +0.084 C 
ATOM     20  C   UNL     1      -2.949   4.243  26.498  0.00  0.00    +0.084 C 
ENDBRANCH  15   5
ENDBRANCH   9  15
BRANCH  10  16
ATOM     16  C   UNL     1      -1.495   0.044  23.067  0.00  0.00    +0.124 C 
BRANCH  16   6
ATOM      2  O   UNL     1       0.998   0.903  24.185  0.00  0.00    -0.253 OA
ATOM      6  N   UNL     1      -0.191  -0.415  22.701  0.00  0.00    -0.298 N 
ATOM      7  N   UNL     1       2.112  -0.574  22.739  0.00  0.00    -0.269 N 
ATOM     21  C   UNL     1       0.994   0.053  23.296  0.00  0.00    +0.304 C 
ATOM     29  H   UNL     1      -0.116  -1.117  21.971  0.00  0.00    +0.150 HD
ATOM     30  H   UNL     1       1.932  -1.257  22.007  0.00  0.00    +0.156 HD
BRANCH   7  22
ATOM     22  C   UNL     1       3.473  -0.375  23.066  0.00  0.00    +0.035 A 
ATOM     23  C   UNL     1       4.198  -1.394  23.683  0.00  0.00    +0.027 A 
ATOM     24  C   UNL     1       4.090   0.841  22.772  0.00  0.00    +0.027 A 
ATOM     25  C   UNL     1       5.541  -1.198  24.006  0.00  0.00    +0.047 A 
ATOM     26  C   UNL     1       5.433   1.038  23.094  0.00  0.00    +0.047 A 
ATOM     27  C   UNL     1       6.158   0.019  23.711  0.00  0.00    +0.120 A 
BRANCH  27   3
ATOM      3  O   UNL     1       7.468   0.210  24.026  0.00  0.00    -0.495 OA
ATOM     28  C   UNL     1       8.435  -0.246  23.082  0.00  0.00    +0.277 C 
ENDBRANCH  27   3
ENDBRANCH   7  22
ENDBRANCH  16   6
ENDBRANCH  10  16
TORSDOF 6
ENDMDL
MODEL 4
REMARK VINA RESULT:       2.7      2.522      4.581
REMARK  Name = 26742500
REMARK  7 active torsions:
REMARK  status: ('A' for Active; 'I' for Inactive)
REMARK    1  A    between atoms: O_3  and  C_27
REMARK    2  A    between atoms: O_3  and  C_28
REMARK    3  A    between atoms: N_5  and  C_15
REMARK    4  A    between atoms: N_6  and  C_16
REMARK    5  A    between atoms: N_7  and  C_22
REMARK    6  A    between atoms: C_9  and  C_15
REMARK    7  A    between atoms: C_10  and  C_16
REMARK                            x       y       z     vdW  Elec       q    Type
REMARK                         _______ _______ _______ _____ _____    ______ ____
ROOT
ATOM      4  N   UNL     1      -4.327  -1.150  23.859  0.00  0.00    -0.298 NA
ATOM      8  C   UNL     1      -3.716   0.850  25.405  0.00  0.00    -0.003 C 
ATOM      9  C   UNL     1      -3.238   1.106  23.957  0.00  0.00    +0.020 C 
ATOM     10  C   UNL     1      -3.600  -1.639  25.061  0.00  0.00    +0.074 C 
ATOM     11  C   UNL     1      -3.096  -0.460  25.922  0.00  0.00    +0.024 C 
ATOM     12  C   UNL     1      -3.497  -0.167  23.120  0.00  0.00    +0.089 C 
ATOM     13  C   UNL     1      -5.242   0.639  25.342  0.00  0.00    +0.019 C 
ATOM     14  C   UNL     1      -5.559  -0.464  24.316  0.00  0.00    +0.085 C 
ENDROOT
BRANCH   9  15
ATOM     15  C   UNL     1      -1.780   1.549  23.872  0.00  0.00    +0.089 C 
BRANCH  15   5
ATOM      1  S   UNL     1      -1.652   5.951  25.051  0.00  0.00    -0.158 S 
ATOM      5  N   UNL     1      -1.564   2.792  24.617  0.00  0.00    -0.300 NA
ATOM     17  C   UNL     1      -0.627   3.660  23.887  0.00  0.00    +0.095 C 
ATOM     18  C   UNL     1      -2.850   3.464  24.858  0.00  0.00    +0.095 C 
ATOM     19  C   UNL     1      -0.224   4.896  24.688  0.00  0.00    +0.084 C 
ATOM     20  C   UNL     1      -2.717   4.675  25.777  0.00  0.00    +0.084 C 
ENDBRANCH  15   5
ENDBRANCH   9  15
BRANCH  10  16
ATOM     16  C   UNL     1      -2.470  -2.609  24.707  0.00  0.00    +0.124 C 
BRANCH  16   6
ATOM      2  O   UNL     1       0.232  -1.975  25.411  0.00  0.00    -0.253 OA
ATOM      6  N   UNL     1      -1.497  -1.975  23.874  0.00  0.00    -0.298 N 
ATOM      7  N   UNL     1       0.539  -1.074  23.265  0.00  0.00    -0.269 N 
ATOM     21  C   UNL     1      -0.182  -1.694  24.289  0.00  0.00    +0.304 C 
ATOM     29  H   UNL     1      -1.769  -1.712  22.932  0.00  0.00    +0.150 HD
ATOM     30  H   UNL     1       0.044  -0.912  22.392  0.00  0.00    +0.156 HD
BRANCH   7  22
ATOM     22  C   UNL     1       1.884  -0.637  23.292  0.00  0.00    +0.035 A 
ATOM     23  C   UNL     1       2.888  -1.497  23.734  0.00  0.00    +0.027 A 
ATOM     24  C   UNL     1       2.206   0.656  22.877  0.00  0.00    +0.027 A 
ATOM     25  C   UNL     1       4.215  -1.067  23.761  0.00  0.00    +0.047 A 
ATOM     26  C   UNL     1       3.532   1.087  22.903  0.00  0.00    +0.047 A 
ATOM     27  C   UNL     1       4.536   0.226  23.346  0.00  0.00    +0.120 A 
BRANCH  27   3
ATOM      3  O   UNL     1       5.831   0.646  23.372  0.00  0.00    -0.495 OA
ATOM     28  C   UNL     1       6.835  -0.333  23.112  0.00  0.00    +0.277 C 
ENDBRANCH  27   3
ENDBRANCH   7  22
ENDBRANCH  16   6
ENDBRANCH  10  16
TORSDOF 6
ENDMDL
MODEL 5
REMARK VINA RESULT:       3.3      2.227      4.030
REMARK  Name = 26742500
REMARK  7 active torsions:
REMARK  status: ('A' for Active; 'I' for Inactive)
REMARK    1  A    between atoms: O_3  and  C_27
REMARK    2  A    between atoms: O_3  and  C_28
REMARK    3  A    between atoms: N_5  and  C_15
REMARK    4  A    between atoms: N_6  and  C_16
REMARK    5  A    between atoms: N_7  and  C_22
REMARK    6  A    between atoms: C_9  and  C_15
REMARK    7  A    between atoms: C_10  and  C_16
REMARK                            x       y       z     vdW  Elec       q    Type
REMARK                         _______ _______ _______ _____ _____    ______ ____
ROOT
ATOM      4  N   UNL     1      -4.763   1.445  24.101  0.00  0.00    -0.298 NA
ATOM      8  C   UNL     1      -5.866   2.381  26.263  0.00  0.00    -0.003 C 
ATOM      9  C   UNL     1      -4.695   3.282  25.807  0.00  0.00    +0.020 C 
ATOM     10  C   UNL     1      -4.837   0.381  25.137  0.00  0.00    +0.074 C 
ATOM     11  C   UNL     1      -5.351   0.947  26.480  0.00  0.00    +0.024 C 
ATOM     12  C   UNL     1      -3.990   2.605  24.610  0.00  0.00    +0.089 C 
ATOM     13  C   UNL     1      -6.874   2.333  25.098  0.00  0.00    +0.019 C 
ATOM     14  C   UNL     1      -6.145   1.901  23.814  0.00  0.00    +0.085 C 
ENDROOT
BRANCH   9  15
ATOM     15  C   UNL     1      -3.713   3.609  26.928  0.00  0.00    +0.089 C 
BRANCH  15   5
ATOM      1  S   UNL     1      -0.149   4.209  24.149  0.00  0.00    -0.158 S 
ATOM      5  N   UNL     1      -2.414   4.017  26.387  0.00  0.00    -0.300 NA
ATOM     17  C   UNL     1      -1.614   2.830  26.049  0.00  0.00    +0.095 C 
ATOM     18  C   UNL     1      -2.608   4.892  25.220  0.00  0.00    +0.095 C 
ATOM     19  C   UNL     1      -0.185   3.181  25.641  0.00  0.00    +0.084 C 
ATOM     20  C   UNL     1      -1.300   5.493  24.712  0.00  0.00    +0.084 C 
ENDBRANCH  15   5
ENDBRANCH   9  15
BRANCH  10  16
ATOM     16  C   UNL     1      -3.511  -0.365  25.305  0.00  0.00    +0.124 C 
BRANCH  16   6
ATOM      2  O   UNL     1      -0.659  -0.598  25.420  0.00  0.00    -0.253 OA
ATOM      6  N   UNL     1      -2.581   0.014  24.288  0.00  0.00    -0.298 N 
ATOM      7  N   UNL     1      -0.535   0.323  23.264  0.00  0.00    -0.269 N 
ATOM     21  C   UNL     1      -1.188  -0.130  24.414  0.00  0.00    +0.304 C 
ATOM     29  H   UNL     1      -2.946   0.411  23.427  0.00  0.00    +0.150 HD
ATOM     30  H   UNL     1      -1.124   0.683  22.518  0.00  0.00    +0.156 HD
BRANCH   7  22
ATOM     22  C   UNL     1       0.855   0.346  23.006  0.00  0.00    +0.035 A 
ATOM     23  C   UNL     1       1.399  -0.497  22.037  0.00  0.00    +0.027 A 
ATOM     24  C   UNL     1       1.684   1.210  23.723  0.00  0.00    +0.027 A 
ATOM     25  C   UNL     1       2.770  -0.475  21.782  0.00  0.00    +0.047 A 
ATOM     26  C   UNL     1       3.055   1.233  23.469  0.00  0.00    +0.047 A 
ATOM     27  C   UNL     1       3.598   0.390  22.499  0.00  0.00    +0.120 A 
BRANCH  27   3
ATOM      3  O   UNL     1       4.936   0.412  22.251  0.00  0.00    -0.495 OA
ATOM     28  C   UNL     1       5.802   0.060  23.329  0.00  0.00    +0.277 C 
ENDBRANCH  27   3
ENDBRANCH   7  22
ENDBRANCH  16   6
ENDBRANCH  10  16
TORSDOF 6
ENDMDL
MODEL 6
REMARK VINA RESULT:       3.8      1.679      2.388
REMARK  Name = 26742500
REMARK  7 active torsions:
REMARK  status: ('A' for Active; 'I' for Inactive)
REMARK    1  A    between atoms: O_3  and  C_27
REMARK    2  A    between atoms: O_3  and  C_28
REMARK    3  A    between atoms: N_5  and  C_15
REMARK    4  A    between atoms: N_6  and  C_16
REMARK    5  A    between atoms: N_7  and  C_22
REMARK    6  A    between atoms: C_9  and  C_15
REMARK    7  A    between atoms: C_10  and  C_16
REMARK                            x       y       z     vdW  Elec       q    Type
REMARK                         _______ _______ _______ _____ _____    ______ ____
ROOT
ATOM      4  N   UNL     1      -2.590   3.049  24.586  0.00  0.00    -0.298 NA
ATOM      8  C   UNL     1      -5.075   2.293  24.725  0.00  0.00    -0.003 C 
ATOM      9  C   UNL     1      -4.209   1.536  25.759  0.00  0.00    +0.020 C 
ATOM     10  C   UNL     1      -3.079   2.655  23.237  0.00  0.00    +0.074 C 
ATOM     11  C   UNL     1      -4.503   2.062  23.315  0.00  0.00    +0.024 C 
ATOM     12  C   UNL     1      -2.728   1.917  25.534  0.00  0.00    +0.089 C 
ATOM     13  C   UNL     1      -4.930   3.796  25.035  0.00  0.00    +0.019 C 
ATOM     14  C   UNL     1      -3.437   4.165  25.072  0.00  0.00    +0.085 C 
ENDROOT
BRANCH   9  15
ATOM     15  C   UNL     1      -4.413   0.024  25.725  0.00  0.00    +0.089 C 
BRANCH  15   5
ATOM      1  S   UNL     1      -0.975  -2.867  24.944  0.00  0.00    -0.158 S 
ATOM      5  N   UNL     1      -3.261  -0.648  25.119  0.00  0.00    -0.300 NA
ATOM     17  C   UNL     1      -2.107  -0.586  26.029  0.00  0.00    +0.095 C 
ATOM     18  C   UNL     1      -3.610  -2.036  24.779  0.00  0.00    +0.095 C 
ATOM     19  C   UNL     1      -0.825  -1.116  25.390  0.00  0.00    +0.084 C 
ATOM     20  C   UNL     1      -2.511  -2.741  23.988  0.00  0.00    +0.084 C 
ENDBRANCH  15   5
ENDBRANCH   9  15
BRANCH  10  16
ATOM     16  C   UNL     1      -2.110   1.715  22.516  0.00  0.00    +0.124 C 
BRANCH  16   6
ATOM      2  O   UNL     1       0.069  -0.112  22.176  0.00  0.00    -0.253 OA
ATOM      6  N   UNL     1      -0.781   1.865  23.023  0.00  0.00    -0.298 N 
ATOM      7  N   UNL     1       1.430   1.337  23.425  0.00  0.00    -0.269 N 
ATOM     21  C   UNL     1       0.242   0.923  22.815  0.00  0.00    +0.304 C 
ATOM     29  H   UNL     1      -0.565   2.697  23.564  0.00  0.00    +0.150 HD
ATOM     30  H   UNL     1       1.402   2.225  23.919  0.00  0.00    +0.156 HD
BRANCH   7  22
ATOM     22  C   UNL     1       2.676   0.668  23.444  0.00  0.00    +0.035 A 
ATOM     23  C   UNL     1       2.728  -0.702  23.698  0.00  0.00    +0.027 A 
ATOM     24  C   UNL     1       3.853   1.380  23.211  0.00  0.00    +0.027 A 
ATOM     25  C   UNL     1       3.957  -1.362  23.717  0.00  0.00    +0.047 A 
ATOM     26  C   UNL     1       5.081   0.721  23.229  0.00  0.00    +0.047 A 
ATOM     27  C   UNL     1       5.134  -0.649  23.483  0.00  0.00    +0.120 A 
BRANCH  27   3
ATOM      3  O   UNL     1       6.332  -1.294  23.501  0.00  0.00    -0.495 OA
ATOM     28  C   UNL     1       7.435  -0.629  22.886  0.00  0.00    +0.277 C 
ENDBRANCH  27   3
ENDBRANCH   7  22
ENDBRANCH  16   6
ENDBRANCH  10  16
TORSDOF 6
ENDMDL
