MODEL 1
REMARK VINA RESULT:      -5.7      0.000      0.000
REMARK  Name = 75367101
REMARK  8 active torsions:
REMARK  status: ('A' for Active; 'I' for Inactive)
REMARK    1  A    between atoms: O_2  and  C_9
REMARK    2  A    between atoms: N_4  and  C_7
REMARK    3  A    between atoms: N_4  and  C_8
REMARK    4  A    between atoms: N_5  and  C_17
REMARK    5  A    between atoms: N_6  and  C_19
REMARK    6  A    between atoms: C_12  and  C_17
REMARK    7  A    between atoms: C_19  and  C_20
REMARK    8  A    between atoms: C_19  and  C_21
REMARK                            x       y       z     vdW  Elec       q    Type
REMARK                         _______ _______ _______ _____ _____    ______ ____
ROOT
ATOM      1  O   UNL     1      -2.153   2.988  23.262  0.00  0.00    -0.371 OA
ATOM      7  C   UNL     1      -4.133   2.175  24.292  0.00  0.00    +0.111 C 
ATOM      9  C   UNL     1      -3.228   2.765  25.358  0.00  0.00    +0.164 C 
ATOM     12  C   UNL     1      -2.334   3.666  24.517  0.00  0.00    +0.165 C 
ATOM     13  C   UNL     1      -3.153   1.961  23.150  0.00  0.00    +0.181 C 
ENDROOT
BRANCH   9   2
ATOM      2  O   UNL     1      -3.941   3.494  26.337  0.00  0.00    -0.388 OA
ATOM     23  H   UNL     1      -3.303   4.019  26.851  0.00  0.00    +0.210 HD
ENDBRANCH   9   2
BRANCH   7   4
ATOM      4  N   UNL     1      -4.799   0.950  24.703  0.00  0.00    -0.306 NA
ATOM     22  H   UNL     1      -5.677   0.840  24.196  0.00  0.00    +0.123 HD
BRANCH   4   8
ATOM      8  C   UNL     1      -3.941  -0.210  24.467  0.00  0.00    +0.054 C 
ATOM     10  C   UNL     1      -3.239  -0.611  25.770  0.00  0.00    +0.019 C 
ATOM     11  C   UNL     1      -4.774  -1.369  23.909  0.00  0.00    +0.019 C 
ATOM     14  C   UNL     1      -2.391  -1.868  25.579  0.00  0.00    +0.002 C 
ATOM     15  C   UNL     1      -3.925  -2.625  23.721  0.00  0.00    +0.002 C 
ATOM     16  C   UNL     1      -3.214  -3.022  25.012  0.00  0.00    +0.000 C 
ENDBRANCH   4   8
ENDBRANCH   7   4
BRANCH  12  17
ATOM     17  C   UNL     1      -0.983   3.935  25.155  0.00  0.00    +0.140 C 
BRANCH  17   5
ATOM      3  O   UNL     1      -0.062   1.201  25.066  0.00  0.00    -0.253 OA
ATOM      5  N   UNL     1       0.085   3.409  24.355  0.00  0.00    -0.297 N 
ATOM      6  N   UNL     1       1.533   1.826  23.501  0.00  0.00    -0.297 N 
ATOM     18  C   UNL     1       0.472   2.065  24.370  0.00  0.00    +0.300 C 
ATOM     24  H   UNL     1       0.599   4.050  23.757  0.00  0.00    +0.150 HD
ATOM     25  H   UNL     1       1.856   2.589  22.913  0.00  0.00    +0.150 HD
BRANCH   6  19
ATOM     19  C   UNL     1       2.124   0.520  23.325  0.00  0.00    +0.068 C 
ATOM     20  C   UNL     1       1.258  -0.340  22.414  0.00  0.00    +0.027 C 
ATOM     21  C   UNL     1       3.540   0.649  22.782  0.00  0.00    +0.027 C 
ENDBRANCH   6  19
ENDBRANCH  17   5
ENDBRANCH  12  17
TORSDOF 6
ENDMDL
MODEL 2
REMARK VINA RESULT:      -5.5      2.046      4.596
REMARK  Name = 75367101
REMARK  8 active torsions:
REMARK  status: ('A' for Active; 'I' for Inactive)
REMARK    1  A    between atoms: O_2  and  C_9
REMARK    2  A    between atoms: N_4  and  C_7
REMARK    3  A    between atoms: N_4  and  C_8
REMARK    4  A    between atoms: N_5  and  C_17
REMARK    5  A    between atoms: N_6  and  C_19
REMARK    6  A    between atoms: C_12  and  C_17
REMARK    7  A    between atoms: C_19  and  C_20
REMARK    8  A    between atoms: C_19  and  C_21
REMARK                            x       y       z     vdW  Elec       q    Type
REMARK                         _______ _______ _______ _____ _____    ______ ____
ROOT
ATOM      1  O   UNL     1      -0.116   2.841  23.282  0.00  0.00    -0.371 OA
ATOM      7  C   UNL     1      -0.863   3.653  25.385  0.00  0.00    +0.111 C 
ATOM      9  C   UNL     1      -0.249   2.278  25.575  0.00  0.00    +0.164 C 
ATOM     12  C   UNL     1       0.609   2.165  24.322  0.00  0.00    +0.165 C 
ATOM     13  C   UNL     1      -1.132   3.658  23.890  0.00  0.00    +0.181 C 
ENDROOT
BRANCH   9   2
ATOM      2  O   UNL     1       0.526   2.184  26.754  0.00  0.00    -0.388 OA
ATOM     23  H   UNL     1       0.197   2.841  27.391  0.00  0.00    +0.210 HD
ENDBRANCH   9   2
BRANCH   7   4
ATOM      4  N   UNL     1      -2.062   3.871  26.177  0.00  0.00    -0.306 NA
ATOM     22  H   UNL     1      -2.139   4.855  26.435  0.00  0.00    +0.123 HD
BRANCH   4   8
ATOM      8  C   UNL     1      -3.253   3.458  25.438  0.00  0.00    +0.054 C 
ATOM     10  C   UNL     1      -3.235   1.939  25.230  0.00  0.00    +0.019 C 
ATOM     11  C   UNL     1      -4.513   3.897  26.193  0.00  0.00    +0.019 C 
ATOM     14  C   UNL     1      -4.504   1.460  24.526  0.00  0.00    +0.002 C 
ATOM     15  C   UNL     1      -5.781   3.416  25.487  0.00  0.00    +0.002 C 
ATOM     16  C   UNL     1      -5.762   1.906  25.267  0.00  0.00    +0.000 C 
ENDBRANCH   4   8
ENDBRANCH   7   4
BRANCH  12  17
ATOM     17  C   UNL     1       0.880   0.729  23.908  0.00  0.00    +0.140 C 
BRANCH  17   5
ATOM      3  O   UNL     1      -0.495  -1.077  25.691  0.00  0.00    -0.253 OA
ATOM      5  N   UNL     1      -0.341   0.021  23.649  0.00  0.00    -0.297 N 
ATOM      6  N   UNL     1      -2.117  -1.393  24.063  0.00  0.00    -0.297 N 
ATOM     18  C   UNL     1      -0.945  -0.840  24.570  0.00  0.00    +0.300 C 
ATOM     24  H   UNL     1      -0.781   0.141  22.742  0.00  0.00    +0.150 HD
ATOM     25  H   UNL     1      -2.446  -1.078  23.156  0.00  0.00    +0.150 HD
BRANCH   6  19
ATOM     19  C   UNL     1      -2.936  -2.317  24.813  0.00  0.00    +0.068 C 
ATOM     20  C   UNL     1      -3.464  -1.656  26.079  0.00  0.00    +0.027 C 
ATOM     21  C   UNL     1      -4.074  -2.839  23.946  0.00  0.00    +0.027 C 
ENDBRANCH   6  19
ENDBRANCH  17   5
ENDBRANCH  12  17
TORSDOF 6
ENDMDL
MODEL 3
REMARK VINA RESULT:      -5.5      2.038      4.834
REMARK  Name = 75367101
REMARK  8 active torsions:
REMARK  status: ('A' for Active; 'I' for Inactive)
REMARK    1  A    between atoms: O_2  and  C_9
REMARK    2  A    between atoms: N_4  and  C_7
REMARK    3  A    between atoms: N_4  and  C_8
REMARK    4  A    between atoms: N_5  and  C_17
REMARK    5  A    between atoms: N_6  and  C_19
REMARK    6  A    between atoms: C_12  and  C_17
REMARK    7  A    between atoms: C_19  and  C_20
REMARK    8  A    between atoms: C_19  and  C_21
REMARK                            x       y       z     vdW  Elec       q    Type
REMARK                         _______ _______ _______ _____ _____    ______ ____
ROOT
ATOM      1  O   UNL     1      -0.678   1.987  26.366  0.00  0.00    -0.371 OA
ATOM      7  C   UNL     1       0.034   0.217  24.951  0.00  0.00    +0.111 C 
ATOM      9  C   UNL     1       0.136   1.527  24.193  0.00  0.00    +0.164 C 
ATOM     12  C   UNL     1       0.171   2.528  25.340  0.00  0.00    +0.165 C 
ATOM     13  C   UNL     1      -0.908   0.596  26.082  0.00  0.00    +0.181 C 
ENDROOT
BRANCH   9   2
ATOM      2  O   UNL     1       1.296   1.605  23.389  0.00  0.00    -0.388 OA
ATOM     23  H   UNL     1       1.420   2.531  23.118  0.00  0.00    +0.210 HD
ENDBRANCH   9   2
BRANCH   7   4
ATOM      4  N   UNL     1      -0.464  -0.887  24.146  0.00  0.00    -0.306 NA
ATOM     22  H   UNL     1       0.150  -1.696  24.242  0.00  0.00    +0.123 HD
BRANCH   4   8
ATOM      8  C   UNL     1      -1.823  -1.247  24.544  0.00  0.00    +0.054 C 
ATOM     10  C   UNL     1      -2.834  -0.385  23.780  0.00  0.00    +0.019 C 
ATOM     11  C   UNL     1      -2.064  -2.739  24.288  0.00  0.00    +0.019 C 
ATOM     14  C   UNL     1      -4.271  -0.785  24.114  0.00  0.00    +0.002 C 
ATOM     15  C   UNL     1      -3.501  -3.136  24.623  0.00  0.00    +0.002 C 
ATOM     16  C   UNL     1      -4.511  -2.272  23.872  0.00  0.00    +0.000 C 
ENDBRANCH   4   8
ENDBRANCH   7   4
BRANCH  12  17
ATOM     17  C   UNL     1      -0.316   3.911  24.945  0.00  0.00    +0.140 C 
BRANCH  17   5
ATOM      3  O   UNL     1      -2.822   2.956  23.876  0.00  0.00    -0.253 OA
ATOM      5  N   UNL     1      -1.630   4.167  25.461  0.00  0.00    -0.297 N 
ATOM      6  N   UNL     1      -3.933   4.067  25.583  0.00  0.00    -0.297 N 
ATOM     18  C   UNL     1      -2.799   3.666  24.882  0.00  0.00    +0.300 C 
ATOM     24  H   UNL     1      -1.716   4.758  26.284  0.00  0.00    +0.150 HD
ATOM     25  H   UNL     1      -3.807   4.589  26.445  0.00  0.00    +0.150 HD
BRANCH   6  19
ATOM     19  C   UNL     1      -5.270   3.686  25.195  0.00  0.00    +0.068 C 
ATOM     20  C   UNL     1      -5.636   2.335  25.795  0.00  0.00    +0.027 C 
ATOM     21  C   UNL     1      -6.267   4.761  25.605  0.00  0.00    +0.027 C 
ENDBRANCH   6  19
ENDBRANCH  17   5
ENDBRANCH  12  17
TORSDOF 6
ENDMDL
MODEL 4
REMARK VINA RESULT:      -5.4      2.188      6.048
REMARK  Name = 75367101
REMARK  8 active torsions:
REMARK  status: ('A' for Active; 'I' for Inactive)
REMARK    1  A    between atoms: O_2  and  C_9
REMARK    2  A    between atoms: N_4  and  C_7
REMARK    3  A    between atoms: N_4  and  C_8
REMARK    4  A    between atoms: N_5  and  C_17
REMARK    5  A    between atoms: N_6  and  C_19
REMARK    6  A    between atoms: C_12  and  C_17
REMARK    7  A    between atoms: C_19  and  C_20
REMARK    8  A    between atoms: C_19  and  C_21
REMARK                            x       y       z     vdW  Elec       q    Type
REMARK                         _______ _______ _______ _____ _____    ______ ____
ROOT
ATOM      1  O   UNL     1      -1.205  -2.084  23.502  0.00  0.00    -0.371 OA
ATOM      7  C   UNL     1       0.049  -0.437  24.667  0.00  0.00    +0.111 C 
ATOM      9  C   UNL     1      -1.201  -0.760  25.463  0.00  0.00    +0.164 C 
ATOM     12  C   UNL     1      -1.568  -2.123  24.892  0.00  0.00    +0.165 C 
ATOM     13  C   UNL     1      -0.323  -0.967  23.292  0.00  0.00    +0.181 C 
ENDROOT
BRANCH   9   2
ATOM      2  O   UNL     1      -0.964  -0.817  26.856  0.00  0.00    -0.388 OA
ATOM     23  H   UNL     1      -1.649  -0.293  27.305  0.00  0.00    +0.210 HD
ENDBRANCH   9   2
BRANCH   7   4
ATOM      4  N   UNL     1       0.386   0.977  24.656  0.00  0.00    -0.306 NA
ATOM     22  H   UNL     1       0.796   1.234  23.758  0.00  0.00    +0.123 HD
BRANCH   4   8
ATOM      8  C   UNL     1      -0.799   1.794  24.911  0.00  0.00    +0.054 C 
ATOM     10  C   UNL     1      -0.483   2.850  25.977  0.00  0.00    +0.019 C 
ATOM     11  C   UNL     1      -1.272   2.448  23.608  0.00  0.00    +0.019 C 
ATOM     14  C   UNL     1      -1.677   3.773  26.216  0.00  0.00    +0.002 C 
ATOM     15  C   UNL     1      -2.466   3.371  23.850  0.00  0.00    +0.002 C 
ATOM     16  C   UNL     1      -2.159   4.417  24.919  0.00  0.00    +0.000 C 
ENDBRANCH   4   8
ENDBRANCH   7   4
BRANCH  12  17
ATOM     17  C   UNL     1      -3.043  -2.455  25.029  0.00  0.00    +0.140 C 
BRANCH  17   5
ATOM      3  O   UNL     1      -3.945  -0.120  23.590  0.00  0.00    -0.253 OA
ATOM      5  N   UNL     1      -3.780  -1.344  25.559  0.00  0.00    -0.297 N 
ATOM      6  N   UNL     1      -4.879   0.686  25.554  0.00  0.00    -0.297 N 
ATOM     18  C   UNL     1      -4.181  -0.246  24.792  0.00  0.00    +0.300 C 
ATOM     24  H   UNL     1      -4.010  -1.348  26.548  0.00  0.00    +0.150 HD
ATOM     25  H   UNL     1      -5.090   0.457  26.521  0.00  0.00    +0.150 HD
BRANCH   6  19
ATOM     19  C   UNL     1      -5.406   1.913  25.004  0.00  0.00    +0.068 C 
ATOM     20  C   UNL     1      -6.843   1.717  24.538  0.00  0.00    +0.027 C 
ATOM     21  C   UNL     1      -5.305   3.037  26.025  0.00  0.00    +0.027 C 
ENDBRANCH   6  19
ENDBRANCH  17   5
ENDBRANCH  12  17
TORSDOF 6
ENDMDL
MODEL 5
REMARK VINA RESULT:      -5.2      2.085      4.926
REMARK  Name = 75367101
REMARK  8 active torsions:
REMARK  status: ('A' for Active; 'I' for Inactive)
REMARK    1  A    between atoms: O_2  and  C_9
REMARK    2  A    between atoms: N_4  and  C_7
REMARK    3  A    between atoms: N_4  and  C_8
REMARK    4  A    between atoms: N_5  and  C_17
REMARK    5  A    between atoms: N_6  and  C_19
REMARK    6  A    between atoms: C_12  and  C_17
REMARK    7  A    between atoms: C_19  and  C_20
REMARK    8  A    between atoms: C_19  and  C_21
REMARK                            x       y       z     vdW  Elec       q    Type
REMARK                         _______ _______ _______ _____ _____    ______ ____
ROOT
ATOM      1  O   UNL     1      -0.748   2.814  26.503  0.00  0.00    -0.371 OA
ATOM      7  C   UNL     1      -0.046   1.499  24.654  0.00  0.00    +0.111 C 
ATOM      9  C   UNL     1      -0.728   2.752  24.139  0.00  0.00    +0.164 C 
ATOM     12  C   UNL     1      -0.619   3.665  25.353  0.00  0.00    +0.165 C 
ATOM     13  C   UNL     1      -0.546   1.452  26.088  0.00  0.00    +0.181 C 
ENDROOT
BRANCH   9   2
ATOM      2  O   UNL     1      -0.081   3.301  23.007  0.00  0.00    -0.388 OA
ATOM     23  H   UNL     1      -0.491   4.160  22.807  0.00  0.00    +0.210 HD
ENDBRANCH   9   2
BRANCH   7   4
ATOM      4  N   UNL     1      -0.376   0.301  23.900  0.00  0.00    -0.306 NA
ATOM     22  H   UNL     1       0.421  -0.335  23.884  0.00  0.00    +0.123 HD
BRANCH   4   8
ATOM      8  C   UNL     1      -1.537  -0.372  24.479  0.00  0.00    +0.054 C 
ATOM     10  C   UNL     1      -2.809   0.055  23.737  0.00  0.00    +0.019 C 
ATOM     11  C   UNL     1      -1.343  -1.891  24.416  0.00  0.00    +0.019 C 
ATOM     14  C   UNL     1      -4.036  -0.688  24.266  0.00  0.00    +0.002 C 
ATOM     15  C   UNL     1      -2.572  -2.631  24.944  0.00  0.00    +0.002 C 
ATOM     16  C   UNL     1      -3.843  -2.201  24.216  0.00  0.00    +0.000 C 
ENDBRANCH   4   8
ENDBRANCH   7   4
BRANCH  12  17
ATOM     17  C   UNL     1      -1.687   4.744  25.390  0.00  0.00    +0.140 C 
BRANCH  17   5
ATOM      3  O   UNL     1      -3.956   3.417  24.197  0.00  0.00    -0.253 OA
ATOM      5  N   UNL     1      -2.870   4.284  26.059  0.00  0.00    -0.297 N 
ATOM      6  N   UNL     1      -4.948   3.307  26.291  0.00  0.00    -0.297 N 
ATOM     18  C   UNL     1      -3.929   3.647  25.405  0.00  0.00    +0.300 C 
ATOM     24  H   UNL     1      -2.948   4.443  27.059  0.00  0.00    +0.150 HD
ATOM     25  H   UNL     1      -4.801   3.471  27.282  0.00  0.00    +0.150 HD
BRANCH   6  19
ATOM     19  C   UNL     1      -6.158   2.637  25.873  0.00  0.00    +0.068 C 
ATOM     20  C   UNL     1      -5.939   1.913  24.552  0.00  0.00    +0.027 C 
ATOM     21  C   UNL     1      -6.633   1.680  26.957  0.00  0.00    +0.027 C 
ENDBRANCH   6  19
ENDBRANCH  17   5
ENDBRANCH  12  17
TORSDOF 6
ENDMDL
MODEL 6
REMARK VINA RESULT:      -4.2      2.318      3.896
REMARK  Name = 75367101
REMARK  8 active torsions:
REMARK  status: ('A' for Active; 'I' for Inactive)
REMARK    1  A    between atoms: O_2  and  C_9
REMARK    2  A    between atoms: N_4  and  C_7
REMARK    3  A    between atoms: N_4  and  C_8
REMARK    4  A    between atoms: N_5  and  C_17
REMARK    5  A    between atoms: N_6  and  C_19
REMARK    6  A    between atoms: C_12  and  C_17
REMARK    7  A    between atoms: C_19  and  C_20
REMARK    8  A    between atoms: C_19  and  C_21
REMARK                            x       y       z     vdW  Elec       q    Type
REMARK                         _______ _______ _______ _____ _____    ______ ____
ROOT
ATOM      1  O   UNL     1      -0.004   3.617  24.190  0.00  0.00    -0.371 OA
ATOM      7  C   UNL     1      -2.167   4.427  24.745  0.00  0.00    +0.111 C 
ATOM      9  C   UNL     1      -1.732   3.422  25.794  0.00  0.00    +0.164 C 
ATOM     12  C   UNL     1      -0.221   3.429  25.598  0.00  0.00    +0.165 C 
ATOM     13  C   UNL     1      -1.226   4.093  23.599  0.00  0.00    +0.181 C 
ENDROOT
BRANCH   9   2
ATOM      2  O   UNL     1      -2.095   3.808  27.106  0.00  0.00    -0.388 OA
ATOM     23  H   UNL     1      -1.296   3.798  27.660  0.00  0.00    +0.210 HD
ENDBRANCH   9   2
BRANCH   7   4
ATOM      4  N   UNL     1      -3.569   4.317  24.376  0.00  0.00    -0.306 NA
ATOM     22  H   UNL     1      -3.661   4.246  23.363  0.00  0.00    +0.123 HD
BRANCH   4   8
ATOM      8  C   UNL     1      -4.182   3.153  25.013  0.00  0.00    +0.054 C 
ATOM     10  C   UNL     1      -5.568   3.525  25.552  0.00  0.00    +0.019 C 
ATOM     11  C   UNL     1      -4.271   1.997  24.011  0.00  0.00    +0.019 C 
ATOM     14  C   UNL     1      -6.272   2.312  26.159  0.00  0.00    +0.002 C 
ATOM     15  C   UNL     1      -4.976   0.786  24.619  0.00  0.00    +0.002 C 
ATOM     16  C   UNL     1      -6.352   1.154  25.168  0.00  0.00    +0.000 C 
ENDBRANCH   4   8
ENDBRANCH   7   4
BRANCH  12  17
ATOM     17  C   UNL     1       0.449   2.145  26.055  0.00  0.00    +0.140 C 
BRANCH  17   5
ATOM      3  O   UNL     1      -0.365   0.340  23.954  0.00  0.00    -0.253 OA
ATOM      5  N   UNL     1      -0.496   1.071  26.156  0.00  0.00    -0.297 N 
ATOM      6  N   UNL     1      -1.776  -0.719  25.460  0.00  0.00    -0.297 N 
ATOM     18  C   UNL     1      -0.838   0.239  25.086  0.00  0.00    +0.300 C 
ATOM     24  H   UNL     1      -0.953   0.917  27.050  0.00  0.00    +0.150 HD
ATOM     25  H   UNL     1      -2.050  -0.771  26.437  0.00  0.00    +0.150 HD
BRANCH   6  19
ATOM     19  C   UNL     1      -2.299  -1.705  24.543  0.00  0.00    +0.068 C 
ATOM     20  C   UNL     1      -1.239  -2.750  24.221  0.00  0.00    +0.027 C 
ATOM     21  C   UNL     1      -3.553  -2.349  25.117  0.00  0.00    +0.027 C 
ENDBRANCH   6  19
ENDBRANCH  17   5
ENDBRANCH  12  17
TORSDOF 6
ENDMDL
MODEL 7
REMARK VINA RESULT:      -3.3      1.820      2.544
REMARK  Name = 75367101
REMARK  8 active torsions:
REMARK  status: ('A' for Active; 'I' for Inactive)
REMARK    1  A    between atoms: O_2  and  C_9
REMARK    2  A    between atoms: N_4  and  C_7
REMARK    3  A    between atoms: N_4  and  C_8
REMARK    4  A    between atoms: N_5  and  C_17
REMARK    5  A    between atoms: N_6  and  C_19
REMARK    6  A    between atoms: C_12  and  C_17
REMARK    7  A    between atoms: C_19  and  C_20
REMARK    8  A    between atoms: C_19  and  C_21
REMARK                            x       y       z     vdW  Elec       q    Type
REMARK                         _______ _______ _______ _____ _____    ______ ____
ROOT
ATOM      1  O   UNL     1      -4.147   3.097  23.636  0.00  0.00    -0.371 OA
ATOM      7  C   UNL     1      -5.211   1.278  24.732  0.00  0.00    +0.111 C 
ATOM      9  C   UNL     1      -5.044   2.419  25.717  0.00  0.00    +0.164 C 
ATOM     12  C   UNL     1      -4.870   3.600  24.772  0.00  0.00    +0.165 C 
ATOM     13  C   UNL     1      -4.209   1.661  23.655  0.00  0.00    +0.181 C 
ENDROOT
BRANCH   9   2
ATOM      2  O   UNL     1      -6.166   2.581  26.563  0.00  0.00    -0.388 OA
ATOM     23  H   UNL     1      -6.862   1.969  26.268  0.00  0.00    +0.210 HD
ENDBRANCH   9   2
BRANCH   7   4
ATOM      4  N   UNL     1      -4.953  -0.032  25.306  0.00  0.00    -0.306 NA
ATOM     22  H   UNL     1      -5.724  -0.666  25.095  0.00  0.00    +0.123 HD
BRANCH   4   8
ATOM      8  C   UNL     1      -3.702  -0.585  24.792  0.00  0.00    +0.054 C 
ATOM     10  C   UNL     1      -2.604  -0.463  25.854  0.00  0.00    +0.019 C 
ATOM     11  C   UNL     1      -3.910  -2.047  24.378  0.00  0.00    +0.019 C 
ATOM     14  C   UNL     1      -1.298  -1.101  25.381  0.00  0.00    +0.002 C 
ATOM     15  C   UNL     1      -2.603  -2.683  23.905  0.00  0.00    +0.002 C 
ATOM     16  C   UNL     1      -1.503  -2.552  24.956  0.00  0.00    +0.000 C 
ENDBRANCH   4   8
ENDBRANCH   7   4
BRANCH  12  17
ATOM     17  C   UNL     1      -4.110   4.759  25.392  0.00  0.00    +0.140 C 
BRANCH  17   5
ATOM      3  O   UNL     1      -2.204   2.751  26.207  0.00  0.00    -0.253 OA
ATOM      5  N   UNL     1      -2.716   4.706  25.060  0.00  0.00    -0.297 N 
ATOM      6  N   UNL     1      -0.559   3.885  25.030  0.00  0.00    -0.297 N 
ATOM     18  C   UNL     1      -1.856   3.694  25.497  0.00  0.00    +0.300 C 
ATOM     24  H   UNL     1      -2.329   5.452  24.489  0.00  0.00    +0.150 HD
ATOM     25  H   UNL     1      -0.385   4.653  24.388  0.00  0.00    +0.150 HD
BRANCH   6  19
ATOM     19  C   UNL     1       0.526   2.982  25.336  0.00  0.00    +0.068 C 
ATOM     20  C   UNL     1       0.404   2.464  26.763  0.00  0.00    +0.027 C 
ATOM     21  C   UNL     1       0.560   1.837  24.333  0.00  0.00    +0.027 C 
ENDBRANCH   6  19
ENDBRANCH  17   5
ENDBRANCH  12  17
TORSDOF 6
ENDMDL
MODEL 8
REMARK VINA RESULT:      -3.1      2.060      3.856
REMARK  Name = 75367101
REMARK  8 active torsions:
REMARK  status: ('A' for Active; 'I' for Inactive)
REMARK    1  A    between atoms: O_2  and  C_9
REMARK    2  A    between atoms: N_4  and  C_7
REMARK    3  A    between atoms: N_4  and  C_8
REMARK    4  A    between atoms: N_5  and  C_17
REMARK    5  A    between atoms: N_6  and  C_19
REMARK    6  A    between atoms: C_12  and  C_17
REMARK    7  A    between atoms: C_19  and  C_20
REMARK    8  A    between atoms: C_19  and  C_21
REMARK                            x       y       z     vdW  Elec       q    Type
REMARK                         _______ _______ _______ _____ _____    ______ ____
ROOT
ATOM      1  O   UNL     1      -0.604   0.360  25.064  0.00  0.00    -0.371 OA
ATOM      7  C   UNL     1      -2.681   0.047  23.956  0.00  0.00    +0.111 C 
ATOM      9  C   UNL     1      -1.949   1.210  23.314  0.00  0.00    +0.164 C 
ATOM     12  C   UNL     1      -0.516   0.930  23.748  0.00  0.00    +0.165 C 
ATOM     13  C   UNL     1      -1.960  -0.065  25.288  0.00  0.00    +0.181 C 
ENDROOT
BRANCH   9   2
ATOM      2  O   UNL     1      -2.079   1.229  21.906  0.00  0.00    -0.388 OA
ATOM     23  H   UNL     1      -3.024   1.304  21.687  0.00  0.00    +0.210 HD
ENDBRANCH   9   2
BRANCH   7   4
ATOM      4  N   UNL     1      -4.111   0.265  24.102  0.00  0.00    -0.306 NA
ATOM     22  H   UNL     1      -4.558  -0.574  24.471  0.00  0.00    +0.123 HD
BRANCH   4   8
ATOM      8  C   UNL     1      -4.373   1.397  24.989  0.00  0.00    +0.054 C 
ATOM     10  C   UNL     1      -4.077   2.711  24.257  0.00  0.00    +0.019 C 
ATOM     11  C   UNL     1      -5.826   1.351  25.476  0.00  0.00    +0.019 C 
ATOM     14  C   UNL     1      -4.413   3.921  25.128  0.00  0.00    +0.002 C 
ATOM     15  C   UNL     1      -6.159   2.563  26.347  0.00  0.00    +0.002 C 
ATOM     16  C   UNL     1      -5.855   3.873  25.625  0.00  0.00    +0.000 C 
ENDBRANCH   4   8
ENDBRANCH   7   4
BRANCH  12  17
ATOM     17  C   UNL     1       0.354   2.174  23.784  0.00  0.00    +0.140 C 
BRANCH  17   5
ATOM      3  O   UNL     1       1.847   0.085  22.468  0.00  0.00    -0.253 OA
ATOM      5  N   UNL     1       1.734   1.840  23.987  0.00  0.00    -0.297 N 
ATOM      6  N   UNL     1       3.719   0.700  23.693  0.00  0.00    -0.297 N 
ATOM     18  C   UNL     1       2.386   0.807  23.306  0.00  0.00    +0.300 C 
ATOM     24  H   UNL     1       2.261   2.372  24.673  0.00  0.00    +0.150 HD
ATOM     25  H   UNL     1       4.092   1.391  24.336  0.00  0.00    +0.150 HD
BRANCH   6  19
ATOM     19  C   UNL     1       4.618  -0.286  23.141  0.00  0.00    +0.068 C 
ATOM     20  C   UNL     1       6.067   0.140  23.339  0.00  0.00    +0.027 C 
ATOM     21  C   UNL     1       4.354  -1.651  23.763  0.00  0.00    +0.027 C 
ENDBRANCH   6  19
ENDBRANCH  17   5
ENDBRANCH  12  17
TORSDOF 6
ENDMDL
MODEL 9
REMARK VINA RESULT:      -2.9      2.178      4.645
REMARK  Name = 75367101
REMARK  8 active torsions:
REMARK  status: ('A' for Active; 'I' for Inactive)
REMARK    1  A    between atoms: O_2  and  C_9
REMARK    2  A    between atoms: N_4  and  C_7
REMARK    3  A    between atoms: N_4  and  C_8
REMARK    4  A    between atoms: N_5  and  C_17
REMARK    5  A    between atoms: N_6  and  C_19
REMARK    6  A    between atoms: C_12  and  C_17
REMARK    7  A    between atoms: C_19  and  C_20
REMARK    8  A    between atoms: C_19  and  C_21
REMARK                            x       y       z     vdW  Elec       q    Type
REMARK                         _______ _______ _______ _____ _____    ______ ____
ROOT
ATOM      1  O   UNL     1      -1.857  -1.388  25.970  0.00  0.00    -0.371 OA
ATOM      7  C   UNL     1      -4.001  -0.898  25.074  0.00  0.00    +0.111 C 
ATOM      9  C   UNL     1      -2.942  -0.510  24.060  0.00  0.00    +0.164 C 
ATOM     12  C   UNL     1      -1.760  -1.345  24.537  0.00  0.00    +0.165 C 
ATOM     13  C   UNL     1      -3.181  -0.977  26.351  0.00  0.00    +0.181 C 
ENDROOT
BRANCH   9   2
ATOM      2  O   UNL     1      -3.312  -0.830  22.733  0.00  0.00    -0.388 OA
ATOM     23  H   UNL     1      -2.564  -0.619  22.148  0.00  0.00    +0.210 HD
ENDBRANCH   9   2
BRANCH   7   4
ATOM      4  N   UNL     1      -5.099   0.051  25.164  0.00  0.00    -0.306 NA
ATOM     22  H   UNL     1      -5.646  -0.123  26.007  0.00  0.00    +0.123 HD
BRANCH   4   8
ATOM      8  C   UNL     1      -4.598   1.423  25.173  0.00  0.00    +0.054 C 
ATOM     10  C   UNL     1      -4.319   1.885  23.738  0.00  0.00    +0.019 C 
ATOM     11  C   UNL     1      -5.611   2.344  25.863  0.00  0.00    +0.019 C 
ATOM     14  C   UNL     1      -3.865   3.344  23.702  0.00  0.00    +0.002 C 
ATOM     15  C   UNL     1      -5.155   3.802  25.824  0.00  0.00    +0.002 C 
ATOM     16  C   UNL     1      -4.865   4.262  24.398  0.00  0.00    +0.000 C 
ENDBRANCH   4   8
ENDBRANCH   7   4
BRANCH  12  17
ATOM     17  C   UNL     1      -0.416  -0.769  24.130  0.00  0.00    +0.140 C 
BRANCH  17   5
ATOM      3  O   UNL     1      -0.452   1.305  26.137  0.00  0.00    -0.253 OA
ATOM      5  N   UNL     1      -0.499   0.646  23.909  0.00  0.00    -0.297 N 
ATOM      6  N   UNL     1      -0.599   2.888  24.447  0.00  0.00    -0.297 N 
ATOM     18  C   UNL     1      -0.512   1.589  24.941  0.00  0.00    +0.300 C 
ATOM     24  H   UNL     1      -0.568   0.979  22.952  0.00  0.00    +0.150 HD
ATOM     25  H   UNL     1      -0.567   3.025  23.442  0.00  0.00    +0.150 HD
BRANCH   6  19
ATOM     19  C   UNL     1      -0.629   4.051  25.303  0.00  0.00    +0.068 C 
ATOM     20  C   UNL     1      -0.727   5.324  24.472  0.00  0.00    +0.027 C 
ATOM     21  C   UNL     1      -1.779   3.949  26.295  0.00  0.00    +0.027 C 
ENDBRANCH   6  19
ENDBRANCH  17   5
ENDBRANCH  12  17
TORSDOF 6
ENDMDL
MODEL 10
REMARK VINA RESULT:      -2.7      2.243      3.489
REMARK  Name = 75367101
REMARK  8 active torsions:
REMARK  status: ('A' for Active; 'I' for Inactive)
REMARK    1  A    between atoms: O_2  and  C_9
REMARK    2  A    between atoms: N_4  and  C_7
REMARK    3  A    between atoms: N_4  and  C_8
REMARK    4  A    between atoms: N_5  and  C_17
REMARK    5  A    between atoms: N_6  and  C_19
REMARK    6  A    between atoms: C_12  and  C_17
REMARK    7  A    between atoms: C_19  and  C_20
REMARK    8  A    between atoms: C_19  and  C_21
REMARK                            x       y       z     vdW  Elec       q    Type
REMARK                         _______ _______ _______ _____ _____    ______ ____
ROOT
ATOM      1  O   UNL     1      -0.528   4.042  23.697  0.00  0.00    -0.371 OA
ATOM      7  C   UNL     1      -1.686   3.873  25.763  0.00  0.00    +0.111 C 
ATOM      9  C   UNL     1      -0.951   2.572  25.501  0.00  0.00    +0.164 C 
ATOM     12  C   UNL     1       0.100   3.027  24.497  0.00  0.00    +0.165 C 
ATOM     13  C   UNL     1      -1.716   4.488  24.374  0.00  0.00    +0.181 C 
ENDROOT
BRANCH   9   2
ATOM      2  O   UNL     1      -0.365   2.030  26.669  0.00  0.00    -0.388 OA
ATOM     23  H   UNL     1      -0.385   1.060  26.599  0.00  0.00    +0.210 HD
ENDBRANCH   9   2
BRANCH   7   4
ATOM      4  N   UNL     1      -3.013   3.691  26.329  0.00  0.00    -0.306 NA
ATOM     22  H   UNL     1      -3.433   4.596  26.540  0.00  0.00    +0.123 HD
BRANCH   4   8
ATOM      8  C   UNL     1      -3.871   2.948  25.409  0.00  0.00    +0.054 C 
ATOM     10  C   UNL     1      -3.368   1.505  25.278  0.00  0.00    +0.019 C 
ATOM     11  C   UNL     1      -5.321   2.985  25.905  0.00  0.00    +0.019 C 
ATOM     14  C   UNL     1      -4.287   0.676  24.382  0.00  0.00    +0.002 C 
ATOM     15  C   UNL     1      -6.238   2.154  25.007  0.00  0.00    +0.002 C 
ATOM     16  C   UNL     1      -5.734   0.719  24.865  0.00  0.00    +0.000 C 
ENDBRANCH   4   8
ENDBRANCH   7   4
BRANCH  12  17
ATOM     17  C   UNL     1       0.602   1.906  23.604  0.00  0.00    +0.140 C 
BRANCH  17   5
ATOM      3  O   UNL     1       2.169  -0.290  22.579  0.00  0.00    -0.253 OA
ATOM      5  N   UNL     1       2.012   1.701  23.767  0.00  0.00    -0.297 N 
ATOM      6  N   UNL     1       4.056   0.653  23.544  0.00  0.00    -0.297 N 
ATOM     18  C   UNL     1       2.700   0.605  23.237  0.00  0.00    +0.300 C 
ATOM     24  H   UNL     1       2.536   2.381  24.310  0.00  0.00    +0.150 HD
ATOM     25  H   UNL     1       4.413   1.472  24.028  0.00  0.00    +0.150 HD
BRANCH   6  19
ATOM     19  C   UNL     1       4.993  -0.359  23.116  0.00  0.00    +0.068 C 
ATOM     20  C   UNL     1       6.425   0.095  23.372  0.00  0.00    +0.027 C 
ATOM     21  C   UNL     1       4.700  -1.681  23.811  0.00  0.00    +0.027 C 
ENDBRANCH   6  19
ENDBRANCH  17   5
ENDBRANCH  12  17
TORSDOF 6
ENDMDL
