MODEL 1
REMARK VINA RESULT:      -1.1      0.000      0.000
REMARK  Name = 26742498
REMARK  10 active torsions:
REMARK  status: ('A' for Active; 'I' for Inactive)
REMARK    1  A    between atoms: S_2  and  C_24
REMARK    2  A    between atoms: S_2  and  C_30
REMARK    3  A    between atoms: O_4  and  C_32
REMARK    4  A    between atoms: N_7  and  C_17
REMARK    5  A    between atoms: C_11  and  C_18
REMARK    6  A    between atoms: C_12  and  C_17
REMARK    7  A    between atoms: C_20  and  C_23
REMARK    8  A    between atoms: C_21  and  C_24
REMARK    9  A    between atoms: C_22  and  C_25
REMARK   10  A    between atoms: C_30  and  C_32
REMARK                            x       y       z     vdW  Elec       q    Type
REMARK                         _______ _______ _______ _____ _____    ______ ____
ROOT
ATOM      6  N   UNL     1      -1.835  -2.195  23.786  0.00  0.00    -0.297 NA
ATOM     10  C   UNL     1      -3.755  -1.951  25.527  0.00  0.00    +0.002 C 
ATOM     11  C   UNL     1      -3.873  -0.856  24.432  0.00  0.00    +0.055 C 
ATOM     12  C   UNL     1      -1.276  -2.207  25.163  0.00  0.00    +0.074 C 
ATOM     13  C   UNL     1      -2.368  -1.856  26.196  0.00  0.00    +0.024 C 
ATOM     14  C   UNL     1      -3.818  -3.313  24.804  0.00  0.00    +0.019 C 
ATOM     15  C   UNL     1      -2.592  -0.940  23.554  0.00  0.00    +0.094 C 
ATOM     16  C   UNL     1      -2.779  -3.333  23.669  0.00  0.00    +0.085 C 
ENDROOT
BRANCH  11  18
ATOM      8  N   UNL     1      -5.379   0.778  25.453  0.00  0.00    -0.237 NA
ATOM      9  N   UNL     1      -4.790   3.105  25.675  0.00  0.00    -0.232 NA
ATOM     18  C   UNL     1      -4.180   0.569  24.870  0.00  0.00    +0.050 A 
ATOM     19  C   UNL     1      -3.246   1.563  24.658  0.00  0.00    +0.052 A 
ATOM     20  C   UNL     1      -3.609   2.824  25.086  0.00  0.00    +0.076 A 
ATOM     22  C   UNL     1      -5.615   2.052  25.824  0.00  0.00    +0.127 A 
ATOM     25  C   UNL     1      -6.932   2.323  26.471  0.00  0.00    +0.088 C 
BRANCH  20  23
ATOM      1 BR   UNL     1      -0.645   2.396  26.210  0.00  0.00    -0.050 Br
ATOM     23  C   UNL     1      -2.722   3.951  24.921  0.00  0.00    +0.014 A 
ATOM     26  C   UNL     1      -1.398   3.920  25.359  0.00  0.00    +0.027 A 
ATOM     27  C   UNL     1      -3.226   5.095  24.302  0.00  0.00    +0.011 A 
ATOM     28  C   UNL     1      -0.579   5.034  25.179  0.00  0.00    +0.016 A 
ATOM     29  C   UNL     1      -2.406   6.209  24.122  0.00  0.00    +0.001 A 
ATOM     31  C   UNL     1      -1.082   6.178  24.561  0.00  0.00    +0.001 A 
ENDBRANCH  20  23
ENDBRANCH  11  18
BRANCH  12  17
ATOM     17  C   UNL     1      -0.049  -1.302  25.300  0.00  0.00    +0.123 C 
BRANCH  17   7
ATOM      3  O   UNL     1       0.359   1.023  23.625  0.00  0.00    -0.275 OA
ATOM      7  N   UNL     1       0.678  -1.238  24.069  0.00  0.00    -0.313 N 
ATOM     21  C   UNL     1       0.828  -0.072  23.320  0.00  0.00    +0.223 C 
ATOM     33  H   UNL     1       1.096  -2.098  23.728  0.00  0.00    +0.149 HD
BRANCH  21  24
ATOM     24  C   UNL     1       1.622  -0.271  22.052  0.00  0.00    +0.165 C 
BRANCH  24   2
ATOM      2  S   UNL     1       3.224   0.552  22.226  0.00  0.00    -0.140 S 
BRANCH   2  30
ATOM     30  C   UNL     1       4.027  -0.650  23.312  0.00  0.00    +0.189 C 
BRANCH  30  32
ATOM      5  O   UNL     1       6.398  -0.259  23.134  0.00  0.00    -0.250 OA
ATOM     32  C   UNL     1       5.355  -0.111  23.758  0.00  0.00    +0.315 C 
BRANCH  32   4
ATOM      4  O   UNL     1       5.277   0.575  24.926  0.00  0.00    -0.480 OA
ATOM     34  H   UNL     1       4.513   0.286  25.470  0.00  0.00    +0.295 HD
ENDBRANCH  32   4
ENDBRANCH  30  32
ENDBRANCH   2  30
ENDBRANCH  24   2
ENDBRANCH  21  24
ENDBRANCH  17   7
ENDBRANCH  12  17
TORSDOF 9
ENDMDL
MODEL 2
REMARK VINA RESULT:       1.5      2.531      3.167
REMARK  Name = 26742498
REMARK  10 active torsions:
REMARK  status: ('A' for Active; 'I' for Inactive)
REMARK    1  A    between atoms: S_2  and  C_24
REMARK    2  A    between atoms: S_2  and  C_30
REMARK    3  A    between atoms: O_4  and  C_32
REMARK    4  A    between atoms: N_7  and  C_17
REMARK    5  A    between atoms: C_11  and  C_18
REMARK    6  A    between atoms: C_12  and  C_17
REMARK    7  A    between atoms: C_20  and  C_23
REMARK    8  A    between atoms: C_21  and  C_24
REMARK    9  A    between atoms: C_22  and  C_25
REMARK   10  A    between atoms: C_30  and  C_32
REMARK                            x       y       z     vdW  Elec       q    Type
REMARK                         _______ _______ _______ _____ _____    ______ ____
ROOT
ATOM      6  N   UNL     1      -2.124  -2.327  23.823  0.00  0.00    -0.297 NA
ATOM     10  C   UNL     1      -3.299  -1.758  26.076  0.00  0.00    +0.002 C 
ATOM     11  C   UNL     1      -3.948  -0.964  24.909  0.00  0.00    +0.055 C 
ATOM     12  C   UNL     1      -1.108  -1.983  24.852  0.00  0.00    +0.074 C 
ATOM     13  C   UNL     1      -1.789  -1.444  26.129  0.00  0.00    +0.024 C 
ATOM     14  C   UNL     1      -3.438  -3.256  25.728  0.00  0.00    +0.019 C 
ATOM     15  C   UNL     1      -3.072  -1.200  23.646  0.00  0.00    +0.094 C 
ATOM     16  C   UNL     1      -2.887  -3.500  24.312  0.00  0.00    +0.085 C 
ENDROOT
BRANCH  11  18
ATOM      8  N   UNL     1      -5.497   0.804  25.583  0.00  0.00    -0.237 NA
ATOM      9  N   UNL     1      -4.884   3.134  25.539  0.00  0.00    -0.232 NA
ATOM     18  C   UNL     1      -4.262   0.509  25.129  0.00  0.00    +0.050 A 
ATOM     19  C   UNL     1      -3.296   1.458  24.859  0.00  0.00    +0.052 A 
ATOM     20  C   UNL     1      -3.668   2.768  25.086  0.00  0.00    +0.076 A 
ATOM     22  C   UNL     1      -5.738   2.117  25.763  0.00  0.00    +0.127 A 
ATOM     25  C   UNL     1      -7.094   2.483  26.263  0.00  0.00    +0.088 C 
BRANCH  20  23
ATOM      1 BR   UNL     1      -1.895   2.483  22.439  0.00  0.00    -0.050 Br
ATOM     23  C   UNL     1      -2.750   3.855  24.842  0.00  0.00    +0.014 A 
ATOM     26  C   UNL     1      -1.909   3.878  23.731  0.00  0.00    +0.027 A 
ATOM     27  C   UNL     1      -2.721   4.905  25.761  0.00  0.00    +0.011 A 
ATOM     28  C   UNL     1      -1.037   4.950  23.537  0.00  0.00    +0.016 A 
ATOM     29  C   UNL     1      -1.850   5.977  25.568  0.00  0.00    +0.001 A 
ATOM     31  C   UNL     1      -1.008   5.999  24.455  0.00  0.00    +0.001 A 
ENDBRANCH  20  23
ENDBRANCH  11  18
BRANCH  12  17
ATOM     17  C   UNL     1      -0.046  -1.017  24.322  0.00  0.00    +0.123 C 
BRANCH  17   7
ATOM      3  O   UNL     1       1.351   1.426  23.643  0.00  0.00    -0.275 OA
ATOM      7  N   UNL     1      -0.104   0.235  25.012  0.00  0.00    -0.313 N 
ATOM     21  C   UNL     1       0.603   1.369  24.617  0.00  0.00    +0.223 C 
ATOM     33  H   UNL     1      -0.692   0.286  25.839  0.00  0.00    +0.149 HD
BRANCH  21  24
ATOM     24  C   UNL     1       0.385   2.558  25.522  0.00  0.00    +0.165 C 
BRANCH  24   2
ATOM      2  S   UNL     1       0.045   1.967  27.198  0.00  0.00    -0.140 S 
BRANCH   2  30
ATOM     30  C   UNL     1       1.487   2.674  28.029  0.00  0.00    +0.189 C 
BRANCH  30  32
ATOM      5  O   UNL     1       0.605   2.882  30.263  0.00  0.00    -0.250 OA
ATOM     32  C   UNL     1       1.414   2.372  29.498  0.00  0.00    +0.315 C 
BRANCH  32   4
ATOM      4  O   UNL     1       2.335   1.456  29.891  0.00  0.00    -0.480 OA
ATOM     34  H   UNL     1       2.233   0.605  29.413  0.00  0.00    +0.295 HD
ENDBRANCH  32   4
ENDBRANCH  30  32
ENDBRANCH   2  30
ENDBRANCH  24   2
ENDBRANCH  21  24
ENDBRANCH  17   7
ENDBRANCH  12  17
TORSDOF 9
ENDMDL
