MODEL 1
REMARK VINA RESULT:       2.6      0.000      0.000
REMARK  Name = 11941197
REMARK  13 active torsions:
REMARK  status: ('A' for Active; 'I' for Inactive)
REMARK    1  A    between atoms: O_3  and  C_31
REMARK    2  A    between atoms: O_3  and  C_34
REMARK    3  A    between atoms: O_4  and  C_32
REMARK    4  A    between atoms: O_4  and  C_33
REMARK    5  A    between atoms: N_7  and  C_19
REMARK    6  A    between atoms: N_8  and  C_20
REMARK    7  A    between atoms: C_9  and  C_15
REMARK    8  A    between atoms: C_10  and  C_14
REMARK    9  A    between atoms: C_14  and  C_16
REMARK   10  A    between atoms: C_15  and  C_18
REMARK   11  A    between atoms: C_19  and  C_21
REMARK   12  A    between atoms: C_26  and  C_32
REMARK   13  A    between atoms: C_33  and  C_35
REMARK                            x       y       z     vdW  Elec       q    Type
REMARK                         _______ _______ _______ _____ _____    ______ ____
ROOT
ATOM      1  O   UNL     1      -0.716  -1.092  25.969  0.00  0.00    -0.252 OA
ATOM      6  N   UNL     1      -2.659  -1.066  24.717  0.00  0.00    -0.285 N 
ATOM      8  N   UNL     1      -0.557  -0.859  23.666  0.00  0.00    -0.269 N 
ATOM      9  C   UNL     1      -5.305   0.103  24.683  0.00  0.00    +0.004 C 
ATOM     10  C   UNL     1      -4.383   0.173  23.437  0.00  0.00    +0.010 C 
ATOM     11  C   UNL     1      -4.498  -0.043  25.986  0.00  0.00    +0.023 C 
ATOM     12  C   UNL     1      -3.409  -1.016  23.452  0.00  0.00    +0.113 C 
ATOM     13  C   UNL     1      -3.505  -1.201  25.903  0.00  0.00    +0.109 C 
ATOM     17  C   UNL     1      -1.256  -1.021  24.862  0.00  0.00    +0.306 C 
ATOM     37  H   UNL     1      -0.967  -1.222  22.814  0.00  0.00    +0.156 HD
ENDROOT
BRANCH   8  20
ATOM     20  C   UNL     1       0.693  -0.217  23.481  0.00  0.00    +0.036 A 
ATOM     22  C   UNL     1       1.870  -0.967  23.491  0.00  0.00    +0.038 A 
ATOM     23  C   UNL     1       0.747   1.163  23.289  0.00  0.00    +0.023 A 
ATOM     26  C   UNL     1       3.100  -0.336  23.309  0.00  0.00    +0.061 A 
ATOM     27  C   UNL     1       1.977   1.794  23.107  0.00  0.00    +0.003 A 
ATOM     28  C   UNL     1       3.153   1.045  23.117  0.00  0.00    +0.015 A 
BRANCH  26  32
ATOM      5  O   UNL     1       4.445  -2.230  23.848  0.00  0.00    -0.245 OA
ATOM     32  C   UNL     1       4.327  -1.116  23.318  0.00  0.00    +0.339 C 
BRANCH  32   4
ATOM      4  O   UNL     1       5.341  -0.467  22.668  0.00  0.00    -0.461 OA
BRANCH   4  33
ATOM     33  C   UNL     1       6.479  -0.095  23.453  0.00  0.00    +0.229 C 
ATOM     35  C   UNL     1       6.022   0.792  24.593  0.00  0.00    +0.048 C 
ENDBRANCH   4  33
ENDBRANCH  32   4
ENDBRANCH  26  32
ENDBRANCH   8  20
BRANCH  10  14
ATOM     14  C   UNL     1      -3.616   1.494  23.302  0.00  0.00    +0.002 C 
ATOM     16  C   UNL     1      -2.669   1.457  22.122  0.00  0.00    +0.004 C 
ENDBRANCH  10  14
BRANCH   9  15
ATOM     15  C   UNL     1      -6.275   1.281  24.778  0.00  0.00    +0.099 C 
BRANCH  15  18
ATOM      2  O   UNL     1      -5.893   2.856  26.574  0.00  0.00    -0.276 OA
ATOM      7  N   UNL     1      -4.764   3.124  24.560  0.00  0.00    -0.311 N 
ATOM     18  C   UNL     1      -5.643   2.493  25.428  0.00  0.00    +0.214 C 
ATOM     36  H   UNL     1      -4.630   2.753  23.625  0.00  0.00    +0.149 HD
BRANCH   7  19
ATOM     19  C   UNL     1      -4.021   4.312  24.915  0.00  0.00    +0.139 C 
BRANCH  19  21
ATOM     21  C   UNL     1      -2.617   3.992  25.337  0.00  0.00    -0.030 A 
ATOM     24  C   UNL     1      -2.358   2.848  26.092  0.00  0.00    +0.009 A 
ATOM     25  C   UNL     1      -1.568   4.839  24.973  0.00  0.00    +0.009 A 
ATOM     29  C   UNL     1      -1.053   2.550  26.483  0.00  0.00    +0.046 A 
ATOM     30  C   UNL     1      -0.263   4.539  25.364  0.00  0.00    +0.046 A 
ATOM     31  C   UNL     1      -0.006   3.395  26.119  0.00  0.00    +0.120 A 
BRANCH  31   3
ATOM      3  O   UNL     1       1.267   3.105  26.502  0.00  0.00    -0.495 OA
ATOM     34  C   UNL     1       1.467   2.734  27.866  0.00  0.00    +0.277 C 
ENDBRANCH  31   3
ENDBRANCH  19  21
ENDBRANCH   7  19
ENDBRANCH  15  18
ENDBRANCH   9  15
TORSDOF 10
ENDMDL
MODEL 2
REMARK VINA RESULT:       3.3      1.823      4.124
REMARK  Name = 11941197
REMARK  13 active torsions:
REMARK  status: ('A' for Active; 'I' for Inactive)
REMARK    1  A    between atoms: O_3  and  C_31
REMARK    2  A    between atoms: O_3  and  C_34
REMARK    3  A    between atoms: O_4  and  C_32
REMARK    4  A    between atoms: O_4  and  C_33
REMARK    5  A    between atoms: N_7  and  C_19
REMARK    6  A    between atoms: N_8  and  C_20
REMARK    7  A    between atoms: C_9  and  C_15
REMARK    8  A    between atoms: C_10  and  C_14
REMARK    9  A    between atoms: C_14  and  C_16
REMARK   10  A    between atoms: C_15  and  C_18
REMARK   11  A    between atoms: C_19  and  C_21
REMARK   12  A    between atoms: C_26  and  C_32
REMARK   13  A    between atoms: C_33  and  C_35
REMARK                            x       y       z     vdW  Elec       q    Type
REMARK                         _______ _______ _______ _____ _____    ______ ____
ROOT
ATOM      1  O   UNL     1      -1.919   1.991  21.736  0.00  0.00    -0.252 OA
ATOM      6  N   UNL     1      -2.415   3.513  23.403  0.00  0.00    -0.285 N 
ATOM      8  N   UNL     1      -0.272   2.536  23.276  0.00  0.00    -0.269 N 
ATOM      9  C   UNL     1      -4.474   4.156  25.331  0.00  0.00    +0.004 C 
ATOM     10  C   UNL     1      -2.989   4.019  25.761  0.00  0.00    +0.010 C 
ATOM     11  C   UNL     1      -4.778   3.350  24.056  0.00  0.00    +0.023 C 
ATOM     12  C   UNL     1      -2.076   4.346  24.567  0.00  0.00    +0.113 C 
ATOM     13  C   UNL     1      -3.792   3.677  22.936  0.00  0.00    +0.109 C 
ATOM     17  C   UNL     1      -1.547   2.633  22.722  0.00  0.00    +0.306 C 
ATOM     37  H   UNL     1       0.104   3.339  23.767  0.00  0.00    +0.156 HD
ENDROOT
BRANCH   8  20
ATOM     20  C   UNL     1       0.593   1.414  23.251  0.00  0.00    +0.036 A 
ATOM     22  C   UNL     1       1.959   1.591  23.030  0.00  0.00    +0.038 A 
ATOM     23  C   UNL     1       0.079   0.132  23.447  0.00  0.00    +0.023 A 
ATOM     26  C   UNL     1       2.811   0.487  23.005  0.00  0.00    +0.061 A 
ATOM     27  C   UNL     1       0.931  -0.972  23.422  0.00  0.00    +0.003 A 
ATOM     28  C   UNL     1       2.296  -0.795  23.200  0.00  0.00    +0.015 A 
BRANCH  26  32
ATOM      5  O   UNL     1       4.778   0.621  21.663  0.00  0.00    -0.245 OA
ATOM     32  C   UNL     1       4.235   0.671  22.775  0.00  0.00    +0.339 C 
BRANCH  32   4
ATOM      4  O   UNL     1       4.907   0.907  23.944  0.00  0.00    -0.461 OA
BRANCH   4  33
ATOM     33  C   UNL     1       5.952  -0.009  24.285  0.00  0.00    +0.229 C 
ATOM     35  C   UNL     1       5.421  -1.424  24.184  0.00  0.00    +0.048 C 
ENDBRANCH   4  33
ENDBRANCH  32   4
ENDBRANCH  26  32
ENDBRANCH   8  20
BRANCH  10  14
ATOM     14  C   UNL     1      -2.634   2.648  26.347  0.00  0.00    +0.002 C 
ATOM     16  C   UNL     1      -1.134   2.455  26.416  0.00  0.00    +0.004 C 
ENDBRANCH  10  14
BRANCH   9  15
ATOM     15  C   UNL     1      -5.456   3.796  26.445  0.00  0.00    +0.099 C 
BRANCH  15  18
ATOM      2  O   UNL     1      -6.689   1.841  27.159  0.00  0.00    -0.276 OA
ATOM      7  N   UNL     1      -5.508   1.779  25.158  0.00  0.00    -0.311 N 
ATOM     18  C   UNL     1      -5.967   2.377  26.323  0.00  0.00    +0.214 C 
ATOM     36  H   UNL     1      -4.904   2.302  24.531  0.00  0.00    +0.149 HD
BRANCH   7  19
ATOM     19  C   UNL     1      -5.836   0.421  24.785  0.00  0.00    +0.139 C 
BRANCH  19  21
ATOM     21  C   UNL     1      -4.633  -0.475  24.808  0.00  0.00    -0.030 A 
ATOM     24  C   UNL     1      -4.555  -1.562  23.938  0.00  0.00    +0.009 A 
ATOM     25  C   UNL     1      -3.590  -0.221  25.700  0.00  0.00    +0.009 A 
ATOM     29  C   UNL     1      -3.436  -2.394  23.958  0.00  0.00    +0.046 A 
ATOM     30  C   UNL     1      -2.471  -1.053  25.720  0.00  0.00    +0.046 A 
ATOM     31  C   UNL     1      -2.395  -2.140  24.849  0.00  0.00    +0.120 A 
BRANCH  31   3
ATOM      3  O   UNL     1      -1.303  -2.953  24.870  0.00  0.00    -0.495 OA
ATOM     34  C   UNL     1      -0.219  -2.563  25.713  0.00  0.00    +0.277 C 
ENDBRANCH  31   3
ENDBRANCH  19  21
ENDBRANCH   7  19
ENDBRANCH  15  18
ENDBRANCH   9  15
TORSDOF 10
ENDMDL
MODEL 3
REMARK VINA RESULT:       6.2      1.435      2.191
REMARK  Name = 11941197
REMARK  13 active torsions:
REMARK  status: ('A' for Active; 'I' for Inactive)
REMARK    1  A    between atoms: O_3  and  C_31
REMARK    2  A    between atoms: O_3  and  C_34
REMARK    3  A    between atoms: O_4  and  C_32
REMARK    4  A    between atoms: O_4  and  C_33
REMARK    5  A    between atoms: N_7  and  C_19
REMARK    6  A    between atoms: N_8  and  C_20
REMARK    7  A    between atoms: C_9  and  C_15
REMARK    8  A    between atoms: C_10  and  C_14
REMARK    9  A    between atoms: C_14  and  C_16
REMARK   10  A    between atoms: C_15  and  C_18
REMARK   11  A    between atoms: C_19  and  C_21
REMARK   12  A    between atoms: C_26  and  C_32
REMARK   13  A    between atoms: C_33  and  C_35
REMARK                            x       y       z     vdW  Elec       q    Type
REMARK                         _______ _______ _______ _____ _____    ______ ____
ROOT
ATOM      1  O   UNL     1      -2.817  -1.256  26.769  0.00  0.00    -0.252 OA
ATOM      6  N   UNL     1      -4.339  -0.354  25.281  0.00  0.00    -0.285 N 
ATOM      8  N   UNL     1      -2.343  -1.338  24.500  0.00  0.00    -0.269 N 
ATOM      9  C   UNL     1      -5.987   1.990  24.882  0.00  0.00    +0.004 C 
ATOM     10  C   UNL     1      -5.047   1.472  23.762  0.00  0.00    +0.010 C 
ATOM     11  C   UNL     1      -5.499   1.568  26.280  0.00  0.00    +0.023 C 
ATOM     12  C   UNL     1      -4.831  -0.041  23.930  0.00  0.00    +0.113 C 
ATOM     13  C   UNL     1      -5.242   0.064  26.354  0.00  0.00    +0.109 C 
ATOM     17  C   UNL     1      -3.135  -1.017  25.601  0.00  0.00    +0.306 C 
ATOM     37  H   UNL     1      -2.798  -1.514  23.612  0.00  0.00    +0.156 HD
ENDROOT
BRANCH   8  20
ATOM     20  C   UNL     1      -0.930  -1.440  24.458  0.00  0.00    +0.036 A 
ATOM     22  C   UNL     1      -0.202  -0.683  23.539  0.00  0.00    +0.038 A 
ATOM     23  C   UNL     1      -0.267  -2.297  25.336  0.00  0.00    +0.023 A 
ATOM     26  C   UNL     1       1.188  -0.784  23.499  0.00  0.00    +0.061 A 
ATOM     27  C   UNL     1       1.124  -2.398  25.296  0.00  0.00    +0.003 A 
ATOM     28  C   UNL     1       1.851  -1.642  24.377  0.00  0.00    +0.015 A 
BRANCH  26  32
ATOM      5  O   UNL     1       1.897  -0.145  21.313  0.00  0.00    -0.245 OA
ATOM     32  C   UNL     1       1.948   0.004  22.541  0.00  0.00    +0.339 C 
BRANCH  32   4
ATOM      4  O   UNL     1       2.730   0.937  23.166  0.00  0.00    -0.461 OA
BRANCH   4  33
ATOM     33  C   UNL     1       4.066   1.093  22.676  0.00  0.00    +0.229 C 
ATOM     35  C   UNL     1       4.979   0.141  23.421  0.00  0.00    +0.048 C 
ENDBRANCH   4  33
ENDBRANCH  32   4
ENDBRANCH  26  32
ENDBRANCH   8  20
BRANCH  10  14
ATOM     14  C   UNL     1      -3.700   2.201  23.690  0.00  0.00    +0.002 C 
ATOM     16  C   UNL     1      -2.831   1.637  22.587  0.00  0.00    +0.004 C 
ENDBRANCH  10  14
BRANCH   9  15
ATOM     15  C   UNL     1      -6.215   3.501  24.824  0.00  0.00    +0.099 C 
BRANCH  15  18
ATOM      2  O   UNL     1      -4.871   4.552  26.538  0.00  0.00    -0.276 OA
ATOM      7  N   UNL     1      -4.170   4.640  24.323  0.00  0.00    -0.311 N 
ATOM     18  C   UNL     1      -5.030   4.280  25.351  0.00  0.00    +0.214 C 
ATOM     36  H   UNL     1      -4.393   4.376  23.368  0.00  0.00    +0.149 HD
BRANCH   7  19
ATOM     19  C   UNL     1      -2.956   5.395  24.537  0.00  0.00    +0.139 C 
BRANCH  19  21
ATOM     21  C   UNL     1      -1.875   4.559  25.155  0.00  0.00    -0.030 A 
ATOM     24  C   UNL     1      -2.147   3.793  26.289  0.00  0.00    +0.009 A 
ATOM     25  C   UNL     1      -0.597   4.545  24.596  0.00  0.00    +0.009 A 
ATOM     29  C   UNL     1      -1.143   3.014  26.863  0.00  0.00    +0.046 A 
ATOM     30  C   UNL     1       0.407   3.765  25.170  0.00  0.00    +0.046 A 
ATOM     31  C   UNL     1       0.134   3.000  26.304  0.00  0.00    +0.120 A 
BRANCH  31   3
ATOM      3  O   UNL     1       1.115   2.241  26.864  0.00  0.00    -0.495 OA
ATOM     34  C   UNL     1       1.343   2.405  28.264  0.00  0.00    +0.277 C 
ENDBRANCH  31   3
ENDBRANCH  19  21
ENDBRANCH   7  19
ENDBRANCH  15  18
ENDBRANCH   9  15
TORSDOF 10
ENDMDL
