MODEL 1
REMARK VINA RESULT:      -3.6      0.000      0.000
REMARK  Name = 45784022
REMARK  4 active torsions:
REMARK  status: ('A' for Active; 'I' for Inactive)
REMARK    1  A    between atoms: N_6  and  C_15
REMARK    2  A    between atoms: C_7  and  C_11
REMARK    3  A    between atoms: C_15  and  C_18
REMARK    4  A    between atoms: C_15  and  C_19
REMARK                            x       y       z     vdW  Elec       q    Type
REMARK                         _______ _______ _______ _____ _____    ______ ____
ROOT
ATOM      2  O   UNL     1       9.573 -10.525  32.487  0.00  0.00    -0.253 OA
ATOM      3  N   UNL     1      10.838  -8.597  32.495  0.00  0.00    -0.285 N 
ATOM      6  N   UNL     1       8.563  -8.522  31.951  0.00  0.00    -0.297 N 
ATOM      7  C   UNL     1      13.185  -8.229  32.608  0.00  0.00    +0.074 C 
ATOM      8  C   UNL     1      12.448  -6.903  32.852  0.00  0.00    +0.032 C 
ATOM      9  C   UNL     1      12.082  -9.260  32.873  0.00  0.00    +0.120 C 
ATOM     10  C   UNL     1      11.040  -7.160  32.329  0.00  0.00    +0.110 C 
ATOM     12  C   UNL     1       9.651  -9.304  32.324  0.00  0.00    +0.302 C 
ATOM     23  H   UNL     1       8.703  -7.543  31.731  0.00  0.00    +0.150 HD
ENDROOT
BRANCH   7  11
ATOM      1  F   UNL     1      16.179  -6.726  26.153  0.00  0.00    -0.205 F 
ATOM      4  N   UNL     1      14.119  -7.110  30.556  0.00  0.00    -0.341 N 
ATOM      5  N   UNL     1      14.181  -9.331  30.554  0.00  0.00    -0.232 NA
ATOM     11  C   UNL     1      13.832  -8.262  31.233  0.00  0.00    +0.113 A 
ATOM     13  C   UNL     1      14.692  -7.458  29.360  0.00  0.00    +0.069 A 
ATOM     14  C   UNL     1      14.719  -8.850  29.382  0.00  0.00    +0.089 A 
ATOM     16  C   UNL     1      15.173  -6.699  28.293  0.00  0.00    +0.066 A 
ATOM     17  C   UNL     1      15.254  -9.541  28.283  0.00  0.00    +0.032 A 
ATOM     20  C   UNL     1      15.703  -7.404  27.207  0.00  0.00    +0.125 A 
ATOM     21  C   UNL     1      15.744  -8.800  27.200  0.00  0.00    +0.040 A 
ATOM     22  H   UNL     1      13.941  -6.167  30.878  0.00  0.00    +0.167 HD
ENDBRANCH   7  11
BRANCH   6  15
ATOM     15  C   UNL     1       7.250  -9.080  31.724  0.00  0.00    +0.068 C 
ATOM     18  C   UNL     1       6.169  -8.100  32.161  0.00  0.00    +0.027 C 
ATOM     19  C   UNL     1       7.084  -9.468  30.260  0.00  0.00    +0.027 C 
ENDBRANCH   6  15
TORSDOF 2
ENDMDL
MODEL 2
REMARK VINA RESULT:      -3.3      3.284      7.156
REMARK  Name = 45784022
REMARK  4 active torsions:
REMARK  status: ('A' for Active; 'I' for Inactive)
REMARK    1  A    between atoms: N_6  and  C_15
REMARK    2  A    between atoms: C_7  and  C_11
REMARK    3  A    between atoms: C_15  and  C_18
REMARK    4  A    between atoms: C_15  and  C_19
REMARK                            x       y       z     vdW  Elec       q    Type
REMARK                         _______ _______ _______ _____ _____    ______ ____
ROOT
ATOM      2  O   UNL     1      14.308  -5.835  30.433  0.00  0.00    -0.253 OA
ATOM      3  N   UNL     1      13.877  -8.010  31.064  0.00  0.00    -0.285 N 
ATOM      6  N   UNL     1      14.872  -7.548  28.996  0.00  0.00    -0.297 N 
ATOM      7  C   UNL     1      12.584  -8.933  32.834  0.00  0.00    +0.074 C 
ATOM      8  C   UNL     1      13.460 -10.032  32.215  0.00  0.00    +0.032 C 
ATOM      9  C   UNL     1      13.284  -7.658  32.349  0.00  0.00    +0.120 C 
ATOM     10  C   UNL     1      13.879  -9.458  30.867  0.00  0.00    +0.110 C 
ATOM     12  C   UNL     1      14.351  -7.042  30.182  0.00  0.00    +0.302 C 
ATOM     23  H   UNL     1      14.791  -8.538  28.796  0.00  0.00    +0.150 HD
ENDROOT
BRANCH   7  11
ATOM      1  F   UNL     1       5.472  -8.157  31.527  0.00  0.00    -0.205 F 
ATOM      4  N   UNL     1      10.223  -8.085  32.622  0.00  0.00    -0.341 N 
ATOM      5  N   UNL     1      10.567 -10.165  31.919  0.00  0.00    -0.232 NA
ATOM     11  C   UNL     1      11.125  -9.098  32.445  0.00  0.00    +0.113 A 
ATOM     13  C   UNL     1       9.003  -8.528  32.181  0.00  0.00    +0.069 A 
ATOM     14  C   UNL     1       9.244  -9.830  31.747  0.00  0.00    +0.089 A 
ATOM     16  C   UNL     1       7.748  -7.922  32.126  0.00  0.00    +0.066 A 
ATOM     17  C   UNL     1       8.180 -10.584  31.224  0.00  0.00    +0.032 A 
ATOM     20  C   UNL     1       6.701  -8.688  31.603  0.00  0.00    +0.125 A 
ATOM     21  C   UNL     1       6.911  -9.996  31.160  0.00  0.00    +0.040 A 
ATOM     22  H   UNL     1      10.419  -7.172  33.010  0.00  0.00    +0.167 HD
ENDBRANCH   7  11
BRANCH   6  15
ATOM     15  C   UNL     1      15.407  -6.696  27.960  0.00  0.00    +0.068 C 
ATOM     18  C   UNL     1      16.771  -6.151  28.366  0.00  0.00    +0.027 C 
ATOM     19  C   UNL     1      15.486  -7.452  26.639  0.00  0.00    +0.027 C 
ENDBRANCH   6  15
TORSDOF 2
ENDMDL
MODEL 3
REMARK VINA RESULT:      -2.9      4.549      8.321
REMARK  Name = 45784022
REMARK  4 active torsions:
REMARK  status: ('A' for Active; 'I' for Inactive)
REMARK    1  A    between atoms: N_6  and  C_15
REMARK    2  A    between atoms: C_7  and  C_11
REMARK    3  A    between atoms: C_15  and  C_18
REMARK    4  A    between atoms: C_15  and  C_19
REMARK                            x       y       z     vdW  Elec       q    Type
REMARK                         _______ _______ _______ _____ _____    ______ ____
ROOT
ATOM      2  O   UNL     1      17.356  -2.850  27.155  0.00  0.00    -0.253 OA
ATOM      3  N   UNL     1      17.215  -4.948  28.102  0.00  0.00    -0.285 N 
ATOM      6  N   UNL     1      17.006  -4.673  25.787  0.00  0.00    -0.297 N 
ATOM      7  C   UNL     1      16.994  -5.670  30.357  0.00  0.00    +0.074 C 
ATOM      8  C   UNL     1      17.364  -6.869  29.471  0.00  0.00    +0.032 C 
ATOM      9  C   UNL     1      17.398  -4.485  29.473  0.00  0.00    +0.120 C 
ATOM     10  C   UNL     1      17.045  -6.398  28.057  0.00  0.00    +0.110 C 
ATOM     12  C   UNL     1      17.205  -4.068  27.023  0.00  0.00    +0.302 C 
ATOM     23  H   UNL     1      16.784  -5.661  25.743  0.00  0.00    +0.150 HD
ENDROOT
BRANCH   7  11
ATOM      1  F   UNL     1      10.197  -7.573  32.108  0.00  0.00    -0.205 F 
ATOM      4  N   UNL     1      14.845  -6.905  30.794  0.00  0.00    -0.341 N 
ATOM      5  N   UNL     1      14.803  -4.723  31.208  0.00  0.00    -0.232 NA
ATOM     11  C   UNL     1      15.541  -5.728  30.795  0.00  0.00    +0.113 A 
ATOM     13  C   UNL     1      13.574  -6.642  31.236  0.00  0.00    +0.069 A 
ATOM     14  C   UNL     1      13.573  -5.272  31.488  0.00  0.00    +0.089 A 
ATOM     16  C   UNL     1      12.460  -7.459  31.430  0.00  0.00    +0.066 A 
ATOM     17  C   UNL     1      12.398  -4.666  31.962  0.00  0.00    +0.032 A 
ATOM     20  C   UNL     1      11.299  -6.838  31.903  0.00  0.00    +0.125 A 
ATOM     21  C   UNL     1      11.267  -5.466  32.165  0.00  0.00    +0.040 A 
ATOM     22  H   UNL     1      15.203  -7.811  30.516  0.00  0.00    +0.167 HD
ENDBRANCH   7  11
BRANCH   6  15
ATOM     15  C   UNL     1      16.961  -3.921  24.554  0.00  0.00    +0.068 C 
ATOM     18  C   UNL     1      17.117  -4.848  23.356  0.00  0.00    +0.027 C 
ATOM     19  C   UNL     1      15.667  -3.120  24.468  0.00  0.00    +0.027 C 
ENDBRANCH   6  15
TORSDOF 2
ENDMDL
MODEL 4
REMARK VINA RESULT:      -1.4      3.639      7.276
REMARK  Name = 45784022
REMARK  4 active torsions:
REMARK  status: ('A' for Active; 'I' for Inactive)
REMARK    1  A    between atoms: N_6  and  C_15
REMARK    2  A    between atoms: C_7  and  C_11
REMARK    3  A    between atoms: C_15  and  C_18
REMARK    4  A    between atoms: C_15  and  C_19
REMARK                            x       y       z     vdW  Elec       q    Type
REMARK                         _______ _______ _______ _____ _____    ______ ____
ROOT
ATOM      2  O   UNL     1      16.264  -6.295  28.411  0.00  0.00    -0.253 OA
ATOM      3  N   UNL     1      16.151  -7.634  30.285  0.00  0.00    -0.285 N 
ATOM      6  N   UNL     1      16.983  -8.482  28.268  0.00  0.00    -0.297 N 
ATOM      7  C   UNL     1      15.071  -7.352  32.385  0.00  0.00    +0.074 C 
ATOM      8  C   UNL     1      16.055  -8.529  32.471  0.00  0.00    +0.032 C 
ATOM      9  C   UNL     1      15.576  -6.606  31.145  0.00  0.00    +0.120 C 
ATOM     10  C   UNL     1      16.334  -8.886  31.015  0.00  0.00    +0.110 C 
ATOM     12  C   UNL     1      16.454  -7.390  28.948  0.00  0.00    +0.302 C 
ATOM     23  H   UNL     1      17.023  -9.385  28.726  0.00  0.00    +0.150 HD
ENDROOT
BRANCH   7  11
ATOM      1  F   UNL     1       7.853  -8.128  32.825  0.00  0.00    -0.205 F 
ATOM      4  N   UNL     1      12.603  -7.026  32.759  0.00  0.00    -0.341 N 
ATOM      5  N   UNL     1      13.202  -9.008  31.952  0.00  0.00    -0.232 NA
ATOM     11  C   UNL     1      13.630  -7.832  32.352  0.00  0.00    +0.113 A 
ATOM     13  C   UNL     1      11.435  -7.729  32.612  0.00  0.00    +0.069 A 
ATOM     14  C   UNL     1      11.836  -8.964  32.107  0.00  0.00    +0.089 A 
ATOM     16  C   UNL     1      10.104  -7.402  32.871  0.00  0.00    +0.066 A 
ATOM     17  C   UNL     1      10.863  -9.941  31.838  0.00  0.00    +0.032 A 
ATOM     20  C   UNL     1       9.149  -8.386  32.596  0.00  0.00    +0.125 A 
ATOM     21  C   UNL     1       9.520  -9.634  32.089  0.00  0.00    +0.040 A 
ATOM     22  H   UNL     1      12.688  -6.080  33.108  0.00  0.00    +0.167 HD
ENDBRANCH   7  11
BRANCH   6  15
ATOM     15  C   UNL     1      17.354  -8.420  26.873  0.00  0.00    +0.068 C 
ATOM     18  C   UNL     1      17.395  -9.817  26.268  0.00  0.00    +0.027 C 
ATOM     19  C   UNL     1      16.396  -7.514  26.109  0.00  0.00    +0.027 C 
ENDBRANCH   6  15
TORSDOF 2
ENDMDL
MODEL 5
REMARK VINA RESULT:      -1.1     14.348     16.677
REMARK  Name = 45784022
REMARK  4 active torsions:
REMARK  status: ('A' for Active; 'I' for Inactive)
REMARK    1  A    between atoms: N_6  and  C_15
REMARK    2  A    between atoms: C_7  and  C_11
REMARK    3  A    between atoms: C_15  and  C_18
REMARK    4  A    between atoms: C_15  and  C_19
REMARK                            x       y       z     vdW  Elec       q    Type
REMARK                         _______ _______ _______ _____ _____    ______ ____
ROOT
ATOM      2  O   UNL     1      -3.446   1.785  23.147  0.00  0.00    -0.253 OA
ATOM      3  N   UNL     1      -2.150   0.433  24.492  0.00  0.00    -0.285 N 
ATOM      6  N   UNL     1      -3.176   2.346  25.367  0.00  0.00    -0.297 N 
ATOM      7  C   UNL     1      -0.648  -1.344  23.996  0.00  0.00    +0.074 C 
ATOM      8  C   UNL     1      -0.950  -1.335  25.502  0.00  0.00    +0.032 C 
ATOM      9  C   UNL     1      -1.808  -0.513  23.435  0.00  0.00    +0.120 C 
ATOM     10  C   UNL     1      -1.528   0.052  25.757  0.00  0.00    +0.110 C 
ATOM     12  C   UNL     1      -2.961   1.540  24.255  0.00  0.00    +0.302 C 
ATOM     23  H   UNL     1      -2.674   2.158  26.226  0.00  0.00    +0.150 HD
ENDROOT
BRANCH   7  11
ATOM      1  F   UNL     1       6.525  -0.351  23.327  0.00  0.00    -0.205 F 
ATOM      4  N   UNL     1       1.859  -1.565  24.053  0.00  0.00    -0.341 N 
ATOM      5  N   UNL     1       1.077   0.294  23.119  0.00  0.00    -0.232 NA
ATOM     11  C   UNL     1       0.755  -0.837  23.706  0.00  0.00    +0.113 A 
ATOM     13  C   UNL     1       2.967  -0.856  23.665  0.00  0.00    +0.069 A 
ATOM     14  C   UNL     1       2.452   0.300  23.085  0.00  0.00    +0.089 A 
ATOM     16  C   UNL     1       4.333  -1.119  23.770  0.00  0.00    +0.066 A 
ATOM     17  C   UNL     1       3.340   1.262  22.573  0.00  0.00    +0.032 A 
ATOM     20  C   UNL     1       5.202  -0.151  23.254  0.00  0.00    +0.125 A 
ATOM     21  C   UNL     1       4.716   1.019  22.666  0.00  0.00    +0.040 A 
ATOM     22  H   UNL     1       1.860  -2.465  24.515  0.00  0.00    +0.167 HD
ENDBRANCH   7  11
BRANCH   6  15
ATOM     15  C   UNL     1      -3.988   3.539  25.313  0.00  0.00    +0.068 C 
ATOM     18  C   UNL     1      -5.418   3.233  25.740  0.00  0.00    +0.027 C 
ATOM     19  C   UNL     1      -3.377   4.636  26.177  0.00  0.00    +0.027 C 
ENDBRANCH   6  15
TORSDOF 2
ENDMDL
MODEL 6
REMARK VINA RESULT:      -0.7      5.277      8.777
REMARK  Name = 45784022
REMARK  4 active torsions:
REMARK  status: ('A' for Active; 'I' for Inactive)
REMARK    1  A    between atoms: N_6  and  C_15
REMARK    2  A    between atoms: C_7  and  C_11
REMARK    3  A    between atoms: C_15  and  C_18
REMARK    4  A    between atoms: C_15  and  C_19
REMARK                            x       y       z     vdW  Elec       q    Type
REMARK                         _______ _______ _______ _____ _____    ______ ____
ROOT
ATOM      2  O   UNL     1      16.413  -2.127  25.047  0.00  0.00    -0.253 OA
ATOM      3  N   UNL     1      16.607  -4.418  25.228  0.00  0.00    -0.285 N 
ATOM      6  N   UNL     1      15.400  -3.463  23.464  0.00  0.00    -0.297 N 
ATOM      7  C   UNL     1      17.381  -5.820  26.986  0.00  0.00    +0.074 C 
ATOM      8  C   UNL     1      17.258  -6.642  25.694  0.00  0.00    +0.032 C 
ATOM      9  C   UNL     1      17.405  -4.385  26.449  0.00  0.00    +0.120 C 
ATOM     10  C   UNL     1      16.364  -5.792  24.798  0.00  0.00    +0.110 C 
ATOM     12  C   UNL     1      16.159  -3.253  24.610  0.00  0.00    +0.302 C 
ATOM     23  H   UNL     1      15.134  -4.406  23.207  0.00  0.00    +0.150 HD
ENDROOT
BRANCH   7  11
ATOM      1  F   UNL     1      12.291  -5.865  32.180  0.00  0.00    -0.205 F 
ATOM      4  N   UNL     1      15.806  -5.234  28.859  0.00  0.00    -0.341 N 
ATOM      5  N   UNL     1      15.658  -7.314  28.092  0.00  0.00    -0.232 NA
ATOM     11  C   UNL     1      16.275  -6.160  27.970  0.00  0.00    +0.113 A 
ATOM     13  C   UNL     1      14.821  -5.829  29.605  0.00  0.00    +0.069 A 
ATOM     14  C   UNL     1      14.747  -7.127  29.106  0.00  0.00    +0.089 A 
ATOM     16  C   UNL     1      14.013  -5.358  30.640  0.00  0.00    +0.066 A 
ATOM     17  C   UNL     1      13.818  -8.022  29.663  0.00  0.00    +0.032 A 
ATOM     20  C   UNL     1      13.093  -6.262  31.182  0.00  0.00    +0.125 A 
ATOM     21  C   UNL     1      12.996  -7.571  30.703  0.00  0.00    +0.040 A 
ATOM     22  H   UNL     1      16.128  -4.279  28.954  0.00  0.00    +0.167 HD
ENDBRANCH   7  11
BRANCH   6  15
ATOM     15  C   UNL     1      14.846  -2.375  22.692  0.00  0.00    +0.068 C 
ATOM     18  C   UNL     1      15.958  -1.566  22.035  0.00  0.00    +0.027 C 
ATOM     19  C   UNL     1      13.864  -2.907  21.655  0.00  0.00    +0.027 C 
ENDBRANCH   6  15
TORSDOF 2
ENDMDL
MODEL 7
REMARK VINA RESULT:      -0.0      3.983      7.561
REMARK  Name = 45784022
REMARK  4 active torsions:
REMARK  status: ('A' for Active; 'I' for Inactive)
REMARK    1  A    between atoms: N_6  and  C_15
REMARK    2  A    between atoms: C_7  and  C_11
REMARK    3  A    between atoms: C_15  and  C_18
REMARK    4  A    between atoms: C_15  and  C_19
REMARK                            x       y       z     vdW  Elec       q    Type
REMARK                         _______ _______ _______ _____ _____    ______ ____
ROOT
ATOM      2  O   UNL     1      17.119  -5.481  27.329  0.00  0.00    -0.253 OA
ATOM      3  N   UNL     1      17.173  -7.237  28.822  0.00  0.00    -0.285 N 
ATOM      6  N   UNL     1      17.351  -7.628  26.521  0.00  0.00    -0.297 N 
ATOM      7  C   UNL     1      16.668  -7.376  31.142  0.00  0.00    +0.074 C 
ATOM      8  C   UNL     1      17.399  -8.653  30.701  0.00  0.00    +0.032 C 
ATOM      9  C   UNL     1      17.016  -6.404  30.009  0.00  0.00    +0.120 C 
ATOM     10  C   UNL     1      17.270  -8.649  29.182  0.00  0.00    +0.110 C 
ATOM     12  C   UNL     1      17.209  -6.693  27.541  0.00  0.00    +0.302 C 
ATOM     23  H   UNL     1      17.317  -8.617  26.740  0.00  0.00    +0.150 HD
ENDROOT
BRANCH   7  11
ATOM      1  F   UNL     1       9.470  -6.972  32.095  0.00  0.00    -0.205 F 
ATOM      4  N   UNL     1      14.279  -6.618  31.370  0.00  0.00    -0.341 N 
ATOM      5  N   UNL     1      14.627  -8.797  31.630  0.00  0.00    -0.232 NA
ATOM     11  C   UNL     1      15.192  -7.636  31.387  0.00  0.00    +0.113 A 
ATOM     13  C   UNL     1      13.044  -7.158  31.620  0.00  0.00    +0.069 A 
ATOM     14  C   UNL     1      13.288  -8.520  31.778  0.00  0.00    +0.089 A 
ATOM     16  C   UNL     1      11.773  -6.591  31.718  0.00  0.00    +0.066 A 
ATOM     17  C   UNL     1      12.211  -9.381  32.051  0.00  0.00    +0.032 A 
ATOM     20  C   UNL     1      10.713  -7.462  31.989  0.00  0.00    +0.125 A 
ATOM     21  C   UNL     1      10.926  -8.833  32.154  0.00  0.00    +0.040 A 
ATOM     22  H   UNL     1      14.478  -5.640  31.205  0.00  0.00    +0.167 HD
ENDBRANCH   7  11
BRANCH   6  15
ATOM     15  C   UNL     1      17.405  -7.252  25.127  0.00  0.00    +0.068 C 
ATOM     18  C   UNL     1      16.382  -8.041  24.320  0.00  0.00    +0.027 C 
ATOM     19  C   UNL     1      17.189  -5.751  24.975  0.00  0.00    +0.027 C 
ENDBRANCH   6  15
TORSDOF 2
ENDMDL
