MODEL 1
REMARK VINA RESULT:       0.2      0.000      0.000
REMARK  Name = 26745059
REMARK  9 active torsions:
REMARK  status: ('A' for Active; 'I' for Inactive)
REMARK    1  A    between atoms: O_4  and  C_24
REMARK    2  A    between atoms: C_11  and  C_13
REMARK    3  A    between atoms: C_11  and  C_19
REMARK    4  A    between atoms: C_11  and  C_20
REMARK    5  A    between atoms: C_11  and  C_21
REMARK    6  A    between atoms: C_12  and  C_22
REMARK    7  A    between atoms: C_13  and  C_16
REMARK    8  A    between atoms: C_19  and  C_24
REMARK    9  A    between atoms: C_25  and  C_26
REMARK                            x       y       z     vdW  Elec       q    Type
REMARK                         _______ _______ _______ _____ _____    ______ ____
ROOT
ATOM      2  O   UNL     1      -2.138   2.853  25.841  0.00  0.00    -0.276 OA
ATOM      6  N   UNL     1      -2.602   0.924  24.618  0.00  0.00    -0.284 N 
ATOM      7  N   UNL     1      -4.424  -2.057  23.310  0.00  0.00    -0.347 N 
ATOM      8  N   UNL     1      -3.487  -3.116  25.040  0.00  0.00    -0.240 NA
ATOM     12  C   UNL     1      -1.526   0.131  25.307  0.00  0.00    +0.171 C 
ATOM     14  C   UNL     1      -2.092  -1.190  25.912  0.00  0.00    +0.089 C 
ATOM     15  C   UNL     1      -3.373   0.254  23.534  0.00  0.00    +0.163 C 
ATOM     16  C   UNL     1      -2.764   2.277  24.948  0.00  0.00    +0.217 C 
ATOM     17  C   UNL     1      -3.613  -1.149  23.924  0.00  0.00    +0.056 A 
ATOM     18  C   UNL     1      -3.050  -1.823  24.979  0.00  0.00    +0.066 A 
ATOM     23  C   UNL     1      -4.315  -3.227  24.019  0.00  0.00    +0.197 A 
ATOM     32  H   UNL     1      -4.994  -1.905  22.489  0.00  0.00    +0.167 HD
ENDROOT
BRANCH  12  22
ATOM      3  O   UNL     1      -0.533  -0.151  23.080  0.00  0.00    -0.336 OA
ATOM      9  N   UNL     1       0.971   0.003  24.732  0.00  0.00    -0.190 NA
ATOM     10  N   UNL     1       0.725  -0.253  22.472  0.00  0.00    -0.056 NA
ATOM     22  C   UNL     1      -0.298  -0.003  24.410  0.00  0.00    +0.249 A 
ATOM     25  C   UNL     1       1.560  -0.153  23.511  0.00  0.00    +0.202 A 
BRANCH  25  26
ATOM      1 CL   UNL     1       7.469  -0.364  22.907  0.00  0.00    -0.084 Cl
ATOM     26  C   UNL     1       2.985  -0.205  23.364  0.00  0.00    +0.023 A 
ATOM     27  C   UNL     1       3.693  -1.317  23.820  0.00  0.00    +0.013 A 
ATOM     28  C   UNL     1       3.664   0.858  22.766  0.00  0.00    +0.013 A 
ATOM     29  C   UNL     1       5.080  -1.366  23.678  0.00  0.00    +0.021 A 
ATOM     30  C   UNL     1       5.051   0.808  22.625  0.00  0.00    +0.021 A 
ATOM     31  C   UNL     1       5.759  -0.304  23.081  0.00  0.00    +0.041 A 
ENDBRANCH  25  26
ENDBRANCH  12  22
BRANCH  16  13
ATOM     13  C   UNL     1      -3.778   3.050  24.142  0.00  0.00    +0.103 C 
BRANCH  13  11
ATOM     11  C   UNL     1      -4.350   4.262  24.904  0.00  0.00    -0.017 C 
ATOM     20  C   UNL     1      -4.298   5.479  23.957  0.00  0.00    +0.012 C 
ATOM     21  C   UNL     1      -3.464   4.584  26.127  0.00  0.00    +0.012 C 
BRANCH  11  19
ATOM     19  C   UNL     1      -5.796   4.035  25.405  0.00  0.00    +0.127 C 
BRANCH  19  24
ATOM      5  O   UNL     1      -6.369   1.771  24.769  0.00  0.00    -0.251 OA
ATOM     24  C   UNL     1      -6.159   2.588  25.656  0.00  0.00    +0.305 C 
BRANCH  24   4
ATOM      4  O   UNL     1      -6.236   2.286  26.976  0.00  0.00    -0.481 OA
ATOM     33  H   UNL     1      -5.389   2.458  27.441  0.00  0.00    +0.295 HD
ENDBRANCH  24   4
ENDBRANCH  19  24
ENDBRANCH  11  19
ENDBRANCH  13  11
ENDBRANCH  16  13
TORSDOF 7
ENDMDL
MODEL 2
REMARK VINA RESULT:       0.3      2.123      4.876
REMARK  Name = 26745059
REMARK  9 active torsions:
REMARK  status: ('A' for Active; 'I' for Inactive)
REMARK    1  A    between atoms: O_4  and  C_24
REMARK    2  A    between atoms: C_11  and  C_13
REMARK    3  A    between atoms: C_11  and  C_19
REMARK    4  A    between atoms: C_11  and  C_20
REMARK    5  A    between atoms: C_11  and  C_21
REMARK    6  A    between atoms: C_12  and  C_22
REMARK    7  A    between atoms: C_13  and  C_16
REMARK    8  A    between atoms: C_19  and  C_24
REMARK    9  A    between atoms: C_25  and  C_26
REMARK                            x       y       z     vdW  Elec       q    Type
REMARK                         _______ _______ _______ _____ _____    ______ ____
ROOT
ATOM      2  O   UNL     1      -3.602  -0.923  22.260  0.00  0.00    -0.276 OA
ATOM      6  N   UNL     1      -3.473   0.763  23.863  0.00  0.00    -0.284 N 
ATOM      7  N   UNL     1      -4.520   3.389  26.298  0.00  0.00    -0.347 N 
ATOM      8  N   UNL     1      -4.415   4.756  24.534  0.00  0.00    -0.240 NA
ATOM     12  C   UNL     1      -2.793   1.718  22.922  0.00  0.00    +0.171 C 
ATOM     14  C   UNL     1      -3.552   3.078  22.844  0.00  0.00    +0.089 C 
ATOM     15  C   UNL     1      -3.693   1.209  25.267  0.00  0.00    +0.163 C 
ATOM     16  C   UNL     1      -3.774  -0.531  23.416  0.00  0.00    +0.217 C 
ATOM     17  C   UNL     1      -4.064   2.638  25.255  0.00  0.00    +0.056 A 
ATOM     18  C   UNL     1      -4.006   3.499  24.188  0.00  0.00    +0.066 A 
ATOM     23  C   UNL     1      -4.718   4.658  25.814  0.00  0.00    +0.197 A 
ATOM     32  H   UNL     1      -4.681   3.077  27.247  0.00  0.00    +0.167 HD
ENDROOT
BRANCH  12  22
ATOM      3  O   UNL     1      -0.869   2.871  23.919  0.00  0.00    -0.336 OA
ATOM      9  N   UNL     1      -0.344   0.955  22.886  0.00  0.00    -0.190 NA
ATOM     10  N   UNL     1       0.516   2.719  24.061  0.00  0.00    -0.056 NA
ATOM     22  C   UNL     1      -1.297   1.790  23.215  0.00  0.00    +0.249 A 
ATOM     25  C   UNL     1       0.750   1.566  23.426  0.00  0.00    +0.202 A 
BRANCH  25  26
ATOM      1 CL   UNL     1       6.188  -0.790  22.973  0.00  0.00    -0.084 Cl
ATOM     26  C   UNL     1       2.061   0.998  23.315  0.00  0.00    +0.023 A 
ATOM     27  C   UNL     1       2.245  -0.372  23.499  0.00  0.00    +0.013 A 
ATOM     28  C   UNL     1       3.155   1.815  23.026  0.00  0.00    +0.013 A 
ATOM     29  C   UNL     1       3.521  -0.926  23.393  0.00  0.00    +0.021 A 
ATOM     30  C   UNL     1       4.430   1.262  22.919  0.00  0.00    +0.021 A 
ATOM     31  C   UNL     1       4.614  -0.108  23.103  0.00  0.00    +0.041 A 
ENDBRANCH  25  26
ENDBRANCH  12  22
BRANCH  16  13
ATOM     13  C   UNL     1      -4.347  -1.481  24.439  0.00  0.00    +0.103 C 
BRANCH  13  11
ATOM     11  C   UNL     1      -3.264  -2.306  25.162  0.00  0.00    -0.017 C 
ATOM     20  C   UNL     1      -3.650  -3.794  25.041  0.00  0.00    +0.012 C 
ATOM     21  C   UNL     1      -3.243  -1.950  26.664  0.00  0.00    +0.012 C 
BRANCH  11  19
ATOM     19  C   UNL     1      -1.844  -2.072  24.593  0.00  0.00    +0.127 C 
BRANCH  19  24
ATOM      5  O   UNL     1      -1.096  -0.244  25.991  0.00  0.00    -0.251 OA
ATOM     24  C   UNL     1      -0.895  -1.360  25.531  0.00  0.00    +0.305 C 
BRANCH  24   4
ATOM      4  O   UNL     1       0.215  -2.088  25.809  0.00  0.00    -0.481 OA
ATOM     33  H   UNL     1       0.553  -1.909  26.713  0.00  0.00    +0.295 HD
ENDBRANCH  24   4
ENDBRANCH  19  24
ENDBRANCH  11  19
ENDBRANCH  13  11
ENDBRANCH  16  13
TORSDOF 7
ENDMDL
MODEL 3
REMARK VINA RESULT:       0.8      2.037      3.842
REMARK  Name = 26745059
REMARK  9 active torsions:
REMARK  status: ('A' for Active; 'I' for Inactive)
REMARK    1  A    between atoms: O_4  and  C_24
REMARK    2  A    between atoms: C_11  and  C_13
REMARK    3  A    between atoms: C_11  and  C_19
REMARK    4  A    between atoms: C_11  and  C_20
REMARK    5  A    between atoms: C_11  and  C_21
REMARK    6  A    between atoms: C_12  and  C_22
REMARK    7  A    between atoms: C_13  and  C_16
REMARK    8  A    between atoms: C_19  and  C_24
REMARK    9  A    between atoms: C_25  and  C_26
REMARK                            x       y       z     vdW  Elec       q    Type
REMARK                         _______ _______ _______ _____ _____    ______ ____
ROOT
ATOM      2  O   UNL     1      -4.205  -0.191  23.505  0.00  0.00    -0.276 OA
ATOM      6  N   UNL     1      -2.746   1.377  24.425  0.00  0.00    -0.284 N 
ATOM      7  N   UNL     1      -1.469   4.577  25.856  0.00  0.00    -0.347 N 
ATOM      8  N   UNL     1      -1.041   5.104  23.727  0.00  0.00    -0.240 NA
ATOM     12  C   UNL     1      -1.902   1.440  23.182  0.00  0.00    +0.171 C 
ATOM     14  C   UNL     1      -1.740   2.907  22.678  0.00  0.00    +0.089 C 
ATOM     15  C   UNL     1      -2.318   2.187  25.599  0.00  0.00    +0.163 C 
ATOM     16  C   UNL     1      -3.831   0.490  24.464  0.00  0.00    +0.217 C 
ATOM     17  C   UNL     1      -1.797   3.480  25.115  0.00  0.00    +0.056 A 
ATOM     18  C   UNL     1      -1.523   3.828  23.815  0.00  0.00    +0.066 A 
ATOM     23  C   UNL     1      -1.019   5.529  24.975  0.00  0.00    +0.197 A 
ATOM     32  H   UNL     1      -1.538   4.674  26.860  0.00  0.00    +0.167 HD
ENDROOT
BRANCH  12  22
ATOM      3  O   UNL     1      -0.756  -0.638  23.812  0.00  0.00    -0.336 OA
ATOM      9  N   UNL     1       0.625   0.996  23.151  0.00  0.00    -0.190 NA
ATOM     10  N   UNL     1       0.540  -1.164  23.899  0.00  0.00    -0.056 NA
ATOM     22  C   UNL     1      -0.616   0.638  23.364  0.00  0.00    +0.249 A 
ATOM     25  C   UNL     1       1.297  -0.141  23.493  0.00  0.00    +0.202 A 
BRANCH  25  26
ATOM      1 CL   UNL     1       7.224  -0.476  23.179  0.00  0.00    -0.084 Cl
ATOM     26  C   UNL     1       2.727  -0.222  23.416  0.00  0.00    +0.023 A 
ATOM     27  C   UNL     1       3.384  -1.371  23.856  0.00  0.00    +0.013 A 
ATOM     28  C   UNL     1       3.461   0.848  22.903  0.00  0.00    +0.013 A 
ATOM     29  C   UNL     1       4.775  -1.450  23.782  0.00  0.00    +0.021 A 
ATOM     30  C   UNL     1       4.851   0.769  22.830  0.00  0.00    +0.021 A 
ATOM     31  C   UNL     1       5.509  -0.380  23.269  0.00  0.00    +0.041 A 
ENDBRANCH  25  26
ENDBRANCH  12  22
BRANCH  16  13
ATOM     13  C   UNL     1      -4.569   0.384  25.775  0.00  0.00    +0.103 C 
BRANCH  13  11
ATOM     11  C   UNL     1      -5.625   1.492  25.958  0.00  0.00    -0.017 C 
ATOM     20  C   UNL     1      -6.580   1.048  27.086  0.00  0.00    +0.012 C 
ATOM     21  C   UNL     1      -6.463   1.643  24.670  0.00  0.00    +0.012 C 
BRANCH  11  19
ATOM     19  C   UNL     1      -5.005   2.870  26.293  0.00  0.00    +0.127 C 
BRANCH  19  24
ATOM      5  O   UNL     1      -4.843   4.263  24.321  0.00  0.00    -0.251 OA
ATOM     24  C   UNL     1      -5.418   3.991  25.366  0.00  0.00    +0.305 C 
BRANCH  24   4
ATOM      4  O   UNL     1      -6.497   4.678  25.818  0.00  0.00    -0.481 OA
ATOM     33  H   UNL     1      -7.202   4.079  26.143  0.00  0.00    +0.295 HD
ENDBRANCH  24   4
ENDBRANCH  19  24
ENDBRANCH  11  19
ENDBRANCH  13  11
ENDBRANCH  16  13
TORSDOF 7
ENDMDL
MODEL 4
REMARK VINA RESULT:       1.8      3.794      6.125
REMARK  Name = 26745059
REMARK  9 active torsions:
REMARK  status: ('A' for Active; 'I' for Inactive)
REMARK    1  A    between atoms: O_4  and  C_24
REMARK    2  A    between atoms: C_11  and  C_13
REMARK    3  A    between atoms: C_11  and  C_19
REMARK    4  A    between atoms: C_11  and  C_20
REMARK    5  A    between atoms: C_11  and  C_21
REMARK    6  A    between atoms: C_12  and  C_22
REMARK    7  A    between atoms: C_13  and  C_16
REMARK    8  A    between atoms: C_19  and  C_24
REMARK    9  A    between atoms: C_25  and  C_26
REMARK                            x       y       z     vdW  Elec       q    Type
REMARK                         _______ _______ _______ _____ _____    ______ ____
ROOT
ATOM      2  O   UNL     1      -2.723   0.279  22.339  0.00  0.00    -0.276 OA
ATOM      6  N   UNL     1      -3.606   1.430  24.163  0.00  0.00    -0.284 N 
ATOM      7  N   UNL     1      -6.082   3.043  26.441  0.00  0.00    -0.347 N 
ATOM      8  N   UNL     1      -5.721   4.859  25.190  0.00  0.00    -0.240 NA
ATOM     12  C   UNL     1      -2.910   2.711  23.794  0.00  0.00    +0.171 C 
ATOM     14  C   UNL     1      -3.918   3.897  23.693  0.00  0.00    +0.089 C 
ATOM     15  C   UNL     1      -4.412   1.413  25.415  0.00  0.00    +0.163 C 
ATOM     16  C   UNL     1      -3.386   0.289  23.380  0.00  0.00    +0.217 C 
ATOM     17  C   UNL     1      -5.111   2.706  25.544  0.00  0.00    +0.056 A 
ATOM     18  C   UNL     1      -4.907   3.836  24.792  0.00  0.00    +0.066 A 
ATOM     23  C   UNL     1      -6.418   4.349  26.187  0.00  0.00    +0.197 A 
ATOM     32  H   UNL     1      -6.480   2.450  27.157  0.00  0.00    +0.167 HD
ENDROOT
BRANCH  12  22
ATOM      3  O   UNL     1      -0.718   3.747  24.179  0.00  0.00    -0.336 OA
ATOM      9  N   UNL     1      -1.418   2.449  25.865  0.00  0.00    -0.190 NA
ATOM     10  N   UNL     1       0.289   3.795  25.153  0.00  0.00    -0.056 NA
ATOM     22  C   UNL     1      -1.685   2.933  24.678  0.00  0.00    +0.249 A 
ATOM     25  C   UNL     1      -0.198   3.006  26.114  0.00  0.00    +0.202 A 
BRANCH  25  26
ATOM      1 CL   UNL     1       2.732   1.955  31.179  0.00  0.00    -0.084 Cl
ATOM     26  C   UNL     1       0.509   2.754  27.337  0.00  0.00    +0.023 A 
ATOM     27  C   UNL     1       1.893   2.915  27.388  0.00  0.00    +0.013 A 
ATOM     28  C   UNL     1      -0.188   2.345  28.475  0.00  0.00    +0.013 A 
ATOM     29  C   UNL     1       2.581   2.669  28.576  0.00  0.00    +0.021 A 
ATOM     30  C   UNL     1       0.500   2.099  29.663  0.00  0.00    +0.021 A 
ATOM     31  C   UNL     1       1.885   2.260  29.714  0.00  0.00    +0.041 A 
ENDBRANCH  25  26
ENDBRANCH  12  22
BRANCH  16  13
ATOM     13  C   UNL     1      -4.015  -0.993  23.865  0.00  0.00    +0.103 C 
BRANCH  13  11
ATOM     11  C   UNL     1      -3.029  -1.887  24.642  0.00  0.00    -0.017 C 
ATOM     20  C   UNL     1      -3.570  -3.331  24.599  0.00  0.00    +0.012 C 
ATOM     21  C   UNL     1      -2.975  -1.453  26.123  0.00  0.00    +0.012 C 
BRANCH  11  19
ATOM     19  C   UNL     1      -1.590  -1.837  24.075  0.00  0.00    +0.127 C 
BRANCH  19  24
ATOM      5  O   UNL     1       0.015  -2.263  25.834  0.00  0.00    -0.251 OA
ATOM     24  C   UNL     1      -0.525  -1.464  25.082  0.00  0.00    +0.305 C 
BRANCH  24   4
ATOM      4  O   UNL     1      -0.231  -0.140  25.072  0.00  0.00    -0.481 OA
ATOM     33  H   UNL     1      -0.602   0.323  25.853  0.00  0.00    +0.295 HD
ENDBRANCH  24   4
ENDBRANCH  19  24
ENDBRANCH  11  19
ENDBRANCH  13  11
ENDBRANCH  16  13
TORSDOF 7
ENDMDL
MODEL 5
REMARK VINA RESULT:       2.0      1.300      2.089
REMARK  Name = 26745059
REMARK  9 active torsions:
REMARK  status: ('A' for Active; 'I' for Inactive)
REMARK    1  A    between atoms: O_4  and  C_24
REMARK    2  A    between atoms: C_11  and  C_13
REMARK    3  A    between atoms: C_11  and  C_19
REMARK    4  A    between atoms: C_11  and  C_20
REMARK    5  A    between atoms: C_11  and  C_21
REMARK    6  A    between atoms: C_12  and  C_22
REMARK    7  A    between atoms: C_13  and  C_16
REMARK    8  A    between atoms: C_19  and  C_24
REMARK    9  A    between atoms: C_25  and  C_26
REMARK                            x       y       z     vdW  Elec       q    Type
REMARK                         _______ _______ _______ _____ _____    ______ ____
ROOT
ATOM      2  O   UNL     1      -2.553   2.267  26.424  0.00  0.00    -0.276 OA
ATOM      6  N   UNL     1      -2.940   0.533  24.916  0.00  0.00    -0.284 N 
ATOM      7  N   UNL     1      -4.628  -2.299  23.170  0.00  0.00    -0.347 N 
ATOM      8  N   UNL     1      -3.606  -3.565  24.701  0.00  0.00    -0.240 NA
ATOM     12  C   UNL     1      -1.811  -0.300  25.459  0.00  0.00    +0.171 C 
ATOM     14  C   UNL     1      -2.297  -1.729  25.853  0.00  0.00    +0.089 C 
ATOM     15  C   UNL     1      -3.695   0.002  23.747  0.00  0.00    +0.163 C 
ATOM     16  C   UNL     1      -3.165   1.805  25.458  0.00  0.00    +0.217 C 
ATOM     17  C   UNL     1      -3.855  -1.457  23.912  0.00  0.00    +0.056 A 
ATOM     18  C   UNL     1      -3.238  -2.257  24.840  0.00  0.00    +0.066 A 
ATOM     23  C   UNL     1      -4.446  -3.558  23.683  0.00  0.00    +0.197 A 
ATOM     32  H   UNL     1      -5.222  -2.050  22.389  0.00  0.00    +0.167 HD
ENDROOT
BRANCH  12  22
ATOM      3  O   UNL     1      -0.846  -0.039  23.217  0.00  0.00    -0.336 OA
ATOM      9  N   UNL     1       0.677  -0.311  24.835  0.00  0.00    -0.190 NA
ATOM     10  N   UNL     1       0.404  -0.003  22.585  0.00  0.00    -0.056 NA
ATOM     22  C   UNL     1      -0.595  -0.224  24.540  0.00  0.00    +0.249 A 
ATOM     25  C   UNL     1       1.251  -0.171  23.605  0.00  0.00    +0.202 A 
BRANCH  25  26
ATOM      1 CL   UNL     1       7.150  -0.291  22.885  0.00  0.00    -0.084 Cl
ATOM     26  C   UNL     1       2.673  -0.200  23.430  0.00  0.00    +0.023 A 
ATOM     27  C   UNL     1       3.402  -1.321  23.829  0.00  0.00    +0.013 A 
ATOM     28  C   UNL     1       3.330   0.892  22.862  0.00  0.00    +0.013 A 
ATOM     29  C   UNL     1       4.786  -1.349  23.661  0.00  0.00    +0.021 A 
ATOM     30  C   UNL     1       4.714   0.863  22.693  0.00  0.00    +0.021 A 
ATOM     31  C   UNL     1       5.443  -0.257  23.093  0.00  0.00    +0.041 A 
ENDBRANCH  25  26
ENDBRANCH  12  22
BRANCH  16  13
ATOM     13  C   UNL     1      -4.233   2.640  24.795  0.00  0.00    +0.103 C 
BRANCH  13  11
ATOM     11  C   UNL     1      -3.654   3.715  23.854  0.00  0.00    -0.017 C 
ATOM     20  C   UNL     1      -4.346   5.053  24.187  0.00  0.00    +0.012 C 
ATOM     21  C   UNL     1      -3.988   3.370  22.386  0.00  0.00    +0.012 C 
BRANCH  11  19
ATOM     19  C   UNL     1      -2.117   3.862  23.975  0.00  0.00    +0.127 C 
BRANCH  19  24
ATOM      5  O   UNL     1      -0.701   5.650  24.781  0.00  0.00    -0.251 OA
ATOM     24  C   UNL     1      -1.657   4.909  24.964  0.00  0.00    +0.305 C 
BRANCH  24   4
ATOM      4  O   UNL     1      -2.414   4.939  26.089  0.00  0.00    -0.481 OA
ATOM     33  H   UNL     1      -2.700   5.850  26.313  0.00  0.00    +0.295 HD
ENDBRANCH  24   4
ENDBRANCH  19  24
ENDBRANCH  11  19
ENDBRANCH  13  11
ENDBRANCH  16  13
TORSDOF 7
ENDMDL
MODEL 6
REMARK VINA RESULT:       2.5      2.417      4.825
REMARK  Name = 26745059
REMARK  9 active torsions:
REMARK  status: ('A' for Active; 'I' for Inactive)
REMARK    1  A    between atoms: O_4  and  C_24
REMARK    2  A    between atoms: C_11  and  C_13
REMARK    3  A    between atoms: C_11  and  C_19
REMARK    4  A    between atoms: C_11  and  C_20
REMARK    5  A    between atoms: C_11  and  C_21
REMARK    6  A    between atoms: C_12  and  C_22
REMARK    7  A    between atoms: C_13  and  C_16
REMARK    8  A    between atoms: C_19  and  C_24
REMARK    9  A    between atoms: C_25  and  C_26
REMARK                            x       y       z     vdW  Elec       q    Type
REMARK                         _______ _______ _______ _____ _____    ______ ____
ROOT
ATOM      2  O   UNL     1      -3.967  -0.545  23.211  0.00  0.00    -0.276 OA
ATOM      6  N   UNL     1      -2.513   0.983  24.202  0.00  0.00    -0.284 N 
ATOM      7  N   UNL     1      -1.289   3.974  26.065  0.00  0.00    -0.347 N 
ATOM      8  N   UNL     1      -1.308   4.959  24.060  0.00  0.00    -0.240 NA
ATOM     12  C   UNL     1      -1.919   1.395  22.883  0.00  0.00    +0.171 C 
ATOM     14  C   UNL     1      -1.985   2.941  22.688  0.00  0.00    +0.089 C 
ATOM     15  C   UNL     1      -1.951   1.594  25.439  0.00  0.00    +0.163 C 
ATOM     16  C   UNL     1      -3.487  -0.024  24.221  0.00  0.00    +0.217 C 
ATOM     17  C   UNL     1      -1.647   3.012  25.168  0.00  0.00    +0.056 A 
ATOM     18  C   UNL     1      -1.648   3.641  23.947  0.00  0.00    +0.066 A 
ATOM     23  C   UNL     1      -1.096   5.130  25.351  0.00  0.00    +0.197 A 
ATOM     32  H   UNL     1      -1.182   3.862  27.065  0.00  0.00    +0.167 HD
ENDROOT
BRANCH  12  22
ATOM      3  O   UNL     1      -0.491  -0.254  21.756  0.00  0.00    -0.336 OA
ATOM      9  N   UNL     1       0.586   0.998  23.269  0.00  0.00    -0.190 NA
ATOM     10  N   UNL     1       0.840  -0.691  21.747  0.00  0.00    -0.056 NA
ATOM     22  C   UNL     1      -0.554   0.742  22.679  0.00  0.00    +0.249 A 
ATOM     25  C   UNL     1       1.411   0.094  22.665  0.00  0.00    +0.202 A 
BRANCH  25  26
ATOM      1 CL   UNL     1       7.177  -0.282  24.062  0.00  0.00    -0.084 Cl
ATOM     26  C   UNL     1       2.802   0.003  23.000  0.00  0.00    +0.023 A 
ATOM     27  C   UNL     1       3.319  -1.186  23.515  0.00  0.00    +0.013 A 
ATOM     28  C   UNL     1       3.639   1.104  22.814  0.00  0.00    +0.013 A 
ATOM     29  C   UNL     1       4.672  -1.275  23.843  0.00  0.00    +0.021 A 
ATOM     30  C   UNL     1       4.992   1.015  23.142  0.00  0.00    +0.021 A 
ATOM     31  C   UNL     1       5.509  -0.174  23.657  0.00  0.00    +0.041 A 
ENDBRANCH  25  26
ENDBRANCH  12  22
BRANCH  16  13
ATOM     13  C   UNL     1      -3.960  -0.478  25.580  0.00  0.00    +0.103 C 
BRANCH  13  11
ATOM     11  C   UNL     1      -3.096  -1.612  26.167  0.00  0.00    -0.017 C 
ATOM     20  C   UNL     1      -3.363  -2.884  25.335  0.00  0.00    +0.012 C 
ATOM     21  C   UNL     1      -3.524  -1.906  27.621  0.00  0.00    +0.012 C 
BRANCH  11  19
ATOM     19  C   UNL     1      -1.584  -1.281  26.169  0.00  0.00    +0.127 C 
BRANCH  19  24
ATOM      5  O   UNL     1      -1.298  -2.553  24.130  0.00  0.00    -0.251 OA
ATOM     24  C   UNL     1      -0.795  -1.917  25.047  0.00  0.00    +0.305 C 
BRANCH  24   4
ATOM      4  O   UNL     1       0.542  -1.715  25.162  0.00  0.00    -0.481 OA
ATOM     33  H   UNL     1       0.848  -0.966  24.606  0.00  0.00    +0.295 HD
ENDBRANCH  24   4
ENDBRANCH  19  24
ENDBRANCH  11  19
ENDBRANCH  13  11
ENDBRANCH  16  13
TORSDOF 7
ENDMDL
