MODEL 1
REMARK VINA RESULT:      -5.6      0.000      0.000
REMARK  Name = 45361649
REMARK  10 active torsions:
REMARK  status: ('A' for Active; 'I' for Inactive)
REMARK    1  A    between atoms: O_1  and  C_10
REMARK    2  A    between atoms: N_4  and  C_14
REMARK    3  A    between atoms: N_5  and  C_22
REMARK    4  A    between atoms: N_6  and  C_26
REMARK    5  A    between atoms: C_7  and  C_17
REMARK    6  A    between atoms: C_9  and  C_19
REMARK    7  A    between atoms: C_12  and  C_18
REMARK    8  A    between atoms: C_18  and  C_20
REMARK    9  A    between atoms: C_18  and  C_21
REMARK   10  A    between atoms: C_26  and  C_27
REMARK                            x       y       z     vdW  Elec       q    Type
REMARK                         _______ _______ _______ _____ _____    ______ ____
ROOT
ATOM      7  C   UNL     1      -2.039  -0.695  24.956  0.00  0.00    -0.027 C 
ATOM      8  C   UNL     1      -2.173   0.572  24.047  0.00  0.00    +0.028 C 
ATOM      9  C   UNL     1      -0.779   1.270  23.852  0.00  0.00    +0.012 C 
ATOM     10  C   UNL     1      -3.322   1.500  24.538  0.00  0.00    +0.122 C 
ATOM     11  C   UNL     1      -3.404  -1.420  25.035  0.00  0.00    +0.007 C 
ATOM     12  C   UNL     1      -4.660   0.745  24.715  0.00  0.00    +0.029 C 
ATOM     13  C   UNL     1      -1.024  -1.669  24.316  0.00  0.00    +0.009 C 
ATOM     14  C   UNL     1       0.254   0.260  23.279  0.00  0.00    +0.078 C 
ATOM     15  C   UNL     1      -4.523  -0.526  25.553  0.00  0.00    +0.007 C 
ATOM     16  C   UNL     1       0.341  -1.040  24.079  0.00  0.00    +0.023 C 
ATOM     17  C   UNL     1      -1.577  -0.348  26.394  0.00  0.00    +0.011 C 
ATOM     19  C   UNL     1      -0.833   2.510  22.944  0.00  0.00    +0.010 C 
ENDROOT
BRANCH  14   4
ATOM      3  O   UNL     1       2.755  -1.159  23.041  0.00  0.00    -0.253 OA
ATOM      4  N   UNL     1       1.579   0.836  23.195  0.00  0.00    -0.296 N 
ATOM      6  N   UNL     1       3.868   0.877  23.021  0.00  0.00    -0.300 N 
ATOM     25  C   UNL     1       2.734   0.071  23.083  0.00  0.00    +0.300 C 
ATOM     28  H   UNL     1       1.676   1.841  23.303  0.00  0.00    +0.151 HD
ATOM     31  H   UNL     1       3.751   1.886  23.049  0.00  0.00    +0.150 HD
BRANCH   6  26
ATOM     26  C   UNL     1       5.204   0.343  22.901  0.00  0.00    +0.102 C 
ATOM     27  C   UNL     1       5.713  -0.180  24.228  0.00  0.00    +0.024 C 
ENDBRANCH   6  26
ENDBRANCH  14   4
BRANCH  10   1
ATOM      1  O   UNL     1      -3.555   2.524  23.569  0.00  0.00    -0.391 OA
ATOM     29  H   UNL     1      -3.010   3.293  23.806  0.00  0.00    +0.210 HD
ENDBRANCH  10   1
BRANCH  12  18
ATOM     18  C   UNL     1      -5.744   1.645  25.321  0.00  0.00    +0.077 C 
ATOM     21  C   UNL     1      -6.913   1.783  24.352  0.00  0.00    +0.017 C 
BRANCH  18  20
ATOM      2  O   UNL     1      -5.847   4.047  25.642  0.00  0.00    -0.276 OA
ATOM      5  N   UNL     1      -3.834   2.960  26.014  0.00  0.00    -0.312 N 
ATOM     20  C   UNL     1      -5.178   3.017  25.671  0.00  0.00    +0.216 C 
ATOM     30  H   UNL     1      -3.348   2.069  26.011  0.00  0.00    +0.149 HD
BRANCH   5  22
ATOM     22  C   UNL     1      -3.081   4.128  26.377  0.00  0.00    +0.073 C 
ATOM     23  C   UNL     1      -2.453   5.002  25.331  0.00  0.00    +0.024 C 
ATOM     24  C   UNL     1      -1.589   4.166  26.229  0.00  0.00    +0.024 C 
ENDBRANCH   5  22
ENDBRANCH  18  20
ENDBRANCH  12  18
TORSDOF 6
ENDMDL
MODEL 2
REMARK VINA RESULT:      -3.4     15.151     17.739
REMARK  Name = 45361649
REMARK  10 active torsions:
REMARK  status: ('A' for Active; 'I' for Inactive)
REMARK    1  A    between atoms: O_1  and  C_10
REMARK    2  A    between atoms: N_4  and  C_14
REMARK    3  A    between atoms: N_5  and  C_22
REMARK    4  A    between atoms: N_6  and  C_26
REMARK    5  A    between atoms: C_7  and  C_17
REMARK    6  A    between atoms: C_9  and  C_19
REMARK    7  A    between atoms: C_12  and  C_18
REMARK    8  A    between atoms: C_18  and  C_20
REMARK    9  A    between atoms: C_18  and  C_21
REMARK   10  A    between atoms: C_26  and  C_27
REMARK                            x       y       z     vdW  Elec       q    Type
REMARK                         _______ _______ _______ _____ _____    ______ ____
ROOT
ATOM      7  C   UNL     1      -5.607  -9.796  10.871  0.00  0.00    -0.027 C 
ATOM      8  C   UNL     1      -5.362 -10.263  12.344  0.00  0.00    +0.028 C 
ATOM      9  C   UNL     1      -6.395  -9.594  13.321  0.00  0.00    +0.012 C 
ATOM     10  C   UNL     1      -3.866 -10.107  12.744  0.00  0.00    +0.122 C 
ATOM     11  C   UNL     1      -4.650 -10.557   9.923  0.00  0.00    +0.007 C 
ATOM     12  C   UNL     1      -2.908 -10.781  11.735  0.00  0.00    +0.029 C 
ATOM     13  C   UNL     1      -7.055 -10.152  10.464  0.00  0.00    +0.009 C 
ATOM     14  C   UNL     1      -7.847  -9.896  12.859  0.00  0.00    +0.078 C 
ATOM     15  C   UNL     1      -3.182 -10.374  10.287  0.00  0.00    +0.007 C 
ATOM     16  C   UNL     1      -8.102  -9.553  11.392  0.00  0.00    +0.023 C 
ATOM     17  C   UNL     1      -5.384  -8.274  10.685  0.00  0.00    +0.011 C 
ATOM     19  C   UNL     1      -6.228 -10.032  14.787  0.00  0.00    +0.010 C 
ENDROOT
BRANCH  14   4
ATOM      3  O   UNL     1      -8.748 -10.622  15.502  0.00  0.00    -0.253 OA
ATOM      4  N   UNL     1      -8.824  -9.200  13.669  0.00  0.00    -0.296 N 
ATOM      6  N   UNL     1     -10.152  -8.774  15.493  0.00  0.00    -0.300 N 
ATOM     25  C   UNL     1      -9.199  -9.625  14.938  0.00  0.00    +0.300 C 
ATOM     28  H   UNL     1      -9.315  -8.410  13.261  0.00  0.00    +0.151 HD
ATOM     31  H   UNL     1     -10.456  -7.966  14.957  0.00  0.00    +0.150 HD
BRANCH   6  26
ATOM     26  C   UNL     1     -10.717  -8.980  16.806  0.00  0.00    +0.102 C 
ATOM     27  C   UNL     1      -9.871  -8.333  17.881  0.00  0.00    +0.024 C 
ENDBRANCH   6  26
ENDBRANCH  14   4
BRANCH  10   1
ATOM      1  O   UNL     1      -3.641 -10.738  14.005  0.00  0.00    -0.391 OA
ATOM     29  H   UNL     1      -2.686 -10.896  14.098  0.00  0.00    +0.210 HD
ENDBRANCH  10   1
BRANCH  12  18
ATOM     18  C   UNL     1      -1.438 -10.506  12.075  0.00  0.00    +0.077 C 
ATOM     21  C   UNL     1      -1.255 -10.427  13.587  0.00  0.00    +0.017 C 
BRANCH  18  20
ATOM      2  O   UNL     1      -1.449  -8.770  10.379  0.00  0.00    -0.276 OA
ATOM      5  N   UNL     1       0.083  -8.623  12.111  0.00  0.00    -0.312 N 
ATOM     20  C   UNL     1      -0.960  -9.217  11.414  0.00  0.00    +0.216 C 
ATOM     30  H   UNL     1       0.437  -9.057  12.959  0.00  0.00    +0.149 HD
BRANCH   5  22
ATOM     22  C   UNL     1       0.704  -7.403  11.679  0.00  0.00    +0.073 C 
ATOM     23  C   UNL     1       2.088  -7.035  12.128  0.00  0.00    +0.024 C 
ATOM     24  C   UNL     1       0.906  -6.257  12.626  0.00  0.00    +0.024 C 
ENDBRANCH   5  22
ENDBRANCH  18  20
ENDBRANCH  12  18
TORSDOF 6
ENDMDL
