MODEL 1
REMARK VINA RESULT:       1.7      0.000      0.000
REMARK  Name = 11886269
REMARK  8 active torsions:
REMARK  status: ('A' for Active; 'I' for Inactive)
REMARK    1  A    between atoms: S_1  and  N_7
REMARK    2  A    between atoms: S_1  and  C_22
REMARK    3  A    between atoms: O_4  and  C_21
REMARK    4  A    between atoms: O_4  and  C_25
REMARK    5  A    between atoms: N_7  and  C_17
REMARK    6  A    between atoms: N_8  and  C_18
REMARK    7  A    between atoms: N_12  and  C_34
REMARK    8  A    between atoms: C_28  and  C_31
REMARK                            x       y       z     vdW  Elec       q    Type
REMARK                         _______ _______ _______ _____ _____    ______ ____
ROOT
ATOM      2  O   UNL     1      -2.114  -1.041  26.115  0.00  0.00    -0.370 OA
ATOM      3  O   UNL     1      -3.408  -1.176  23.277  0.00  0.00    -0.370 OA
ATOM     15  C   UNL     1      -2.233  -0.533  23.797  0.00  0.00    +0.170 C 
ATOM     16  C   UNL     1      -2.564  -0.033  25.189  0.00  0.00    +0.175 C 
ATOM     17  C   UNL     1      -1.133  -1.549  24.013  0.00  0.00    +0.133 C 
ATOM     18  C   UNL     1      -4.078   0.049  25.217  0.00  0.00    +0.171 C 
ATOM     19  C   UNL     1      -1.488  -2.105  25.383  0.00  0.00    +0.183 C 
ATOM     20  C   UNL     1      -4.495  -1.009  24.200  0.00  0.00    +0.190 C 
ENDROOT
BRANCH  18   8
ATOM      8  N   UNL     1      -4.573   1.401  24.947  0.00  0.00    -0.187 N 
ATOM      9  N   UNL     1      -5.862   1.708  25.116  0.00  0.00    -0.041 NA
ATOM     10  N   UNL     1      -4.724   3.489  24.408  0.00  0.00    -0.071 NA
ATOM     11  N   UNL     1      -5.950   2.990  24.784  0.00  0.00    -0.020 NA
ATOM     21  C   UNL     1      -3.884   2.485  24.518  0.00  0.00    +0.342 A 
BRANCH  21   4
ATOM      4  O   UNL     1      -2.591   2.507  24.257  0.00  0.00    -0.423 OA
BRANCH   4  25
ATOM     25  C   UNL     1      -1.628   2.549  25.256  0.00  0.00    +0.132 A 
ATOM     29  C   UNL     1      -1.995   2.955  26.525  0.00  0.00    +0.048 A 
ATOM     30  C   UNL     1      -0.330   2.183  24.953  0.00  0.00    +0.048 A 
ATOM     32  C   UNL     1      -1.029   2.996  27.529  0.00  0.00    +0.031 A 
ATOM     33  C   UNL     1       0.637   2.224  25.958  0.00  0.00    +0.031 A 
ATOM     34  C   UNL     1       0.287   2.631  27.246  0.00  0.00    +0.067 A 
BRANCH  34  12
ATOM     12  N   UNL     1       1.246   2.673  28.241  0.00  0.00    -0.220 N 
ATOM     13  N   UNL     1       2.465   3.205  28.038  0.00  0.00    -0.154 NA
ATOM     14  N   UNL     1       2.247   2.424  30.176  0.00  0.00    -0.222 NA
ATOM     35  C   UNL     1       1.129   2.211  29.520  0.00  0.00    +0.225 A 
ATOM     36  C   UNL     1       3.028   3.030  29.235  0.00  0.00    +0.245 A 
ENDBRANCH  34  12
ENDBRANCH   4  25
ENDBRANCH  21   4
ENDBRANCH  18   8
BRANCH  17   7
ATOM      7  N   UNL     1       0.170  -0.889  24.072  0.00  0.00    -0.182 NA
ATOM     37  H   UNL     1       0.495  -0.585  24.998  0.00  0.00    +0.148 HD
BRANCH   7   1
ATOM      1  S   UNL     1       0.789  -0.113  22.693  0.00  0.00    +0.059 S 
ATOM      5  O   UNL     1       0.355   1.271  22.684  0.00  0.00    -0.153 OA
ATOM      6  O   UNL     1       0.557  -0.958  21.537  0.00  0.00    -0.153 OA
BRANCH   1  22
ATOM     22  C   UNL     1       2.527  -0.138  23.009  0.00  0.00    +0.105 A 
ATOM     23  C   UNL     1       3.284   0.984  22.721  0.00  0.00    +0.029 A 
ATOM     24  C   UNL     1       3.100  -1.281  23.540  0.00  0.00    +0.029 A 
ATOM     26  C   UNL     1       4.656   0.963  22.972  0.00  0.00    +0.005 A 
ATOM     27  C   UNL     1       4.472  -1.302  23.791  0.00  0.00    +0.005 A 
ATOM     28  C   UNL     1       5.250  -0.179  23.507  0.00  0.00    -0.050 A 
ATOM     31  C   UNL     1       6.717  -0.201  23.774  0.00  0.00    +0.044 C 
ENDBRANCH   1  22
ENDBRANCH   7   1
ENDBRANCH  17   7
TORSDOF 7
ENDMDL
MODEL 2
REMARK VINA RESULT:       3.7      2.983      7.071
REMARK  Name = 11886269
REMARK  8 active torsions:
REMARK  status: ('A' for Active; 'I' for Inactive)
REMARK    1  A    between atoms: S_1  and  N_7
REMARK    2  A    between atoms: S_1  and  C_22
REMARK    3  A    between atoms: O_4  and  C_21
REMARK    4  A    between atoms: O_4  and  C_25
REMARK    5  A    between atoms: N_7  and  C_17
REMARK    6  A    between atoms: N_8  and  C_18
REMARK    7  A    between atoms: N_12  and  C_34
REMARK    8  A    between atoms: C_28  and  C_31
REMARK                            x       y       z     vdW  Elec       q    Type
REMARK                         _______ _______ _______ _____ _____    ______ ____
ROOT
ATOM      2  O   UNL     1      -1.235   3.475  26.113  0.00  0.00    -0.370 OA
ATOM      3  O   UNL     1      -2.033   2.389  23.297  0.00  0.00    -0.370 OA
ATOM     15  C   UNL     1      -2.644   2.309  24.596  0.00  0.00    +0.170 C 
ATOM     16  C   UNL     1      -1.532   2.156  25.614  0.00  0.00    +0.175 C 
ATOM     17  C   UNL     1      -3.298   3.627  24.948  0.00  0.00    +0.133 C 
ATOM     18  C   UNL     1      -0.352   1.633  24.818  0.00  0.00    +0.171 C 
ATOM     19  C   UNL     1      -2.124   4.420  25.500  0.00  0.00    +0.183 C 
ATOM     20  C   UNL     1      -0.619   2.176  23.417  0.00  0.00    +0.190 C 
ENDROOT
BRANCH  18   8
ATOM      8  N   UNL     1      -0.216   0.177  24.906  0.00  0.00    -0.187 N 
ATOM      9  N   UNL     1      -0.832  -0.513  25.871  0.00  0.00    -0.041 NA
ATOM     10  N   UNL     1       0.331  -1.884  24.553  0.00  0.00    -0.071 NA
ATOM     11  N   UNL     1      -0.493  -1.778  25.650  0.00  0.00    -0.020 NA
ATOM     21  C   UNL     1       0.489  -0.659  24.107  0.00  0.00    +0.342 A 
BRANCH  21   4
ATOM      4  O   UNL     1       1.207  -0.285  23.065  0.00  0.00    -0.423 OA
BRANCH   4  25
ATOM     25  C   UNL     1       2.593  -0.221  23.098  0.00  0.00    +0.132 A 
ATOM     29  C   UNL     1       3.305  -1.322  23.537  0.00  0.00    +0.048 A 
ATOM     30  C   UNL     1       3.222   0.940  22.690  0.00  0.00    +0.048 A 
ATOM     32  C   UNL     1       4.697  -1.260  23.568  0.00  0.00    +0.031 A 
ATOM     33  C   UNL     1       4.615   1.002  22.721  0.00  0.00    +0.031 A 
ATOM     34  C   UNL     1       5.353  -0.098  23.161  0.00  0.00    +0.067 A 
BRANCH  34  12
ATOM     12  N   UNL     1       6.734  -0.035  23.193  0.00  0.00    -0.220 N 
ATOM     13  N   UNL     1       7.391   0.910  23.890  0.00  0.00    -0.154 NA
ATOM     14  N   UNL     1       8.845  -0.497  22.826  0.00  0.00    -0.222 NA
ATOM     35  C   UNL     1       7.613  -0.868  22.563  0.00  0.00    +0.225 A 
ATOM     36  C   UNL     1       8.660   0.586  23.635  0.00  0.00    +0.245 A 
ENDBRANCH  34  12
ENDBRANCH   4  25
ENDBRANCH  21   4
ENDBRANCH  18   8
BRANCH  17   7
ATOM      7  N   UNL     1      -4.301   3.438  25.994  0.00  0.00    -0.182 NA
ATOM     37  H   UNL     1      -3.986   3.557  26.965  0.00  0.00    +0.148 HD
BRANCH   7   1
ATOM      1  S   UNL     1      -5.672   2.481  25.690  0.00  0.00    +0.059 S 
ATOM      5  O   UNL     1      -6.346   2.971  24.502  0.00  0.00    -0.153 OA
ATOM      6  O   UNL     1      -6.407   2.310  26.928  0.00  0.00    -0.153 OA
BRANCH   1  22
ATOM     22  C   UNL     1      -4.945   0.918  25.300  0.00  0.00    +0.105 A 
ATOM     23  C   UNL     1      -4.888   0.510  23.979  0.00  0.00    +0.029 A 
ATOM     24  C   UNL     1      -4.447   0.131  26.324  0.00  0.00    +0.029 A 
ATOM     26  C   UNL     1      -4.314  -0.724  23.672  0.00  0.00    +0.005 A 
ATOM     27  C   UNL     1      -3.873  -1.103  26.017  0.00  0.00    +0.005 A 
ATOM     28  C   UNL     1      -3.807  -1.530  24.691  0.00  0.00    -0.050 A 
ATOM     31  C   UNL     1      -3.194  -2.849  24.363  0.00  0.00    +0.044 C 
ENDBRANCH   1  22
ENDBRANCH   7   1
ENDBRANCH  17   7
TORSDOF 7
ENDMDL
MODEL 3
REMARK VINA RESULT:       4.2      3.279      7.028
REMARK  Name = 11886269
REMARK  8 active torsions:
REMARK  status: ('A' for Active; 'I' for Inactive)
REMARK    1  A    between atoms: S_1  and  N_7
REMARK    2  A    between atoms: S_1  and  C_22
REMARK    3  A    between atoms: O_4  and  C_21
REMARK    4  A    between atoms: O_4  and  C_25
REMARK    5  A    between atoms: N_7  and  C_17
REMARK    6  A    between atoms: N_8  and  C_18
REMARK    7  A    between atoms: N_12  and  C_34
REMARK    8  A    between atoms: C_28  and  C_31
REMARK                            x       y       z     vdW  Elec       q    Type
REMARK                         _______ _______ _______ _____ _____    ______ ____
ROOT
ATOM      2  O   UNL     1      -3.012  -1.428  23.480  0.00  0.00    -0.370 OA
ATOM      3  O   UNL     1      -2.284  -0.480  26.364  0.00  0.00    -0.370 OA
ATOM     15  C   UNL     1      -3.090   0.081  25.314  0.00  0.00    +0.170 C 
ATOM     16  C   UNL     1      -2.404  -0.229  23.998  0.00  0.00    +0.175 C 
ATOM     17  C   UNL     1      -4.415  -0.644  25.227  0.00  0.00    +0.133 C 
ATOM     18  C   UNL     1      -0.961  -0.508  24.374  0.00  0.00    +0.171 C 
ATOM     19  C   UNL     1      -4.057  -1.847  24.370  0.00  0.00    +0.183 C 
ATOM     20  C   UNL     1      -1.076  -1.017  25.808  0.00  0.00    +0.190 C 
ENDROOT
BRANCH  18   8
ATOM      8  N   UNL     1      -0.098   0.663  24.196  0.00  0.00    -0.187 N 
ATOM      9  N   UNL     1      -0.532   1.889  24.502  0.00  0.00    -0.041 NA
ATOM     10  N   UNL     1       1.560   1.970  23.737  0.00  0.00    -0.071 NA
ATOM     11  N   UNL     1       0.489   2.688  24.220  0.00  0.00    -0.020 NA
ATOM     21  C   UNL     1       1.173   0.716  23.732  0.00  0.00    +0.342 A 
BRANCH  21   4
ATOM      4  O   UNL     1       1.882  -0.328  23.344  0.00  0.00    -0.423 OA
BRANCH   4  25
ATOM     25  C   UNL     1       3.269  -0.309  23.288  0.00  0.00    +0.132 A 
ATOM     29  C   UNL     1       3.902   0.767  22.694  0.00  0.00    +0.048 A 
ATOM     30  C   UNL     1       3.976  -1.367  23.826  0.00  0.00    +0.048 A 
ATOM     32  C   UNL     1       5.295   0.786  22.638  0.00  0.00    +0.031 A 
ATOM     33  C   UNL     1       5.370  -1.347  23.770  0.00  0.00    +0.031 A 
ATOM     34  C   UNL     1       6.029  -0.271  23.176  0.00  0.00    +0.067 A 
BRANCH  34  12
ATOM     12  N   UNL     1       7.410  -0.252  23.120  0.00  0.00    -0.220 N 
ATOM     13  N   UNL     1       8.105  -1.091  22.330  0.00  0.00    -0.154 NA
ATOM     14  N   UNL     1       9.499   0.293  23.500  0.00  0.00    -0.222 NA
ATOM     35  C   UNL     1       8.254   0.567  23.812  0.00  0.00    +0.225 A 
ATOM     36  C   UNL     1       9.359  -0.721  22.596  0.00  0.00    +0.245 A 
ENDBRANCH  34  12
ENDBRANCH   4  25
ENDBRANCH  21   4
ENDBRANCH  18   8
BRANCH  17   7
ATOM      7  N   UNL     1      -5.405   0.178  24.534  0.00  0.00    -0.182 NA
ATOM     37  H   UNL     1      -5.399   0.143  23.507  0.00  0.00    +0.148 HD
BRANCH   7   1
ATOM      1  S   UNL     1      -6.056   1.547  25.302  0.00  0.00    +0.059 S 
ATOM      5  O   UNL     1      -6.294   1.246  26.701  0.00  0.00    -0.153 OA
ATOM      6  O   UNL     1      -7.123   2.082  24.478  0.00  0.00    -0.153 OA
BRANCH   1  22
ATOM     22  C   UNL     1      -4.712   2.690  25.211  0.00  0.00    +0.105 A 
ATOM     23  C   UNL     1      -4.173   3.004  23.975  0.00  0.00    +0.029 A 
ATOM     24  C   UNL     1      -4.222   3.250  26.378  0.00  0.00    +0.029 A 
ATOM     26  C   UNL     1      -3.112   3.907  23.904  0.00  0.00    +0.005 A 
ATOM     27  C   UNL     1      -3.161   4.153  26.307  0.00  0.00    +0.005 A 
ATOM     28  C   UNL     1      -2.606   4.481  25.070  0.00  0.00    -0.050 A 
ATOM     31  C   UNL     1      -1.471   5.446  24.993  0.00  0.00    +0.044 C 
ENDBRANCH   1  22
ENDBRANCH   7   1
ENDBRANCH  17   7
TORSDOF 7
ENDMDL
MODEL 4
REMARK VINA RESULT:       5.4      2.430      4.927
REMARK  Name = 11886269
REMARK  8 active torsions:
REMARK  status: ('A' for Active; 'I' for Inactive)
REMARK    1  A    between atoms: S_1  and  N_7
REMARK    2  A    between atoms: S_1  and  C_22
REMARK    3  A    between atoms: O_4  and  C_21
REMARK    4  A    between atoms: O_4  and  C_25
REMARK    5  A    between atoms: N_7  and  C_17
REMARK    6  A    between atoms: N_8  and  C_18
REMARK    7  A    between atoms: N_12  and  C_34
REMARK    8  A    between atoms: C_28  and  C_31
REMARK                            x       y       z     vdW  Elec       q    Type
REMARK                         _______ _______ _______ _____ _____    ______ ____
ROOT
ATOM      2  O   UNL     1       0.283   3.998  25.722  0.00  0.00    -0.370 OA
ATOM      3  O   UNL     1      -2.256   2.187  25.855  0.00  0.00    -0.370 OA
ATOM     15  C   UNL     1      -1.254   2.411  24.849  0.00  0.00    +0.170 C 
ATOM     16  C   UNL     1      -0.887   3.881  24.890  0.00  0.00    +0.175 C 
ATOM     17  C   UNL     1       0.026   1.693  25.216  0.00  0.00    +0.133 C 
ATOM     18  C   UNL     1      -2.067   4.552  25.568  0.00  0.00    +0.171 C 
ATOM     19  C   UNL     1       0.683   2.690  26.156  0.00  0.00    +0.183 C 
ATOM     20  C   UNL     1      -2.633   3.440  26.445  0.00  0.00    +0.190 C 
ENDROOT
BRANCH  18   8
ATOM      8  N   UNL     1      -3.011   5.130  24.609  0.00  0.00    -0.187 N 
ATOM      9  N   UNL     1      -2.649   6.141  23.812  0.00  0.00    -0.041 NA
ATOM     10  N   UNL     1      -4.770   5.568  23.431  0.00  0.00    -0.071 NA
ATOM     11  N   UNL     1      -3.731   6.405  23.091  0.00  0.00    -0.020 NA
ATOM     21  C   UNL     1      -4.299   4.785  24.374  0.00  0.00    +0.342 A 
BRANCH  21   4
ATOM      4  O   UNL     1      -4.951   3.824  25.000  0.00  0.00    -0.423 OA
BRANCH   4  25
ATOM     25  C   UNL     1      -4.687   2.478  24.785  0.00  0.00    +0.132 A 
ATOM     29  C   UNL     1      -3.994   2.104  23.649  0.00  0.00    +0.048 A 
ATOM     30  C   UNL     1      -5.123   1.552  25.713  0.00  0.00    +0.048 A 
ATOM     32  C   UNL     1      -3.727   0.753  23.433  0.00  0.00    +0.031 A 
ATOM     33  C   UNL     1      -4.856   0.200  25.497  0.00  0.00    +0.031 A 
ATOM     34  C   UNL     1      -4.158  -0.199  24.357  0.00  0.00    +0.067 A 
BRANCH  34  12
ATOM     12  N   UNL     1      -3.894  -1.540  24.143  0.00  0.00    -0.220 N 
ATOM     13  N   UNL     1      -4.784  -2.359  23.554  0.00  0.00    -0.154 NA
ATOM     14  N   UNL     1      -2.870  -3.478  24.112  0.00  0.00    -0.222 NA
ATOM     35  C   UNL     1      -2.757  -2.220  24.471  0.00  0.00    +0.225 A 
ATOM     36  C   UNL     1      -4.118  -3.515  23.560  0.00  0.00    +0.245 A 
ENDBRANCH  34  12
ENDBRANCH   4  25
ENDBRANCH  21   4
ENDBRANCH  18   8
BRANCH  17   7
ATOM      7  N   UNL     1       0.864   1.503  24.035  0.00  0.00    -0.182 NA
ATOM     37  H   UNL     1       0.975   2.310  23.410  0.00  0.00    +0.148 HD
BRANCH   7   1
ATOM      1  S   UNL     1       1.095  -0.058  23.403  0.00  0.00    +0.059 S 
ATOM      5  O   UNL     1       0.617  -0.099  22.034  0.00  0.00    -0.153 OA
ATOM      6  O   UNL     1       0.621  -1.029  24.371  0.00  0.00    -0.153 OA
BRANCH   1  22
ATOM     22  C   UNL     1       2.858  -0.181  23.370  0.00  0.00    +0.105 A 
ATOM     23  C   UNL     1       3.602   0.890  22.906  0.00  0.00    +0.029 A 
ATOM     24  C   UNL     1       3.461  -1.347  23.808  0.00  0.00    +0.029 A 
ATOM     26  C   UNL     1       4.993   0.793  22.881  0.00  0.00    +0.005 A 
ATOM     27  C   UNL     1       4.853  -1.444  23.783  0.00  0.00    +0.005 A 
ATOM     28  C   UNL     1       5.619  -0.375  23.319  0.00  0.00    -0.050 A 
ATOM     31  C   UNL     1       7.106  -0.478  23.291  0.00  0.00    +0.044 C 
ENDBRANCH   1  22
ENDBRANCH   7   1
ENDBRANCH  17   7
TORSDOF 7
ENDMDL
