MODEL 1
REMARK VINA RESULT:      -1.9      0.000      0.000
REMARK  Name = 45361617
REMARK  10 active torsions:
REMARK  status: ('A' for Active; 'I' for Inactive)
REMARK    1  A    between atoms: O_1  and  C_11
REMARK    2  A    between atoms: N_4  and  C_15
REMARK    3  A    between atoms: N_5  and  C_25
REMARK    4  A    between atoms: C_8  and  C_18
REMARK    5  A    between atoms: C_10  and  C_20
REMARK    6  A    between atoms: C_14  and  C_19
REMARK    7  A    between atoms: C_19  and  C_21
REMARK    8  A    between atoms: C_19  and  C_22
REMARK    9  A    between atoms: C_23  and  C_24
REMARK   10  A    between atoms: C_25  and  C_27
REMARK                            x       y       z     vdW  Elec       q    Type
REMARK                         _______ _______ _______ _____ _____    ______ ____
ROOT
ATOM      8  C   UNL     1      -3.009  -1.357  24.850  0.00  0.00    -0.027 C 
ATOM      9  C   UNL     1      -2.642  -0.021  24.123  0.00  0.00    +0.028 C 
ATOM     10  C   UNL     1      -1.100   0.261  24.217  0.00  0.00    +0.012 C 
ATOM     11  C   UNL     1      -3.564   1.145  24.582  0.00  0.00    +0.122 C 
ATOM     12  C   UNL     1      -4.511  -1.662  24.641  0.00  0.00    +0.007 C 
ATOM     13  C   UNL     1      -2.202  -2.514  24.219  0.00  0.00    +0.009 C 
ATOM     14  C   UNL     1      -5.067   0.794  24.468  0.00  0.00    +0.029 C 
ATOM     15  C   UNL     1      -0.295  -0.942  23.649  0.00  0.00    +0.076 C 
ATOM     16  C   UNL     1      -5.419  -0.540  25.126  0.00  0.00    +0.007 C 
ATOM     17  C   UNL     1      -0.698  -2.285  24.259  0.00  0.00    +0.023 C 
ATOM     18  C   UNL     1      -2.719  -1.303  26.372  0.00  0.00    +0.011 C 
ATOM     20  C   UNL     1      -0.663   1.548  23.497  0.00  0.00    +0.010 C 
ENDROOT
BRANCH  15   4
ATOM      3  O   UNL     1       1.612  -0.249  21.618  0.00  0.00    -0.269 OA
ATOM      4  N   UNL     1       1.131  -0.765  23.827  0.00  0.00    -0.307 N 
ATOM     23  C   UNL     1       1.972  -0.430  22.779  0.00  0.00    +0.263 C 
ATOM     35  H   UNL     1       1.529  -0.953  24.743  0.00  0.00    +0.149 HD
BRANCH  23  24
ATOM      6  N   UNL     1       3.971  -1.405  23.688  0.00  0.00    -0.250 NA
ATOM     24  C   UNL     1       3.413  -0.312  23.120  0.00  0.00    +0.125 A 
ATOM     26  C   UNL     1       4.099   0.862  22.858  0.00  0.00    +0.033 A 
ATOM     28  C   UNL     1       5.445   0.919  23.200  0.00  0.00    +0.004 A 
ATOM     29  C   UNL     1       5.282  -1.312  24.006  0.00  0.00    +0.111 A 
ATOM     32  C   UNL     1       6.055  -0.184  23.785  0.00  0.00    +0.020 A 
ENDBRANCH  23  24
ENDBRANCH  15   4
BRANCH  11   1
ATOM      1  O   UNL     1      -3.346   2.283  23.749  0.00  0.00    -0.391 OA
ATOM     36  H   UNL     1      -3.111   1.966  22.860  0.00  0.00    +0.210 HD
ENDBRANCH  11   1
BRANCH  14  19
ATOM     19  C   UNL     1      -5.955   1.902  25.048  0.00  0.00    +0.077 C 
ATOM     21  C   UNL     1      -7.177   2.113  24.162  0.00  0.00    +0.017 C 
BRANCH  19  22
ATOM      2  O   UNL     1      -5.127   4.065  24.340  0.00  0.00    -0.276 OA
ATOM      5  N   UNL     1      -4.457   3.243  26.403  0.00  0.00    -0.311 N 
ATOM     22  C   UNL     1      -5.148   3.187  25.201  0.00  0.00    +0.216 C 
ATOM     37  H   UNL     1      -4.569   2.500  27.086  0.00  0.00    +0.149 HD
BRANCH   5  25
ATOM     25  C   UNL     1      -3.622   4.362  26.773  0.00  0.00    +0.141 C 
BRANCH  25  27
ATOM      7  N   UNL     1      -0.145   3.150  25.914  0.00  0.00    -0.263 NA
ATOM     27  C   UNL     1      -2.267   4.288  26.131  0.00  0.00    -0.012 A 
ATOM     30  C   UNL     1      -1.864   5.236  25.197  0.00  0.00    +0.008 A 
ATOM     31  C   UNL     1      -1.379   3.275  26.453  0.00  0.00    +0.115 A 
ATOM     33  C   UNL     1      -0.602   5.141  24.620  0.00  0.00    +0.020 A 
ATOM     34  C   UNL     1       0.212   4.090  25.010  0.00  0.00    +0.111 A 
ENDBRANCH  25  27
ENDBRANCH   5  25
ENDBRANCH  19  22
ENDBRANCH  14  19
TORSDOF 7
ENDMDL
