MODEL 1
REMARK VINA RESULT:       0.5      0.000      0.000
REMARK  Name = 44716889
REMARK  16 active torsions:
REMARK  status: ('A' for Active; 'I' for Inactive)
REMARK    1  A    between atoms: O_1  and  C_15
REMARK    2  A    between atoms: O_1  and  C_24
REMARK    3  A    between atoms: O_2  and  C_16
REMARK    4  A    between atoms: O_3  and  C_20
REMARK    5  A    between atoms: O_6  and  C_30
REMARK    6  A    between atoms: O_6  and  C_35
REMARK    7  A    between atoms: N_7  and  C_25
REMARK    8  A    between atoms: N_8  and  C_26
REMARK    9  A    between atoms: C_9  and  C_19
REMARK   10  A    between atoms: C_11  and  C_20
REMARK   11  A    between atoms: C_11  and  C_21
REMARK   12  A    between atoms: C_12  and  C_22
REMARK   13  A    between atoms: C_22  and  C_23
REMARK   14  A    between atoms: C_25  and  C_27
REMARK   15  A    between atoms: C_26  and  C_28
REMARK   16  A    between atoms: C_26  and  C_29
REMARK                            x       y       z     vdW  Elec       q    Type
REMARK                         _______ _______ _______ _____ _____    ______ ____
ROOT
ATOM      9  C   UNL     1      -3.211   2.831  24.557  0.00  0.00    -0.023 C 
ATOM     10  C   UNL     1      -2.067   3.380  25.494  0.00  0.00    +0.007 C 
ATOM     11  C   UNL     1      -0.617   3.441  24.880  0.00  0.00    +0.031 C 
ATOM     12  C   UNL     1      -4.475   2.567  25.476  0.00  0.00    +0.032 C 
ATOM     13  C   UNL     1      -2.738   1.488  23.939  0.00  0.00    +0.011 C 
ATOM     14  C   UNL     1      -2.517   4.670  26.215  0.00  0.00    +0.007 C 
ATOM     15  C   UNL     1      -0.290   2.065  24.222  0.00  0.00    +0.186 C 
ATOM     16  C   UNL     1      -4.915   3.805  26.290  0.00  0.00    +0.119 C 
ATOM     17  C   UNL     1      -1.371   1.566  23.270  0.00  0.00    +0.046 C 
ATOM     18  C   UNL     1      -3.759   4.425  27.070  0.00  0.00    +0.032 C 
ATOM     19  C   UNL     1      -3.575   3.790  23.396  0.00  0.00    +0.012 C 
ATOM     21  C   UNL     1       0.413   3.664  26.026  0.00  0.00    +0.017 C 
ENDROOT
BRANCH  16   2
ATOM      2  O   UNL     1      -5.505   4.787  25.443  0.00  0.00    -0.391 OA
ATOM     36  H   UNL     1      -5.590   5.608  25.957  0.00  0.00    +0.210 HD
ENDBRANCH  16   2
BRANCH  15   1
ATOM      1  O   UNL     1       0.932   2.106  23.486  0.00  0.00    -0.446 OA
BRANCH   1  24
ATOM      5  O   UNL     1       0.866  -0.130  22.962  0.00  0.00    -0.226 OA
ATOM      8  N   UNL     1       2.874   1.005  23.215  0.00  0.00    -0.279 N 
ATOM     24  C   UNL     1       1.500   0.895  23.198  0.00  0.00    +0.401 C 
ATOM     39  H   UNL     1       3.271   1.926  23.379  0.00  0.00    +0.152 HD
BRANCH   8  26
ATOM     26  C   UNL     1       3.772  -0.095  22.950  0.00  0.00    +0.070 C 
ATOM     28  C   UNL     1       5.213   0.314  23.224  0.00  0.00    +0.027 C 
ATOM     29  C   UNL     1       3.376  -1.312  23.774  0.00  0.00    +0.027 C 
ENDBRANCH   8  26
ENDBRANCH   1  24
ENDBRANCH  15   1
BRANCH  11  20
ATOM     20  C   UNL     1      -0.399   4.603  23.891  0.00  0.00    +0.166 C 
BRANCH  20   3
ATOM      3  O   UNL     1      -0.442   5.809  24.622  0.00  0.00    -0.394 OA
ATOM     37  H   UNL     1      -1.360   6.130  24.597  0.00  0.00    +0.209 HD
ENDBRANCH  20   3
ENDBRANCH  11  20
BRANCH  12  22
ATOM     22  C   UNL     1      -5.688   1.963  24.748  0.00  0.00    +0.102 C 
BRANCH  22  23
ATOM      4  O   UNL     1      -6.415  -0.242  24.068  0.00  0.00    -0.276 OA
ATOM      7  N   UNL     1      -4.555  -0.020  25.443  0.00  0.00    -0.311 N 
ATOM     23  C   UNL     1      -5.621   0.455  24.694  0.00  0.00    +0.214 C 
ATOM     38  H   UNL     1      -3.971   0.635  25.956  0.00  0.00    +0.149 HD
BRANCH   7  25
ATOM     25  C   UNL     1      -4.247  -1.425  25.576  0.00  0.00    +0.143 C 
BRANCH  25  27
ATOM     27  C   UNL     1      -2.778  -1.696  25.414  0.00  0.00    +0.011 A 
ATOM     30  C   UNL     1      -2.331  -2.721  24.581  0.00  0.00    +0.125 A 
ATOM     31  C   UNL     1      -1.859  -0.911  26.110  0.00  0.00    +0.009 A 
ATOM     32  C   UNL     1      -0.963  -2.961  24.443  0.00  0.00    +0.046 A 
ATOM     33  C   UNL     1      -0.491  -1.151  25.972  0.00  0.00    +0.001 A 
ATOM     34  C   UNL     1      -0.044  -2.175  25.138  0.00  0.00    +0.004 A 
BRANCH  30   6
ATOM      6  O   UNL     1      -3.215  -3.498  23.895  0.00  0.00    -0.495 OA
ATOM     35  C   UNL     1      -4.311  -2.834  23.268  0.00  0.00    +0.277 C 
ENDBRANCH  30   6
ENDBRANCH  25  27
ENDBRANCH   7  25
ENDBRANCH  22  23
ENDBRANCH  12  22
TORSDOF 11
ENDMDL
MODEL 2
REMARK VINA RESULT:       3.8      1.627      5.077
REMARK  Name = 44716889
REMARK  16 active torsions:
REMARK  status: ('A' for Active; 'I' for Inactive)
REMARK    1  A    between atoms: O_1  and  C_15
REMARK    2  A    between atoms: O_1  and  C_24
REMARK    3  A    between atoms: O_2  and  C_16
REMARK    4  A    between atoms: O_3  and  C_20
REMARK    5  A    between atoms: O_6  and  C_30
REMARK    6  A    between atoms: O_6  and  C_35
REMARK    7  A    between atoms: N_7  and  C_25
REMARK    8  A    between atoms: N_8  and  C_26
REMARK    9  A    between atoms: C_9  and  C_19
REMARK   10  A    between atoms: C_11  and  C_20
REMARK   11  A    between atoms: C_11  and  C_21
REMARK   12  A    between atoms: C_12  and  C_22
REMARK   13  A    between atoms: C_22  and  C_23
REMARK   14  A    between atoms: C_25  and  C_27
REMARK   15  A    between atoms: C_26  and  C_28
REMARK   16  A    between atoms: C_26  and  C_29
REMARK                            x       y       z     vdW  Elec       q    Type
REMARK                         _______ _______ _______ _____ _____    ______ ____
ROOT
ATOM      9  C   UNL     1      -2.094  -0.566  24.940  0.00  0.00    -0.023 C 
ATOM     10  C   UNL     1      -1.204  -1.217  23.811  0.00  0.00    +0.007 C 
ATOM     11  C   UNL     1       0.277  -0.690  23.686  0.00  0.00    +0.031 C 
ATOM     12  C   UNL     1      -3.590  -1.010  24.662  0.00  0.00    +0.032 C 
ATOM     13  C   UNL     1      -1.988   0.978  24.820  0.00  0.00    +0.011 C 
ATOM     14  C   UNL     1      -1.343  -2.755  23.818  0.00  0.00    +0.007 C 
ATOM     15  C   UNL     1       0.257   0.868  23.656  0.00  0.00    +0.186 C 
ATOM     16  C   UNL     1      -3.771  -2.542  24.571  0.00  0.00    +0.119 C 
ATOM     17  C   UNL     1      -0.555   1.496  24.783  0.00  0.00    +0.046 C 
ATOM     18  C   UNL     1      -2.792  -3.183  23.591  0.00  0.00    +0.032 C 
ATOM     19  C   UNL     1      -1.666  -0.965  26.374  0.00  0.00    +0.012 C 
ATOM     21  C   UNL     1       0.877  -1.174  22.333  0.00  0.00    +0.017 C 
ENDROOT
BRANCH  16   2
ATOM      2  O   UNL     1      -3.633  -3.148  25.852  0.00  0.00    -0.391 OA
ATOM     36  H   UNL     1      -4.496  -3.523  26.097  0.00  0.00    +0.210 HD
ENDBRANCH  16   2
BRANCH  15   1
ATOM      1  O   UNL     1       1.572   1.418  23.729  0.00  0.00    -0.446 OA
BRANCH   1  24
ATOM      5  O   UNL     1       2.414   0.400  21.850  0.00  0.00    -0.226 OA
ATOM      8  N   UNL     1       3.655   0.574  23.802  0.00  0.00    -0.279 N 
ATOM     24  C   UNL     1       2.538   0.761  23.016  0.00  0.00    +0.401 C 
ATOM     39  H   UNL     1       3.643   0.965  24.739  0.00  0.00    +0.152 HD
BRANCH   8  26
ATOM     26  C   UNL     1       4.855  -0.088  23.347  0.00  0.00    +0.070 C 
ATOM     28  C   UNL     1       6.093   0.650  23.841  0.00  0.00    +0.027 C 
ATOM     29  C   UNL     1       4.862  -1.543  23.798  0.00  0.00    +0.027 C 
ENDBRANCH   8  26
ENDBRANCH   1  24
ENDBRANCH  15   1
BRANCH  11  20
ATOM     20  C   UNL     1       1.228  -1.219  24.777  0.00  0.00    +0.166 C 
BRANCH  20   3
ATOM      3  O   UNL     1       0.528  -2.184  25.533  0.00  0.00    -0.394 OA
ATOM     37  H   UNL     1       0.410  -1.821  26.427  0.00  0.00    +0.209 HD
ENDBRANCH  20   3
ENDBRANCH  11  20
BRANCH  12  22
ATOM     22  C   UNL     1      -4.629  -0.419  25.629  0.00  0.00    +0.102 C 
BRANCH  22  23
ATOM      4  O   UNL     1      -5.904   1.143  24.293  0.00  0.00    -0.276 OA
ATOM      7  N   UNL     1      -4.474   1.943  25.941  0.00  0.00    -0.311 N 
ATOM     23  C   UNL     1      -5.092   0.951  25.193  0.00  0.00    +0.214 C 
ATOM     38  H   UNL     1      -3.787   1.686  26.644  0.00  0.00    +0.149 HD
BRANCH   7  25
ATOM     25  C   UNL     1      -4.723   3.352  25.742  0.00  0.00    +0.143 C 
BRANCH  25  27
ATOM     27  C   UNL     1      -3.502   4.074  25.248  0.00  0.00    +0.011 A 
ATOM     30  C   UNL     1      -3.096   3.961  23.920  0.00  0.00    +0.125 A 
ATOM     31  C   UNL     1      -2.772   4.865  26.136  0.00  0.00    +0.009 A 
ATOM     32  C   UNL     1      -1.959   4.637  23.477  0.00  0.00    +0.046 A 
ATOM     33  C   UNL     1      -1.635   5.541  25.693  0.00  0.00    +0.001 A 
ATOM     34  C   UNL     1      -1.229   5.428  24.364  0.00  0.00    +0.004 A 
BRANCH  30   6
ATOM      6  O   UNL     1      -3.797   3.192  23.039  0.00  0.00    -0.495 OA
ATOM     35  C   UNL     1      -3.043   2.342  22.177  0.00  0.00    +0.277 C 
ENDBRANCH  30   6
ENDBRANCH  25  27
ENDBRANCH   7  25
ENDBRANCH  22  23
ENDBRANCH  12  22
TORSDOF 11
ENDMDL
MODEL 3
REMARK VINA RESULT:       4.3      2.265      5.526
REMARK  Name = 44716889
REMARK  16 active torsions:
REMARK  status: ('A' for Active; 'I' for Inactive)
REMARK    1  A    between atoms: O_1  and  C_15
REMARK    2  A    between atoms: O_1  and  C_24
REMARK    3  A    between atoms: O_2  and  C_16
REMARK    4  A    between atoms: O_3  and  C_20
REMARK    5  A    between atoms: O_6  and  C_30
REMARK    6  A    between atoms: O_6  and  C_35
REMARK    7  A    between atoms: N_7  and  C_25
REMARK    8  A    between atoms: N_8  and  C_26
REMARK    9  A    between atoms: C_9  and  C_19
REMARK   10  A    between atoms: C_11  and  C_20
REMARK   11  A    between atoms: C_11  and  C_21
REMARK   12  A    between atoms: C_12  and  C_22
REMARK   13  A    between atoms: C_22  and  C_23
REMARK   14  A    between atoms: C_25  and  C_27
REMARK   15  A    between atoms: C_26  and  C_28
REMARK   16  A    between atoms: C_26  and  C_29
REMARK                            x       y       z     vdW  Elec       q    Type
REMARK                         _______ _______ _______ _____ _____    ______ ____
ROOT
ATOM      9  C   UNL     1      -3.094  -0.362  25.081  0.00  0.00    -0.023 C 
ATOM     10  C   UNL     1      -1.839  -0.795  24.229  0.00  0.00    +0.007 C 
ATOM     11  C   UNL     1      -0.427  -0.349  24.771  0.00  0.00    +0.031 C 
ATOM     12  C   UNL     1      -4.375  -0.635  24.189  0.00  0.00    +0.032 C 
ATOM     13  C   UNL     1      -2.989   1.159  25.373  0.00  0.00    +0.011 C 
ATOM     14  C   UNL     1      -1.933  -2.283  23.825  0.00  0.00    +0.007 C 
ATOM     15  C   UNL     1      -0.473   1.174  25.103  0.00  0.00    +0.186 C 
ATOM     16  C   UNL     1      -4.473  -2.092  23.681  0.00  0.00    +0.119 C 
ATOM     17  C   UNL     1      -1.654   1.580  25.977  0.00  0.00    +0.046 C 
ATOM     18  C   UNL     1      -3.189  -2.554  22.998  0.00  0.00    +0.032 C 
ATOM     19  C   UNL     1      -3.208  -1.103  26.437  0.00  0.00    +0.012 C 
ATOM     21  C   UNL     1       0.636  -0.550  23.652  0.00  0.00    +0.017 C 
ENDROOT
BRANCH  16   2
ATOM      2  O   UNL     1      -4.797  -2.981  24.746  0.00  0.00    -0.391 OA
ATOM     36  H   UNL     1      -4.122  -2.875  25.437  0.00  0.00    +0.210 HD
ENDBRANCH  16   2
BRANCH  15   1
ATOM      1  O   UNL     1       0.712   1.608  25.771  0.00  0.00    -0.446 OA
BRANCH   1  24
ATOM      5  O   UNL     1      -0.500   3.003  27.135  0.00  0.00    -0.226 OA
ATOM      8  N   UNL     1       1.649   2.326  27.684  0.00  0.00    -0.279 N 
ATOM     24  C   UNL     1       0.524   2.373  26.890  0.00  0.00    +0.401 C 
ATOM     39  H   UNL     1       2.413   1.727  27.385  0.00  0.00    +0.152 HD
BRANCH   8  26
ATOM     26  C   UNL     1       1.776   3.027  28.941  0.00  0.00    +0.070 C 
ATOM     28  C   UNL     1       1.283   2.157  30.091  0.00  0.00    +0.027 C 
ATOM     29  C   UNL     1       3.216   3.469  29.159  0.00  0.00    +0.027 C 
ENDBRANCH   8  26
ENDBRANCH   1  24
ENDBRANCH  15   1
BRANCH  11  20
ATOM     20  C   UNL     1       0.074  -1.171  25.975  0.00  0.00    +0.166 C 
BRANCH  20   3
ATOM      3  O   UNL     1       0.798  -2.274  25.476  0.00  0.00    -0.394 OA
ATOM     37  H   UNL     1       0.820  -2.192  24.507  0.00  0.00    +0.209 HD
ENDBRANCH  20   3
ENDBRANCH  11  20
BRANCH  12  22
ATOM     22  C   UNL     1      -5.709  -0.215  24.827  0.00  0.00    +0.102 C 
BRANCH  22  23
ATOM      4  O   UNL     1      -5.874   1.514  26.512  0.00  0.00    -0.276 OA
ATOM      7  N   UNL     1      -5.366   2.093  24.319  0.00  0.00    -0.311 N 
ATOM     23  C   UNL     1      -5.666   1.205  25.342  0.00  0.00    +0.214 C 
ATOM     38  H   UNL     1      -5.243   1.744  23.373  0.00  0.00    +0.149 HD
BRANCH   7  25
ATOM     25  C   UNL     1      -5.261   3.520  24.519  0.00  0.00    +0.143 C 
BRANCH  25  27
ATOM     27  C   UNL     1      -3.831   3.980  24.545  0.00  0.00    +0.011 A 
ATOM     30  C   UNL     1      -2.954   3.638  23.517  0.00  0.00    +0.125 A 
ATOM     31  C   UNL     1      -3.384   4.755  25.615  0.00  0.00    +0.009 A 
ATOM     32  C   UNL     1      -1.629   4.073  23.557  0.00  0.00    +0.046 A 
ATOM     33  C   UNL     1      -2.059   5.190  25.655  0.00  0.00    +0.001 A 
ATOM     34  C   UNL     1      -1.182   4.849  24.626  0.00  0.00    +0.004 A 
BRANCH  30   6
ATOM      6  O   UNL     1      -3.374   2.880  22.464  0.00  0.00    -0.495 OA
ATOM     35  C   UNL     1      -2.439   1.950  21.923  0.00  0.00    +0.277 C 
ENDBRANCH  30   6
ENDBRANCH  25  27
ENDBRANCH   7  25
ENDBRANCH  22  23
ENDBRANCH  12  22
TORSDOF 11
ENDMDL
MODEL 4
REMARK VINA RESULT:       4.4      1.734      5.059
REMARK  Name = 44716889
REMARK  16 active torsions:
REMARK  status: ('A' for Active; 'I' for Inactive)
REMARK    1  A    between atoms: O_1  and  C_15
REMARK    2  A    between atoms: O_1  and  C_24
REMARK    3  A    between atoms: O_2  and  C_16
REMARK    4  A    between atoms: O_3  and  C_20
REMARK    5  A    between atoms: O_6  and  C_30
REMARK    6  A    between atoms: O_6  and  C_35
REMARK    7  A    between atoms: N_7  and  C_25
REMARK    8  A    between atoms: N_8  and  C_26
REMARK    9  A    between atoms: C_9  and  C_19
REMARK   10  A    between atoms: C_11  and  C_20
REMARK   11  A    between atoms: C_11  and  C_21
REMARK   12  A    between atoms: C_12  and  C_22
REMARK   13  A    between atoms: C_22  and  C_23
REMARK   14  A    between atoms: C_25  and  C_27
REMARK   15  A    between atoms: C_26  and  C_28
REMARK   16  A    between atoms: C_26  and  C_29
REMARK                            x       y       z     vdW  Elec       q    Type
REMARK                         _______ _______ _______ _____ _____    ______ ____
ROOT
ATOM      9  C   UNL     1      -2.971   0.440  24.251  0.00  0.00    -0.023 C 
ATOM     10  C   UNL     1      -2.645  -1.100  24.138  0.00  0.00    +0.007 C 
ATOM     11  C   UNL     1      -1.140  -1.522  24.346  0.00  0.00    +0.031 C 
ATOM     12  C   UNL     1      -4.442   0.642  23.696  0.00  0.00    +0.032 C 
ATOM     13  C   UNL     1      -1.975   1.220  23.352  0.00  0.00    +0.011 C 
ATOM     14  C   UNL     1      -3.666  -1.939  24.938  0.00  0.00    +0.007 C 
ATOM     15  C   UNL     1      -0.236  -0.616  23.455  0.00  0.00    +0.186 C 
ATOM     16  C   UNL     1      -5.494  -0.243  24.404  0.00  0.00    +0.119 C 
ATOM     17  C   UNL     1      -0.513   0.875  23.610  0.00  0.00    +0.046 C 
ATOM     18  C   UNL     1      -5.089  -1.714  24.430  0.00  0.00    +0.032 C 
ATOM     19  C   UNL     1      -2.852   0.995  25.691  0.00  0.00    +0.012 C 
ATOM     21  C   UNL     1      -0.951  -2.989  23.862  0.00  0.00    +0.017 C 
ENDROOT
BRANCH  16   2
ATOM      2  O   UNL     1      -5.733   0.213  25.732  0.00  0.00    -0.391 OA
ATOM     36  H   UNL     1      -6.672   0.062  25.933  0.00  0.00    +0.210 HD
ENDBRANCH  16   2
BRANCH  15   1
ATOM      1  O   UNL     1       1.151  -0.816  23.729  0.00  0.00    -0.446 OA
BRANCH   1  24
ATOM      5  O   UNL     1       1.737  -0.172  21.604  0.00  0.00    -0.226 OA
ATOM      8  N   UNL     1       3.255  -0.117  23.357  0.00  0.00    -0.279 N 
ATOM     24  C   UNL     1       2.023  -0.351  22.784  0.00  0.00    +0.401 C 
ATOM     39  H   UNL     1       3.344  -0.263  24.359  0.00  0.00    +0.152 HD
BRANCH   8  26
ATOM     26  C   UNL     1       4.399   0.380  22.629  0.00  0.00    +0.070 C 
ATOM     28  C   UNL     1       4.266   1.878  22.383  0.00  0.00    +0.027 C 
ATOM     29  C   UNL     1       5.685   0.055  23.376  0.00  0.00    +0.027 C 
ENDBRANCH   8  26
ENDBRANCH   1  24
ENDBRANCH  15   1
BRANCH  11  20
ATOM     20  C   UNL     1      -0.678  -1.504  25.816  0.00  0.00    +0.166 C 
BRANCH  20   3
ATOM      3  O   UNL     1       0.505  -2.266  25.908  0.00  0.00    -0.394 OA
ATOM     37  H   UNL     1       1.044  -1.880  26.620  0.00  0.00    +0.209 HD
ENDBRANCH  20   3
ENDBRANCH  11  20
BRANCH  12  22
ATOM     22  C   UNL     1      -4.926   2.101  23.664  0.00  0.00    +0.102 C 
BRANCH  22  23
ATOM      4  O   UNL     1      -2.993   3.556  23.632  0.00  0.00    -0.276 OA
ATOM      7  N   UNL     1      -4.163   3.246  25.615  0.00  0.00    -0.311 N 
ATOM     23  C   UNL     1      -3.912   3.045  24.266  0.00  0.00    +0.214 C 
ATOM     38  H   UNL     1      -4.930   2.751  26.061  0.00  0.00    +0.149 HD
BRANCH   7  25
ATOM     25  C   UNL     1      -3.352   4.101  26.451  0.00  0.00    +0.143 C 
BRANCH  25  27
ATOM     27  C   UNL     1      -2.109   4.560  25.745  0.00  0.00    +0.011 A 
ATOM     30  C   UNL     1      -0.949   3.787  25.768  0.00  0.00    +0.125 A 
ATOM     31  C   UNL     1      -2.122   5.777  25.063  0.00  0.00    +0.009 A 
ATOM     32  C   UNL     1       0.198   4.229  25.108  0.00  0.00    +0.046 A 
ATOM     33  C   UNL     1      -0.975   6.219  24.403  0.00  0.00    +0.001 A 
ATOM     34  C   UNL     1       0.185   5.445  24.425  0.00  0.00    +0.004 A 
BRANCH  30   6
ATOM      6  O   UNL     1      -0.918   2.596  26.431  0.00  0.00    -0.495 OA
ATOM     35  C   UNL     1       0.323   2.217  27.024  0.00  0.00    +0.277 C 
ENDBRANCH  30   6
ENDBRANCH  25  27
ENDBRANCH   7  25
ENDBRANCH  22  23
ENDBRANCH  12  22
TORSDOF 11
ENDMDL
