MODEL 1
REMARK VINA RESULT:       5.4      0.000      0.000
REMARK  Name = 11867282
REMARK  4 active torsions:
REMARK  status: ('A' for Active; 'I' for Inactive)
REMARK    1  A    between atoms: S_1  and  N_11
REMARK    2  A    between atoms: S_1  and  C_25
REMARK    3  A    between atoms: N_10  and  C_24
REMARK    4  A    between atoms: N_11  and  C_22
REMARK                            x       y       z     vdW  Elec       q    Type
REMARK                         _______ _______ _______ _____ _____    ______ ____
ROOT
ATOM      4  O   UNL     1      -0.056   2.447  26.287  0.00  0.00    -0.266 OA
ATOM      5  O   UNL     1      -4.710   0.031  26.598  0.00  0.00    -0.252 OA
ATOM      8  N   UNL     1      -4.961   1.954  25.335  0.00  0.00    -0.284 N 
ATOM      9  N   UNL     1      -2.005   3.154  25.197  0.00  0.00    -0.310 N 
ATOM     10  N   UNL     1      -4.793  -0.154  24.288  0.00  0.00    -0.269 N 
ATOM     12  C   UNL     1      -4.069   4.012  26.441  0.00  0.00    +0.027 C 
ATOM     13  C   UNL     1      -4.101   3.865  23.988  0.00  0.00    +0.054 C 
ATOM     14  C   UNL     1      -4.339   4.803  25.169  0.00  0.00    +0.018 C 
ATOM     15  C   UNL     1      -5.013   2.802  26.530  0.00  0.00    +0.114 C 
ATOM     16  C   UNL     1      -2.593   3.596  26.467  0.00  0.00    +0.130 C 
ATOM     17  C   UNL     1      -5.083   2.677  24.056  0.00  0.00    +0.119 C 
ATOM     18  C   UNL     1      -2.674   3.346  23.980  0.00  0.00    +0.027 A 
ATOM     19  C   UNL     1      -2.070   3.042  22.816  0.00  0.00    +0.024 A 
ATOM     20  C   UNL     1      -0.699   2.624  25.253  0.00  0.00    +0.274 A 
ATOM     21  C   UNL     1      -4.806   0.559  25.486  0.00  0.00    +0.306 C 
ATOM     22  C   UNL     1      -0.097   2.285  23.940  0.00  0.00    +0.112 A 
ATOM     23  C   UNL     1      -0.741   2.494  22.791  0.00  0.00    +0.031 A 
ATOM     36  H   UNL     1      -5.293   0.232  23.494  0.00  0.00    +0.156 HD
ENDROOT
BRANCH  10  24
ATOM      2  F   UNL     1      -2.430  -5.074  23.339  0.00  0.00    -0.205 F 
ATOM     24  C   UNL     1      -4.190  -1.413  24.046  0.00  0.00    +0.035 A 
ATOM     26  C   UNL     1      -2.842  -1.600  24.338  0.00  0.00    +0.026 A 
ATOM     27  C   UNL     1      -4.947  -2.453  23.516  0.00  0.00    +0.026 A 
ATOM     30  C   UNL     1      -2.247  -2.840  24.100  0.00  0.00    +0.040 A 
ATOM     31  C   UNL     1      -4.353  -3.692  23.277  0.00  0.00    +0.040 A 
ATOM     32  C   UNL     1      -3.003  -3.885  23.568  0.00  0.00    +0.124 A 
ENDBRANCH  10  24
BRANCH  22  11
ATOM     11  N   UNL     1       1.198   1.741  23.873  0.00  0.00    -0.211 N 
ATOM     37  H   UNL     1       1.893   2.408  23.509  0.00  0.00    +0.174 HD
BRANCH  11   1
ATOM      1  S   UNL     1       1.343   0.169  23.261  0.00  0.00    +0.073 S 
ATOM      6  O   UNL     1       0.727  -0.770  24.177  0.00  0.00    -0.150 OA
ATOM      7  O   UNL     1       0.988   0.159  21.855  0.00  0.00    -0.150 OA
BRANCH   1  25
ATOM      3  F   UNL     1       5.465  -2.684  24.150  0.00  0.00    -0.205 F 
ATOM     25  C   UNL     1       3.094  -0.064  23.365  0.00  0.00    +0.111 A 
ATOM     28  C   UNL     1       3.589  -1.305  23.722  0.00  0.00    +0.067 A 
ATOM     29  C   UNL     1       3.933   1.001  23.089  0.00  0.00    +0.029 A 
ATOM     33  C   UNL     1       4.969  -1.489  23.806  0.00  0.00    +0.125 A 
ATOM     34  C   UNL     1       5.313   0.817  23.173  0.00  0.00    +0.005 A 
ATOM     35  C   UNL     1       5.831  -0.427  23.531  0.00  0.00    +0.038 A 
ENDBRANCH   1  25
ENDBRANCH  11   1
ENDBRANCH  22  11
TORSDOF 4
ENDMDL
