MODEL 1
REMARK VINA RESULT:       8.2      0.000      0.000
REMARK  Name = 11911662
REMARK  10 active torsions:
REMARK  status: ('A' for Active; 'I' for Inactive)
REMARK    1  A    between atoms: O_3  and  C_14
REMARK    2  A    between atoms: O_3  and  C_18
REMARK    3  A    between atoms: N_6  and  C_13
REMARK    4  A    between atoms: N_9  and  C_22
REMARK    5  A    between atoms: N_10  and  C_32
REMARK    6  A    between atoms: N_10  and  C_35
REMARK    7  A    between atoms: N_10  and  C_36
REMARK    8  A    between atoms: C_19  and  C_23
REMARK    9  A    between atoms: C_33  and  C_34
REMARK   10  A    between atoms: C_34  and  C_37
REMARK                            x       y       z     vdW  Elec       q    Type
REMARK                         _______ _______ _______ _____ _____    ______ ____
ROOT
ATOM      1  O   UNL     1      -1.974   2.446  25.364  0.00  0.00    -0.368 OA
ATOM      2  O   UNL     1      -0.637   4.884  24.068  0.00  0.00    -0.368 OA
ATOM     11  C   UNL     1      -2.024   4.578  24.328  0.00  0.00    +0.173 C 
ATOM     12  C   UNL     1      -2.196   3.090  24.099  0.00  0.00    +0.192 C 
ATOM     13  C   UNL     1      -2.326   4.759  25.797  0.00  0.00    +0.130 C 
ATOM     14  C   UNL     1      -1.093   2.781  23.114  0.00  0.00    +0.235 C 
ATOM     15  C   UNL     1      -1.852   3.444  26.390  0.00  0.00    +0.185 C 
ATOM     16  C   UNL     1       0.013   3.703  23.575  0.00  0.00    +0.207 C 
ENDROOT
BRANCH  13   6
ATOM      6  N   UNL     1      -3.750   4.917  26.001  0.00  0.00    -0.306 N 
ATOM      7  N   UNL     1      -4.161   2.677  25.548  0.00  0.00    -0.214 NA
ATOM      8  N   UNL     1      -5.953   4.189  26.103  0.00  0.00    -0.223 NA
ATOM     17  C   UNL     1      -4.660   3.882  25.879  0.00  0.00    +0.216 A 
ATOM     19  C   UNL     1      -5.075   1.691  25.439  0.00  0.00    +0.076 A 
ATOM     20  C   UNL     1      -6.813   3.157  25.975  0.00  0.00    +0.116 A 
ATOM     21  C   UNL     1      -6.428   1.875  25.642  0.00  0.00    +0.048 A 
ATOM     38  H   UNL     1      -4.113   5.815  26.301  0.00  0.00    +0.149 HD
BRANCH  19  23
ATOM     23  C   UNL     1      -4.542   0.397  25.085  0.00  0.00    +0.001 A 
ATOM     26  C   UNL     1      -4.671  -0.078  23.780  0.00  0.00    +0.012 A 
ATOM     27  C   UNL     1      -3.897  -0.378  26.049  0.00  0.00    +0.012 A 
ATOM     30  C   UNL     1      -4.154  -1.327  23.438  0.00  0.00    +0.024 A 
ATOM     31  C   UNL     1      -3.380  -1.627  25.707  0.00  0.00    +0.024 A 
ATOM     32  C   UNL     1      -3.509  -2.101  24.402  0.00  0.00    +0.029 A 
BRANCH  32  10
ATOM     10  N   UNL     1      -2.986  -3.365  24.058  0.00  0.00    -0.336 N 
ATOM     35  C   UNL     1      -3.874  -4.465  23.737  0.00  0.00    +0.129 C 
ATOM     36  C   UNL     1      -1.552  -3.578  24.006  0.00  0.00    +0.129 C 
ENDBRANCH  32  10
ENDBRANCH  19  23
ENDBRANCH  13   6
BRANCH  14   3
ATOM      3  O   UNL     1      -0.694   1.429  23.121  0.00  0.00    -0.442 OA
BRANCH   3  18
ATOM      4  O   UNL     1       0.600   1.214  24.994  0.00  0.00    -0.226 OA
ATOM      9  N   UNL     1       1.435   0.735  22.861  0.00  0.00    -0.251 N 
ATOM     18  C   UNL     1       0.480   1.128  23.778  0.00  0.00    +0.405 C 
ATOM     39  H   UNL     1       1.146   0.728  21.885  0.00  0.00    +0.158 HD
BRANCH   9  22
ATOM     22  C   UNL     1       2.771   0.343  23.107  0.00  0.00    +0.036 A 
ATOM     24  C   UNL     1       3.049  -0.959  23.524  0.00  0.00    +0.024 A 
ATOM     25  C   UNL     1       3.810   1.257  22.931  0.00  0.00    +0.024 A 
ATOM     28  C   UNL     1       4.366  -1.347  23.765  0.00  0.00    +0.013 A 
ATOM     29  C   UNL     1       5.128   0.868  23.173  0.00  0.00    +0.013 A 
ATOM     33  C   UNL     1       5.406  -0.434  23.590  0.00  0.00    +0.017 A 
BRANCH  33  34
ATOM      5  O   UNL     1       7.116  -1.364  24.922  0.00  0.00    -0.292 OA
ATOM     34  C   UNL     1       6.780  -0.837  23.843  0.00  0.00    +0.160 C 
ATOM     37  C   UNL     1       7.852  -0.623  22.779  0.00  0.00    +0.091 C 
ENDBRANCH  33  34
ENDBRANCH   9  22
ENDBRANCH   3  18
ENDBRANCH  14   3
TORSDOF 7
ENDMDL
MODEL 2
REMARK VINA RESULT:       9.2      2.528      4.887
REMARK  Name = 11911662
REMARK  10 active torsions:
REMARK  status: ('A' for Active; 'I' for Inactive)
REMARK    1  A    between atoms: O_3  and  C_14
REMARK    2  A    between atoms: O_3  and  C_18
REMARK    3  A    between atoms: N_6  and  C_13
REMARK    4  A    between atoms: N_9  and  C_22
REMARK    5  A    between atoms: N_10  and  C_32
REMARK    6  A    between atoms: N_10  and  C_35
REMARK    7  A    between atoms: N_10  and  C_36
REMARK    8  A    between atoms: C_19  and  C_23
REMARK    9  A    between atoms: C_33  and  C_34
REMARK   10  A    between atoms: C_34  and  C_37
REMARK                            x       y       z     vdW  Elec       q    Type
REMARK                         _______ _______ _______ _____ _____    ______ ____
ROOT
ATOM      1  O   UNL     1      -3.532  -0.650  23.490  0.00  0.00    -0.368 OA
ATOM      2  O   UNL     1      -3.981  -0.702  26.524  0.00  0.00    -0.368 OA
ATOM     11  C   UNL     1      -3.886   0.394  25.589  0.00  0.00    +0.173 C 
ATOM     12  C   UNL     1      -2.839   0.006  24.564  0.00  0.00    +0.192 C 
ATOM     13  C   UNL     1      -5.162   0.500  24.787  0.00  0.00    +0.130 C 
ATOM     14  C   UNL     1      -1.966  -0.954  25.335  0.00  0.00    +0.235 C 
ATOM     15  C   UNL     1      -4.948  -0.538  23.699  0.00  0.00    +0.185 C 
ATOM     16  C   UNL     1      -2.972  -1.672  26.205  0.00  0.00    +0.207 C 
ENDROOT
BRANCH  13   6
ATOM      6  N   UNL     1      -5.280   1.820  24.204  0.00  0.00    -0.306 N 
ATOM      7  N   UNL     1      -3.346   2.561  25.255  0.00  0.00    -0.214 NA
ATOM      8  N   UNL     1      -4.624   4.014  23.819  0.00  0.00    -0.223 NA
ATOM     17  C   UNL     1      -4.377   2.842  24.436  0.00  0.00    +0.216 A 
ATOM     19  C   UNL     1      -2.485   3.580  25.459  0.00  0.00    +0.076 A 
ATOM     20  C   UNL     1      -3.724   4.989  24.068  0.00  0.00    +0.116 A 
ATOM     21  C   UNL     1      -2.626   4.827  24.887  0.00  0.00    +0.048 A 
ATOM     38  H   UNL     1      -6.029   2.009  23.548  0.00  0.00    +0.149 HD
BRANCH  19  23
ATOM     23  C   UNL     1      -1.378   3.280  26.335  0.00  0.00    +0.001 A 
ATOM     26  C   UNL     1      -0.130   2.963  25.799  0.00  0.00    +0.012 A 
ATOM     27  C   UNL     1      -1.556   3.311  27.718  0.00  0.00    +0.012 A 
ATOM     30  C   UNL     1       0.940   2.676  26.645  0.00  0.00    +0.024 A 
ATOM     31  C   UNL     1      -0.485   3.023  28.565  0.00  0.00    +0.024 A 
ATOM     32  C   UNL     1       0.762   2.706  28.028  0.00  0.00    +0.029 A 
BRANCH  32  10
ATOM     10  N   UNL     1       1.844   2.415  28.886  0.00  0.00    -0.336 N 
ATOM     35  C   UNL     1       3.206   2.686  28.467  0.00  0.00    +0.129 C 
ATOM     36  C   UNL     1       1.608   1.856  30.202  0.00  0.00    +0.129 C 
ENDBRANCH  32  10
ENDBRANCH  19  23
ENDBRANCH  13   6
BRANCH  14   3
ATOM      3  O   UNL     1      -1.245  -1.843  24.512  0.00  0.00    -0.442 OA
BRANCH   3  18
ATOM      4  O   UNL     1       0.672  -2.597  25.505  0.00  0.00    -0.226 OA
ATOM      9  N   UNL     1       0.720  -1.003  23.792  0.00  0.00    -0.251 N 
ATOM     18  C   UNL     1       0.124  -1.878  24.679  0.00  0.00    +0.405 C 
ATOM     39  H   UNL     1       0.093  -0.487  23.179  0.00  0.00    +0.158 HD
BRANCH   9  22
ATOM     22  C   UNL     1       2.098  -0.731  23.630  0.00  0.00    +0.036 A 
ATOM     24  C   UNL     1       2.510   0.510  23.144  0.00  0.00    +0.024 A 
ATOM     25  C   UNL     1       3.044  -1.702  23.959  0.00  0.00    +0.024 A 
ATOM     28  C   UNL     1       3.869   0.779  22.986  0.00  0.00    +0.013 A 
ATOM     29  C   UNL     1       4.403  -1.431  23.801  0.00  0.00    +0.013 A 
ATOM     33  C   UNL     1       4.816  -0.191  23.314  0.00  0.00    +0.017 A 
BRANCH  33  34
ATOM      5  O   UNL     1       6.923  -0.518  22.305  0.00  0.00    -0.292 OA
ATOM     34  C   UNL     1       6.233   0.089  23.149  0.00  0.00    +0.160 C 
ATOM     37  C   UNL     1       6.915   1.145  24.013  0.00  0.00    +0.091 C 
ENDBRANCH  33  34
ENDBRANCH   9  22
ENDBRANCH   3  18
ENDBRANCH  14   3
TORSDOF 7
ENDMDL
MODEL 3
REMARK VINA RESULT:      10.5      2.667      5.059
REMARK  Name = 11911662
REMARK  10 active torsions:
REMARK  status: ('A' for Active; 'I' for Inactive)
REMARK    1  A    between atoms: O_3  and  C_14
REMARK    2  A    between atoms: O_3  and  C_18
REMARK    3  A    between atoms: N_6  and  C_13
REMARK    4  A    between atoms: N_9  and  C_22
REMARK    5  A    between atoms: N_10  and  C_32
REMARK    6  A    between atoms: N_10  and  C_35
REMARK    7  A    between atoms: N_10  and  C_36
REMARK    8  A    between atoms: C_19  and  C_23
REMARK    9  A    between atoms: C_33  and  C_34
REMARK   10  A    between atoms: C_34  and  C_37
REMARK                            x       y       z     vdW  Elec       q    Type
REMARK                         _______ _______ _______ _____ _____    ______ ____
ROOT
ATOM      1  O   UNL     1      -2.565   0.404  25.087  0.00  0.00    -0.368 OA
ATOM      2  O   UNL     1      -4.097  -1.516  23.248  0.00  0.00    -0.368 OA
ATOM     11  C   UNL     1      -4.512  -0.320  23.943  0.00  0.00    +0.173 C 
ATOM     12  C   UNL     1      -3.793  -0.317  25.278  0.00  0.00    +0.192 C 
ATOM     13  C   UNL     1      -3.973   0.901  23.235  0.00  0.00    +0.130 C 
ATOM     14  C   UNL     1      -3.548  -1.786  25.521  0.00  0.00    +0.235 C 
ATOM     15  C   UNL     1      -2.558   0.993  23.778  0.00  0.00    +0.185 C 
ATOM     16  C   UNL     1      -3.274  -2.299  24.125  0.00  0.00    +0.207 C 
ENDROOT
BRANCH  13   6
ATOM      6  N   UNL     1      -4.732   2.075  23.612  0.00  0.00    -0.306 N 
ATOM      7  N   UNL     1      -3.177   2.679  25.228  0.00  0.00    -0.214 NA
ATOM      8  N   UNL     1      -5.150   4.006  24.833  0.00  0.00    -0.223 NA
ATOM     17  C   UNL     1      -4.335   2.958  24.600  0.00  0.00    +0.216 A 
ATOM     19  C   UNL     1      -2.820   3.561  26.185  0.00  0.00    +0.076 A 
ATOM     20  C   UNL     1      -4.733   4.846  25.803  0.00  0.00    +0.116 A 
ATOM     21  C   UNL     1      -3.567   4.672  26.519  0.00  0.00    +0.048 A 
ATOM     38  H   UNL     1      -5.576   2.308  23.100  0.00  0.00    +0.149 HD
BRANCH  19  23
ATOM     23  C   UNL     1      -1.578   3.265  26.858  0.00  0.00    +0.001 A 
ATOM     26  C   UNL     1      -0.441   2.946  26.115  0.00  0.00    +0.012 A 
ATOM     27  C   UNL     1      -1.515   3.300  28.251  0.00  0.00    +0.012 A 
ATOM     30  C   UNL     1       0.759   2.662  26.766  0.00  0.00    +0.024 A 
ATOM     31  C   UNL     1      -0.314   3.016  28.901  0.00  0.00    +0.024 A 
ATOM     32  C   UNL     1       0.822   2.697  28.159  0.00  0.00    +0.029 A 
BRANCH  32  10
ATOM     10  N   UNL     1       2.036   2.410  28.818  0.00  0.00    -0.336 N 
ATOM     35  C   UNL     1       3.304   2.760  28.208  0.00  0.00    +0.129 C 
ATOM     36  C   UNL     1       2.032   1.773  30.120  0.00  0.00    +0.129 C 
ENDBRANCH  32  10
ENDBRANCH  19  23
ENDBRANCH  13   6
BRANCH  14   3
ATOM      3  O   UNL     1      -2.475  -2.040  26.400  0.00  0.00    -0.442 OA
BRANCH   3  18
ATOM      4  O   UNL     1      -0.867  -0.535  27.016  0.00  0.00    -0.226 OA
ATOM      9  N   UNL     1      -0.788  -1.646  24.957  0.00  0.00    -0.251 N 
ATOM     18  C   UNL     1      -1.315  -1.324  26.192  0.00  0.00    +0.405 C 
ATOM     39  H   UNL     1      -1.307  -2.328  24.410  0.00  0.00    +0.158 HD
BRANCH   9  22
ATOM     22  C   UNL     1       0.387  -1.143  24.353  0.00  0.00    +0.036 A 
ATOM     24  C   UNL     1       1.587  -1.844  24.472  0.00  0.00    +0.024 A 
ATOM     25  C   UNL     1       0.346   0.053  23.637  0.00  0.00    +0.024 A 
ATOM     28  C   UNL     1       2.746  -1.349  23.875  0.00  0.00    +0.013 A 
ATOM     29  C   UNL     1       1.506   0.548  23.040  0.00  0.00    +0.013 A 
ATOM     33  C   UNL     1       2.706  -0.152  23.159  0.00  0.00    +0.017 A 
BRANCH  33  34
ATOM      5  O   UNL     1       3.917   0.768  21.357  0.00  0.00    -0.292 OA
ATOM     34  C   UNL     1       3.914   0.365  22.537  0.00  0.00    +0.160 C 
ATOM     37  C   UNL     1       5.218   0.430  23.326  0.00  0.00    +0.091 C 
ENDBRANCH  33  34
ENDBRANCH   9  22
ENDBRANCH   3  18
ENDBRANCH  14   3
TORSDOF 7
ENDMDL
MODEL 4
REMARK VINA RESULT:      10.7      2.346      5.914
REMARK  Name = 11911662
REMARK  10 active torsions:
REMARK  status: ('A' for Active; 'I' for Inactive)
REMARK    1  A    between atoms: O_3  and  C_14
REMARK    2  A    between atoms: O_3  and  C_18
REMARK    3  A    between atoms: N_6  and  C_13
REMARK    4  A    between atoms: N_9  and  C_22
REMARK    5  A    between atoms: N_10  and  C_32
REMARK    6  A    between atoms: N_10  and  C_35
REMARK    7  A    between atoms: N_10  and  C_36
REMARK    8  A    between atoms: C_19  and  C_23
REMARK    9  A    between atoms: C_33  and  C_34
REMARK   10  A    between atoms: C_34  and  C_37
REMARK                            x       y       z     vdW  Elec       q    Type
REMARK                         _______ _______ _______ _____ _____    ______ ____
ROOT
ATOM      1  O   UNL     1      -2.960   1.387  24.504  0.00  0.00    -0.368 OA
ATOM      2  O   UNL     1      -5.316   2.645  26.013  0.00  0.00    -0.368 OA
ATOM     11  C   UNL     1      -5.229   1.462  25.191  0.00  0.00    +0.173 C 
ATOM     12  C   UNL     1      -4.269   1.782  24.062  0.00  0.00    +0.192 C 
ATOM     13  C   UNL     1      -4.540   0.354  25.953  0.00  0.00    +0.130 C 
ATOM     14  C   UNL     1      -4.390   3.283  23.946  0.00  0.00    +0.235 C 
ATOM     15  C   UNL     1      -3.072   0.686  25.753  0.00  0.00    +0.185 C 
ATOM     16  C   UNL     1      -4.572   3.700  25.387  0.00  0.00    +0.207 C 
ENDROOT
BRANCH  13   6
ATOM      6  N   UNL     1      -4.849  -0.931  25.360  0.00  0.00    -0.306 N 
ATOM      7  N   UNL     1      -2.688  -1.181  24.545  0.00  0.00    -0.214 NA
ATOM      8  N   UNL     1      -4.369  -2.867  24.172  0.00  0.00    -0.223 NA
ATOM     17  C   UNL     1      -3.928  -1.693  24.662  0.00  0.00    +0.216 A 
ATOM     19  C   UNL     1      -1.817  -1.950  23.860  0.00  0.00    +0.076 A 
ATOM     20  C   UNL     1      -3.446  -3.584  23.497  0.00  0.00    +0.116 A 
ATOM     21  C   UNL     1      -2.144  -3.172  23.308  0.00  0.00    +0.048 A 
ATOM     38  H   UNL     1      -5.769  -1.333  25.496  0.00  0.00    +0.149 HD
BRANCH  19  23
ATOM     23  C   UNL     1      -0.486  -1.405  23.734  0.00  0.00    +0.001 A 
ATOM     26  C   UNL     1       0.557  -1.930  24.497  0.00  0.00    +0.012 A 
ATOM     27  C   UNL     1      -0.244  -0.355  22.848  0.00  0.00    +0.012 A 
ATOM     30  C   UNL     1       1.843  -1.405  24.373  0.00  0.00    +0.024 A 
ATOM     31  C   UNL     1       1.042   0.170  22.725  0.00  0.00    +0.024 A 
ATOM     32  C   UNL     1       2.085  -0.355  23.487  0.00  0.00    +0.029 A 
BRANCH  32  10
ATOM     10  N   UNL     1       3.386   0.177  23.362  0.00  0.00    -0.336 N 
ATOM     35  C   UNL     1       4.537  -0.584  23.808  0.00  0.00    +0.129 C 
ATOM     36  C   UNL     1       3.590   1.486  22.774  0.00  0.00    +0.129 C 
ENDBRANCH  32  10
ENDBRANCH  19  23
ENDBRANCH  13   6
BRANCH  14   3
ATOM      3  O   UNL     1      -3.266   3.894  23.354  0.00  0.00    -0.442 OA
BRANCH   3  18
ATOM      4  O   UNL     1      -1.659   5.287  24.194  0.00  0.00    -0.226 OA
ATOM      9  N   UNL     1      -1.903   3.088  24.958  0.00  0.00    -0.251 N 
ATOM     18  C   UNL     1      -2.207   4.191  24.185  0.00  0.00    +0.405 C 
ATOM     39  H   UNL     1      -2.474   2.260  24.807  0.00  0.00    +0.158 HD
BRANCH   9  22
ATOM     22  C   UNL     1      -0.890   2.963  25.937  0.00  0.00    +0.036 A 
ATOM     24  C   UNL     1      -1.199   3.135  27.286  0.00  0.00    +0.024 A 
ATOM     25  C   UNL     1       0.417   2.664  25.553  0.00  0.00    +0.024 A 
ATOM     28  C   UNL     1      -0.201   3.009  28.251  0.00  0.00    +0.013 A 
ATOM     29  C   UNL     1       1.416   2.538  26.519  0.00  0.00    +0.013 A 
ATOM     33  C   UNL     1       1.107   2.711  27.868  0.00  0.00    +0.017 A 
BRANCH  33  34
ATOM      5  O   UNL     1       3.323   2.934  28.644  0.00  0.00    -0.292 OA
ATOM     34  C   UNL     1       2.149   2.581  28.874  0.00  0.00    +0.160 C 
ATOM     37  C   UNL     1       1.824   2.005  30.248  0.00  0.00    +0.091 C 
ENDBRANCH  33  34
ENDBRANCH   9  22
ENDBRANCH   3  18
ENDBRANCH  14   3
TORSDOF 7
ENDMDL
