MODEL 1
REMARK VINA RESULT:       0.8      0.000      0.000
REMARK  Name = 40533374
REMARK  5 active torsions:
REMARK  status: ('A' for Active; 'I' for Inactive)
REMARK    1  A    between atoms: N_4  and  C_12
REMARK    2  A    between atoms: N_5  and  C_13
REMARK    3  A    between atoms: N_8  and  C_20
REMARK    4  A    between atoms: C_18  and  C_19
REMARK    5  A    between atoms: C_20  and  C_22
REMARK                            x       y       z     vdW  Elec       q    Type
REMARK                         _______ _______ _______ _____ _____    ______ ____
ROOT
ATOM      1  O   UNL     1      -4.335   4.032  23.579  0.00  0.00    -0.370 OA
ATOM      2  O   UNL     1      -4.498   2.913  26.493  0.00  0.00    -0.370 OA
ATOM     10  C   UNL     1      -3.561   2.731  25.416  0.00  0.00    +0.175 C 
ATOM     11  C   UNL     1      -4.361   2.705  24.128  0.00  0.00    +0.171 C 
ATOM     12  C   UNL     1      -2.670   3.954  25.289  0.00  0.00    +0.166 C 
ATOM     13  C   UNL     1      -5.761   2.349  24.567  0.00  0.00    +0.131 C 
ATOM     14  C   UNL     1      -3.513   4.869  24.404  0.00  0.00    +0.190 C 
ATOM     15  C   UNL     1      -5.831   2.931  25.964  0.00  0.00    +0.185 C 
ENDROOT
BRANCH  13   5
ATOM      3  O   UNL     1      -3.773   0.338  23.876  0.00  0.00    -0.253 OA
ATOM      5  N   UNL     1      -5.902   0.874  24.635  0.00  0.00    -0.292 N 
ATOM      8  N   UNL     1      -5.282  -1.332  24.437  0.00  0.00    -0.295 N 
ATOM     17  C   UNL     1      -4.884  -0.008  24.279  0.00  0.00    +0.300 C 
ATOM     31  H   UNL     1      -6.760   0.491  25.020  0.00  0.00    +0.151 HD
ATOM     32  H   UNL     1      -6.212  -1.523  24.798  0.00  0.00    +0.151 HD
BRANCH   8  20
ATOM     20  C   UNL     1      -4.418  -2.451  24.140  0.00  0.00    +0.141 C 
BRANCH  20  22
ATOM     22  C   UNL     1      -3.022  -2.232  24.645  0.00  0.00    -0.030 A 
ATOM     24  C   UNL     1      -1.947  -2.867  24.022  0.00  0.00    +0.005 A 
ATOM     25  C   UNL     1      -2.797  -1.394  25.737  0.00  0.00    +0.005 A 
ATOM     28  C   UNL     1      -0.649  -2.664  24.491  0.00  0.00    +0.000 A 
ATOM     29  C   UNL     1      -1.500  -1.190  26.207  0.00  0.00    +0.000 A 
ATOM     30  C   UNL     1      -0.425  -1.826  25.584  0.00  0.00    +0.000 A 
ENDBRANCH  20  22
ENDBRANCH   8  20
ENDBRANCH  13   5
BRANCH  12   4
ATOM      4  N   UNL     1      -1.304   3.587  24.738  0.00  0.00    -0.243 N 
ATOM      6  N   UNL     1      -0.351   4.522  24.591  0.00  0.00    -0.065 NA
ATOM      7  N   UNL     1       0.722   3.916  24.096  0.00  0.00    -0.128 NA
ATOM     16  C   UNL     1      -0.870   2.360  24.342  0.00  0.00    +0.140 A 
ATOM     18  C   UNL     1       0.422   2.592  23.937  0.00  0.00    +0.131 A 
BRANCH  18  19
ATOM      9  N   UNL     1       2.619   1.981  23.356  0.00  0.00    -0.253 NA
ATOM     19  C   UNL     1       1.322   1.608  23.426  0.00  0.00    +0.092 A 
ATOM     21  C   UNL     1       0.850   0.364  23.040  0.00  0.00    +0.030 A 
ATOM     23  C   UNL     1       1.769  -0.556  22.549  0.00  0.00    +0.004 A 
ATOM     26  C   UNL     1       3.484   1.060  22.874  0.00  0.00    +0.111 A 
ATOM     27  C   UNL     1       3.113  -0.209  22.462  0.00  0.00    +0.020 A 
ENDBRANCH  18  19
ENDBRANCH  12   4
TORSDOF 5
ENDMDL
MODEL 2
REMARK VINA RESULT:       1.1      2.012      4.877
REMARK  Name = 40533374
REMARK  5 active torsions:
REMARK  status: ('A' for Active; 'I' for Inactive)
REMARK    1  A    between atoms: N_4  and  C_12
REMARK    2  A    between atoms: N_5  and  C_13
REMARK    3  A    between atoms: N_8  and  C_20
REMARK    4  A    between atoms: C_18  and  C_19
REMARK    5  A    between atoms: C_20  and  C_22
REMARK                            x       y       z     vdW  Elec       q    Type
REMARK                         _______ _______ _______ _____ _____    ______ ____
ROOT
ATOM      1  O   UNL     1      -2.290  -1.759  25.948  0.00  0.00    -0.370 OA
ATOM      2  O   UNL     1      -3.874  -1.505  23.266  0.00  0.00    -0.370 OA
ATOM     10  C   UNL     1      -2.715  -0.836  23.796  0.00  0.00    +0.175 C 
ATOM     11  C   UNL     1      -2.941  -0.664  25.286  0.00  0.00    +0.171 C 
ATOM     12  C   UNL     1      -1.501  -1.742  23.695  0.00  0.00    +0.166 C 
ATOM     13  C   UNL     1      -4.438  -0.771  25.450  0.00  0.00    +0.131 C 
ATOM     14  C   UNL     1      -1.613  -2.567  24.975  0.00  0.00    +0.190 C 
ATOM     15  C   UNL     1      -4.833  -1.695  24.315  0.00  0.00    +0.185 C 
ENDROOT
BRANCH  13   5
ATOM      3  O   UNL     1      -3.169   1.838  25.693  0.00  0.00    -0.253 OA
ATOM      5  N   UNL     1      -5.057   0.561  25.244  0.00  0.00    -0.292 N 
ATOM      8  N   UNL     1      -5.179   2.856  25.137  0.00  0.00    -0.295 N 
ATOM     17  C   UNL     1      -4.359   1.759  25.387  0.00  0.00    +0.300 C 
ATOM     31  H   UNL     1      -6.020   0.599  24.922  0.00  0.00    +0.151 HD
ATOM     32  H   UNL     1      -6.145   2.694  24.868  0.00  0.00    +0.151 HD
BRANCH   8  20
ATOM     20  C   UNL     1      -4.708   4.219  25.214  0.00  0.00    +0.141 C 
BRANCH  20  22
ATOM     22  C   UNL     1      -3.259   4.335  24.840  0.00  0.00    -0.030 A 
ATOM     24  C   UNL     1      -2.743   3.561  23.800  0.00  0.00    +0.005 A 
ATOM     25  C   UNL     1      -2.428   5.218  25.530  0.00  0.00    +0.005 A 
ATOM     28  C   UNL     1      -1.396   3.669  23.453  0.00  0.00    +0.000 A 
ATOM     29  C   UNL     1      -1.082   5.326  25.182  0.00  0.00    +0.000 A 
ATOM     30  C   UNL     1      -0.566   4.551  24.144  0.00  0.00    +0.000 A 
ENDBRANCH  20  22
ENDBRANCH   8  20
ENDBRANCH  13   5
BRANCH  12   4
ATOM      4  N   UNL     1      -0.222  -0.937  23.545  0.00  0.00    -0.243 N 
ATOM      6  N   UNL     1      -0.268   0.381  23.293  0.00  0.00    -0.065 NA
ATOM      7  N   UNL     1       0.987   0.810  23.215  0.00  0.00    -0.128 NA
ATOM     16  C   UNL     1       1.059  -1.388  23.636  0.00  0.00    +0.140 A 
ATOM     18  C   UNL     1       1.812  -0.260  23.422  0.00  0.00    +0.131 A 
BRANCH  18  19
ATOM      9  N   UNL     1       3.872  -1.318  23.837  0.00  0.00    -0.253 NA
ATOM     19  C   UNL     1       3.238  -0.202  23.416  0.00  0.00    +0.092 A 
ATOM     21  C   UNL     1       3.889   0.947  22.995  0.00  0.00    +0.030 A 
ATOM     23  C   UNL     1       5.278   0.951  23.010  0.00  0.00    +0.004 A 
ATOM     26  C   UNL     1       5.223  -1.279  23.838  0.00  0.00    +0.111 A 
ATOM     27  C   UNL     1       5.966  -0.180  23.438  0.00  0.00    +0.020 A 
ENDBRANCH  18  19
ENDBRANCH  12   4
TORSDOF 5
ENDMDL
MODEL 3
REMARK VINA RESULT:       2.7      1.899      6.109
REMARK  Name = 40533374
REMARK  5 active torsions:
REMARK  status: ('A' for Active; 'I' for Inactive)
REMARK    1  A    between atoms: N_4  and  C_12
REMARK    2  A    between atoms: N_5  and  C_13
REMARK    3  A    between atoms: N_8  and  C_20
REMARK    4  A    between atoms: C_18  and  C_19
REMARK    5  A    between atoms: C_20  and  C_22
REMARK                            x       y       z     vdW  Elec       q    Type
REMARK                         _______ _______ _______ _____ _____    ______ ____
ROOT
ATOM      1  O   UNL     1      -2.065   3.566  26.776  0.00  0.00    -0.370 OA
ATOM      2  O   UNL     1      -1.936   4.768  23.894  0.00  0.00    -0.370 OA
ATOM     10  C   UNL     1      -2.214   3.451  24.403  0.00  0.00    +0.175 C 
ATOM     11  C   UNL     1      -1.309   3.235  25.601  0.00  0.00    +0.171 C 
ATOM     12  C   UNL     1      -3.621   3.401  24.973  0.00  0.00    +0.166 C 
ATOM     13  C   UNL     1      -0.189   4.228  25.404  0.00  0.00    +0.131 C 
ATOM     14  C   UNL     1      -3.405   3.909  26.396  0.00  0.00    +0.190 C 
ATOM     15  C   UNL     1      -0.869   5.354  24.652  0.00  0.00    +0.185 C 
ENDROOT
BRANCH  13   5
ATOM      3  O   UNL     1      -0.021   1.482  24.454  0.00  0.00    -0.253 OA
ATOM      5  N   UNL     1       0.865   3.627  24.551  0.00  0.00    -0.292 N 
ATOM      8  N   UNL     1       1.959   1.993  23.357  0.00  0.00    -0.295 N 
ATOM     17  C   UNL     1       0.854   2.293  24.149  0.00  0.00    +0.300 C 
ATOM     31  H   UNL     1       1.596   4.233  24.191  0.00  0.00    +0.151 HD
ATOM     32  H   UNL     1       2.619   2.733  23.139  0.00  0.00    +0.151 HD
BRANCH   8  20
ATOM     20  C   UNL     1       2.193   0.679  22.805  0.00  0.00    +0.141 C 
BRANCH  20  22
ATOM     22  C   UNL     1       3.529   0.128  23.210  0.00  0.00    -0.030 A 
ATOM     24  C   UNL     1       3.641  -1.201  23.618  0.00  0.00    +0.005 A 
ATOM     25  C   UNL     1       4.660   0.945  23.178  0.00  0.00    +0.005 A 
ATOM     28  C   UNL     1       4.883  -1.713  23.994  0.00  0.00    +0.000 A 
ATOM     29  C   UNL     1       5.901   0.433  23.554  0.00  0.00    +0.000 A 
ATOM     30  C   UNL     1       6.013  -0.896  23.963  0.00  0.00    +0.000 A 
ENDBRANCH  20  22
ENDBRANCH   8  20
ENDBRANCH  13   5
BRANCH  12   4
ATOM      4  N   UNL     1      -4.214   2.008  24.858  0.00  0.00    -0.243 N 
ATOM      6  N   UNL     1      -5.535   1.812  24.995  0.00  0.00    -0.065 NA
ATOM      7  N   UNL     1      -5.758   0.511  24.846  0.00  0.00    -0.128 NA
ATOM     16  C   UNL     1      -3.555   0.842  24.618  0.00  0.00    +0.140 A 
ATOM     18  C   UNL     1      -4.557  -0.098  24.615  0.00  0.00    +0.131 A 
BRANCH  18  19
ATOM      9  N   UNL     1      -3.528  -2.117  25.249  0.00  0.00    -0.253 NA
ATOM     19  C   UNL     1      -4.381  -1.498  24.403  0.00  0.00    +0.092 A 
ATOM     21  C   UNL     1      -5.063  -2.142  23.382  0.00  0.00    +0.030 A 
ATOM     23  C   UNL     1      -4.856  -3.506  23.219  0.00  0.00    +0.004 A 
ATOM     26  C   UNL     1      -3.351  -3.444  25.061  0.00  0.00    +0.111 A 
ATOM     27  C   UNL     1      -3.985  -4.177  24.070  0.00  0.00    +0.020 A 
ENDBRANCH  18  19
ENDBRANCH  12   4
TORSDOF 5
ENDMDL
MODEL 4
REMARK VINA RESULT:       2.8      1.534      2.252
REMARK  Name = 40533374
REMARK  5 active torsions:
REMARK  status: ('A' for Active; 'I' for Inactive)
REMARK    1  A    between atoms: N_4  and  C_12
REMARK    2  A    between atoms: N_5  and  C_13
REMARK    3  A    between atoms: N_8  and  C_20
REMARK    4  A    between atoms: C_18  and  C_19
REMARK    5  A    between atoms: C_20  and  C_22
REMARK                            x       y       z     vdW  Elec       q    Type
REMARK                         _______ _______ _______ _____ _____    ______ ____
ROOT
ATOM      1  O   UNL     1      -2.087   4.823  23.927  0.00  0.00    -0.370 OA
ATOM      2  O   UNL     1      -2.556   3.724  26.815  0.00  0.00    -0.370 OA
ATOM     10  C   UNL     1      -2.064   3.130  25.600  0.00  0.00    +0.175 C 
ATOM     11  C   UNL     1      -2.856   3.732  24.455  0.00  0.00    +0.171 C 
ATOM     12  C   UNL     1      -0.633   3.572  25.348  0.00  0.00    +0.166 C 
ATOM     13  C   UNL     1      -4.116   4.249  25.107  0.00  0.00    +0.131 C 
ATOM     14  C   UNL     1      -0.834   4.899  24.621  0.00  0.00    +0.190 C 
ATOM     15  C   UNL     1      -3.648   4.600  26.506  0.00  0.00    +0.185 C 
ENDROOT
BRANCH  13   5
ATOM      3  O   UNL     1      -3.908   1.558  24.017  0.00  0.00    -0.253 OA
ATOM      5  N   UNL     1      -5.122   3.162  25.178  0.00  0.00    -0.292 N 
ATOM      8  N   UNL     1      -6.026   1.075  24.831  0.00  0.00    -0.295 N 
ATOM     17  C   UNL     1      -4.925   1.901  24.620  0.00  0.00    +0.300 C 
ATOM     31  H   UNL     1      -5.969   3.326  25.715  0.00  0.00    +0.151 HD
ATOM     32  H   UNL     1      -6.814   1.438  25.360  0.00  0.00    +0.151 HD
BRANCH   8  20
ATOM     20  C   UNL     1      -6.086  -0.287  24.357  0.00  0.00    +0.141 C 
BRANCH  20  22
ATOM     22  C   UNL     1      -4.798  -1.021  24.590  0.00  0.00    -0.030 A 
ATOM     24  C   UNL     1      -4.414  -2.049  23.728  0.00  0.00    +0.005 A 
ATOM     25  C   UNL     1      -3.983  -0.674  25.668  0.00  0.00    +0.005 A 
ATOM     28  C   UNL     1      -3.217  -2.731  23.946  0.00  0.00    +0.000 A 
ATOM     29  C   UNL     1      -2.785  -1.356  25.885  0.00  0.00    +0.000 A 
ATOM     30  C   UNL     1      -2.402  -2.385  25.024  0.00  0.00    +0.000 A 
ENDBRANCH  20  22
ENDBRANCH   8  20
ENDBRANCH  13   5
BRANCH  12   4
ATOM      4  N   UNL     1       0.144   2.517  24.581  0.00  0.00    -0.243 N 
ATOM      6  N   UNL     1      -0.470   1.734  23.680  0.00  0.00    -0.065 NA
ATOM      7  N   UNL     1       0.450   0.918  23.176  0.00  0.00    -0.128 NA
ATOM     16  C   UNL     1       1.470   2.226  24.680  0.00  0.00    +0.140 A 
ATOM     18  C   UNL     1       1.643   1.206  23.777  0.00  0.00    +0.131 A 
BRANCH  18  19
ATOM      9  N   UNL     1       3.886   1.331  23.077  0.00  0.00    -0.253 NA
ATOM     19  C   UNL     1       2.875   0.540  23.501  0.00  0.00    +0.092 A 
ATOM     21  C   UNL     1       2.983  -0.831  23.671  0.00  0.00    +0.030 A 
ATOM     23  C   UNL     1       4.205  -1.428  23.387  0.00  0.00    +0.004 A 
ATOM     26  C   UNL     1       5.060   0.716  22.811  0.00  0.00    +0.111 A 
ATOM     27  C   UNL     1       5.268  -0.647  22.948  0.00  0.00    +0.020 A 
ENDBRANCH  18  19
ENDBRANCH  12   4
TORSDOF 5
ENDMDL
