MODEL 1
REMARK VINA RESULT:       2.6      0.000      0.000
REMARK  Name = 45783433
REMARK  11 active torsions:
REMARK  status: ('A' for Active; 'I' for Inactive)
REMARK    1  A    between atoms: S_1  and  C_23
REMARK    2  A    between atoms: S_1  and  C_27
REMARK    3  A    between atoms: O_5  and  C_25
REMARK    4  A    between atoms: O_5  and  C_30
REMARK    5  A    between atoms: O_6  and  C_31
REMARK    6  A    between atoms: O_6  and  C_32
REMARK    7  A    between atoms: N_7  and  C_15
REMARK    8  A    between atoms: C_11  and  C_16
REMARK    9  A    between atoms: C_15  and  C_17
REMARK   10  A    between atoms: C_20  and  C_24
REMARK   11  A    between atoms: C_30  and  C_31
REMARK                            x       y       z     vdW  Elec       q    Type
REMARK                         _______ _______ _______ _____ _____    ______ ____
ROOT
ATOM      7  N   UNL     1      -3.450   3.750  24.992  0.00  0.00    -0.287 NA
ATOM     11  C   UNL     1      -2.186   4.402  24.597  0.00  0.00    +0.146 C 
ATOM     12  C   UNL     1      -2.024   5.572  25.585  0.00  0.00    +0.030 C 
ATOM     13  C   UNL     1      -3.273   5.536  26.454  0.00  0.00    +0.017 C 
ATOM     14  C   UNL     1      -4.279   4.792  25.599  0.00  0.00    +0.085 C 
ENDROOT
BRANCH  11  16
ATOM      2  O   UNL     1      -0.538   3.098  25.847  0.00  0.00    -0.336 OA
ATOM      8  N   UNL     1      -0.361   2.904  23.623  0.00  0.00    -0.190 NA
ATOM      9  N   UNL     1       0.534   2.227  25.616  0.00  0.00    -0.056 NA
ATOM     16  C   UNL     1      -1.008   3.450  24.621  0.00  0.00    +0.245 A 
ATOM     20  C   UNL     1       0.576   2.163  24.282  0.00  0.00    +0.207 A 
BRANCH  20  24
ATOM     10  N   UNL     1       2.147  -0.723  22.524  0.00  0.00    -0.221 NA
ATOM     24  C   UNL     1       1.538   1.366  23.578  0.00  0.00    +0.084 A 
ATOM     25  C   UNL     1       1.271   0.063  23.190  0.00  0.00    +0.226 A 
ATOM     26  C   UNL     1       2.784   1.896  23.263  0.00  0.00    +0.018 A 
ATOM     28  C   UNL     1       3.713   1.119  22.579  0.00  0.00    +0.021 A 
ATOM     29  C   UNL     1       3.348  -0.173  22.235  0.00  0.00    +0.114 A 
BRANCH  25   5
ATOM      5  O   UNL     1       0.056  -0.505  23.477  0.00  0.00    -0.474 OA
BRANCH   5  30
ATOM     30  C   UNL     1       0.079  -1.806  24.048  0.00  0.00    +0.258 C 
BRANCH  30  31
ATOM     31  C   UNL     1      -0.284  -1.708  25.517  0.00  0.00    +0.200 C 
BRANCH  31   6
ATOM      6  O   UNL     1      -1.007  -0.504  25.737  0.00  0.00    -0.380 OA
ATOM     32  C   UNL     1      -1.795  -0.576  26.918  0.00  0.00    +0.194 C 
ENDBRANCH  31   6
ENDBRANCH  30  31
ENDBRANCH   5  30
ENDBRANCH  25   5
ENDBRANCH  20  24
ENDBRANCH  11  16
BRANCH   7  15
ATOM     15  C   UNL     1      -4.125   3.090  23.882  0.00  0.00    +0.120 C 
BRANCH  15  17
ATOM     17  C   UNL     1      -4.040   1.590  23.987  0.00  0.00    -0.033 A 
ATOM     18  C   UNL     1      -3.259   0.871  23.081  0.00  0.00    +0.007 A 
ATOM     19  C   UNL     1      -4.740   0.919  24.990  0.00  0.00    +0.007 A 
ATOM     21  C   UNL     1      -3.179  -0.518  23.178  0.00  0.00    +0.027 A 
ATOM     22  C   UNL     1      -4.659  -0.470  25.086  0.00  0.00    +0.027 A 
ATOM     23  C   UNL     1      -3.879  -1.188  24.181  0.00  0.00    +0.088 A 
BRANCH  23   1
ATOM      1  S   UNL     1      -3.776  -2.927  24.304  0.00  0.00    -0.006 S 
ATOM      3  O   UNL     1      -3.515  -3.287  25.690  0.00  0.00    -0.170 OA
ATOM      4  O   UNL     1      -4.926  -3.494  23.614  0.00  0.00    -0.170 OA
ATOM     27  C   UNL     1      -2.319  -3.349  23.374  0.00  0.00    +0.200 C 
ENDBRANCH  23   1
ENDBRANCH  15  17
ENDBRANCH   7  15
TORSDOF 9
ENDMDL
MODEL 2
REMARK VINA RESULT:       3.4      2.582      5.590
REMARK  Name = 45783433
REMARK  11 active torsions:
REMARK  status: ('A' for Active; 'I' for Inactive)
REMARK    1  A    between atoms: S_1  and  C_23
REMARK    2  A    between atoms: S_1  and  C_27
REMARK    3  A    between atoms: O_5  and  C_25
REMARK    4  A    between atoms: O_5  and  C_30
REMARK    5  A    between atoms: O_6  and  C_31
REMARK    6  A    between atoms: O_6  and  C_32
REMARK    7  A    between atoms: N_7  and  C_15
REMARK    8  A    between atoms: C_11  and  C_16
REMARK    9  A    between atoms: C_15  and  C_17
REMARK   10  A    between atoms: C_20  and  C_24
REMARK   11  A    between atoms: C_30  and  C_31
REMARK                            x       y       z     vdW  Elec       q    Type
REMARK                         _______ _______ _______ _____ _____    ______ ____
ROOT
ATOM      7  N   UNL     1      -3.397  -2.010  23.974  0.00  0.00    -0.287 NA
ATOM     11  C   UNL     1      -2.505  -2.042  25.150  0.00  0.00    +0.146 C 
ATOM     12  C   UNL     1      -1.487  -3.155  24.839  0.00  0.00    +0.030 C 
ATOM     13  C   UNL     1      -1.923  -3.730  23.499  0.00  0.00    +0.017 C 
ATOM     14  C   UNL     1      -3.391  -3.361  23.414  0.00  0.00    +0.085 C 
ENDROOT
BRANCH  11  16
ATOM      2  O   UNL     1      -1.171  -0.586  26.592  0.00  0.00    -0.336 OA
ATOM      8  N   UNL     1      -1.826   0.374  24.678  0.00  0.00    -0.190 NA
ATOM      9  N   UNL     1      -0.658   0.717  26.614  0.00  0.00    -0.056 NA
ATOM     16  C   UNL     1      -1.846  -0.705  25.418  0.00  0.00    +0.245 A 
ATOM     20  C   UNL     1      -1.087   1.219  25.453  0.00  0.00    +0.207 A 
BRANCH  20  24
ATOM     10  N   UNL     1       0.294   4.074  23.495  0.00  0.00    -0.221 NA
ATOM     24  C   UNL     1      -0.791   2.559  25.036  0.00  0.00    +0.084 A 
ATOM     25  C   UNL     1      -0.009   2.828  23.924  0.00  0.00    +0.226 A 
ATOM     26  C   UNL     1      -1.295   3.639  25.753  0.00  0.00    +0.018 A 
ATOM     28  C   UNL     1      -1.005   4.936  25.344  0.00  0.00    +0.021 A 
ATOM     29  C   UNL     1      -0.214   5.098  24.217  0.00  0.00    +0.114 A 
BRANCH  25   5
ATOM      5  O   UNL     1       0.510   1.797  23.183  0.00  0.00    -0.474 OA
BRANCH   5  30
ATOM     30  C   UNL     1       1.732   1.234  23.642  0.00  0.00    +0.258 C 
BRANCH  30  31
ATOM     31  C   UNL     1       2.162   0.139  22.684  0.00  0.00    +0.200 C 
BRANCH  31   6
ATOM      6  O   UNL     1       3.402   0.502  22.090  0.00  0.00    -0.380 OA
ATOM     32  C   UNL     1       4.434   0.605  23.061  0.00  0.00    +0.194 C 
ENDBRANCH  31   6
ENDBRANCH  30  31
ENDBRANCH   5  30
ENDBRANCH  25   5
ENDBRANCH  20  24
ENDBRANCH  11  16
BRANCH   7  15
ATOM     15  C   UNL     1      -4.744  -1.552  24.288  0.00  0.00    +0.120 C 
BRANCH  15  17
ATOM     17  C   UNL     1      -4.781  -0.074  24.576  0.00  0.00    -0.033 A 
ATOM     18  C   UNL     1      -4.258   0.830  23.651  0.00  0.00    +0.007 A 
ATOM     19  C   UNL     1      -5.338   0.391  25.768  0.00  0.00    +0.007 A 
ATOM     21  C   UNL     1      -4.293   2.198  23.918  0.00  0.00    +0.027 A 
ATOM     22  C   UNL     1      -5.372   1.759  26.033  0.00  0.00    +0.027 A 
ATOM     23  C   UNL     1      -4.850   2.663  25.109  0.00  0.00    +0.088 A 
BRANCH  23   1
ATOM      1  S   UNL     1      -4.896   4.377  25.440  0.00  0.00    -0.006 S 
ATOM      3  O   UNL     1      -6.285   4.801  25.539  0.00  0.00    -0.170 OA
ATOM      4  O   UNL     1      -3.978   4.646  26.539  0.00  0.00    -0.170 OA
ATOM     27  C   UNL     1      -4.227   5.128  23.973  0.00  0.00    +0.200 C 
ENDBRANCH  23   1
ENDBRANCH  15  17
ENDBRANCH   7  15
TORSDOF 9
ENDMDL
MODEL 3
REMARK VINA RESULT:       3.6      1.534      2.943
REMARK  Name = 45783433
REMARK  11 active torsions:
REMARK  status: ('A' for Active; 'I' for Inactive)
REMARK    1  A    between atoms: S_1  and  C_23
REMARK    2  A    between atoms: S_1  and  C_27
REMARK    3  A    between atoms: O_5  and  C_25
REMARK    4  A    between atoms: O_5  and  C_30
REMARK    5  A    between atoms: O_6  and  C_31
REMARK    6  A    between atoms: O_6  and  C_32
REMARK    7  A    between atoms: N_7  and  C_15
REMARK    8  A    between atoms: C_11  and  C_16
REMARK    9  A    between atoms: C_15  and  C_17
REMARK   10  A    between atoms: C_20  and  C_24
REMARK   11  A    between atoms: C_30  and  C_31
REMARK                            x       y       z     vdW  Elec       q    Type
REMARK                         _______ _______ _______ _____ _____    ______ ____
ROOT
ATOM      7  N   UNL     1      -3.971   3.841  25.422  0.00  0.00    -0.287 NA
ATOM     11  C   UNL     1      -2.795   4.266  24.637  0.00  0.00    +0.146 C 
ATOM     12  C   UNL     1      -2.320   5.564  25.316  0.00  0.00    +0.030 C 
ATOM     13  C   UNL     1      -3.323   5.821  26.431  0.00  0.00    +0.017 C 
ATOM     14  C   UNL     1      -4.555   5.060  25.984  0.00  0.00    +0.085 C 
ENDROOT
BRANCH  11  16
ATOM      2  O   UNL     1      -0.473   3.622  24.230  0.00  0.00    -0.336 OA
ATOM      8  N   UNL     1      -1.801   1.922  24.831  0.00  0.00    -0.190 NA
ATOM      9  N   UNL     1       0.339   2.481  24.250  0.00  0.00    -0.056 NA
ATOM     16  C   UNL     1      -1.716   3.204  24.584  0.00  0.00    +0.245 A 
ATOM     20  C   UNL     1      -0.515   1.520  24.612  0.00  0.00    +0.207 A 
BRANCH  20  24
ATOM     10  N   UNL     1       1.190  -1.739  24.017  0.00  0.00    -0.221 NA
ATOM     24  C   UNL     1      -0.117   0.151  24.767  0.00  0.00    +0.084 A 
ATOM     25  C   UNL     1       0.786  -0.454  23.908  0.00  0.00    +0.226 A 
ATOM     26  C   UNL     1      -0.639  -0.613  25.805  0.00  0.00    +0.018 A 
ATOM     28  C   UNL     1      -0.248  -1.939  25.951  0.00  0.00    +0.021 A 
ATOM     29  C   UNL     1       0.662  -2.450  25.038  0.00  0.00    +0.114 A 
BRANCH  25   5
ATOM      5  O   UNL     1       1.329   0.258  22.869  0.00  0.00    -0.474 OA
BRANCH   5  30
ATOM     30  C   UNL     1       2.607  -0.160  22.407  0.00  0.00    +0.258 C 
BRANCH  30  31
ATOM     31  C   UNL     1       3.637   0.886  22.789  0.00  0.00    +0.200 C 
BRANCH  31   6
ATOM      6  O   UNL     1       4.932   0.300  22.744  0.00  0.00    -0.380 OA
ATOM     32  C   UNL     1       5.449   0.079  24.049  0.00  0.00    +0.194 C 
ENDBRANCH  31   6
ENDBRANCH  30  31
ENDBRANCH   5  30
ENDBRANCH  25   5
ENDBRANCH  20  24
ENDBRANCH  11  16
BRANCH   7  15
ATOM     15  C   UNL     1      -4.937   3.080  24.642  0.00  0.00    +0.120 C 
BRANCH  15  17
ATOM     17  C   UNL     1      -4.564   1.623  24.554  0.00  0.00    -0.033 A 
ATOM     18  C   UNL     1      -4.064   1.102  23.360  0.00  0.00    +0.007 A 
ATOM     19  C   UNL     1      -4.718   0.796  25.666  0.00  0.00    +0.007 A 
ATOM     21  C   UNL     1      -3.718  -0.246  23.279  0.00  0.00    +0.027 A 
ATOM     22  C   UNL     1      -4.372  -0.553  25.584  0.00  0.00    +0.027 A 
ATOM     23  C   UNL     1      -3.872  -1.074  24.392  0.00  0.00    +0.088 A 
BRANCH  23   1
ATOM      1  S   UNL     1      -3.436  -2.761  24.290  0.00  0.00    -0.006 S 
ATOM      3  O   UNL     1      -2.191  -2.883  23.544  0.00  0.00    -0.170 OA
ATOM      4  O   UNL     1      -3.535  -3.332  25.626  0.00  0.00    -0.170 OA
ATOM     27  C   UNL     1      -4.714  -3.489  23.289  0.00  0.00    +0.200 C 
ENDBRANCH  23   1
ENDBRANCH  15  17
ENDBRANCH   7  15
TORSDOF 9
ENDMDL
MODEL 4
REMARK VINA RESULT:       3.7      2.526      5.293
REMARK  Name = 45783433
REMARK  11 active torsions:
REMARK  status: ('A' for Active; 'I' for Inactive)
REMARK    1  A    between atoms: S_1  and  C_23
REMARK    2  A    between atoms: S_1  and  C_27
REMARK    3  A    between atoms: O_5  and  C_25
REMARK    4  A    between atoms: O_5  and  C_30
REMARK    5  A    between atoms: O_6  and  C_31
REMARK    6  A    between atoms: O_6  and  C_32
REMARK    7  A    between atoms: N_7  and  C_15
REMARK    8  A    between atoms: C_11  and  C_16
REMARK    9  A    between atoms: C_15  and  C_17
REMARK   10  A    between atoms: C_20  and  C_24
REMARK   11  A    between atoms: C_30  and  C_31
REMARK                            x       y       z     vdW  Elec       q    Type
REMARK                         _______ _______ _______ _____ _____    ______ ____
ROOT
ATOM      7  N   UNL     1      -2.817   4.125  24.729  0.00  0.00    -0.287 NA
ATOM     11  C   UNL     1      -4.095   3.796  25.391  0.00  0.00    +0.146 C 
ATOM     12  C   UNL     1      -5.109   4.795  24.803  0.00  0.00    +0.030 C 
ATOM     13  C   UNL     1      -4.298   5.681  23.869  0.00  0.00    +0.017 C 
ATOM     14  C   UNL     1      -2.882   5.547  24.391  0.00  0.00    +0.085 C 
ENDROOT
BRANCH  11  16
ATOM      2  O   UNL     1      -5.840   2.101  25.154  0.00  0.00    -0.336 OA
ATOM      8  N   UNL     1      -3.756   1.293  25.016  0.00  0.00    -0.190 NA
ATOM      9  N   UNL     1      -5.969   0.721  24.951  0.00  0.00    -0.056 NA
ATOM     16  C   UNL     1      -4.505   2.353  25.180  0.00  0.00    +0.245 A 
ATOM     20  C   UNL     1      -4.698   0.316  24.881  0.00  0.00    +0.207 A 
BRANCH  20  24
ATOM     10  N   UNL     1      -3.275  -3.078  25.468  0.00  0.00    -0.221 NA
ATOM     24  C   UNL     1      -4.336  -1.057  24.672  0.00  0.00    +0.084 A 
ATOM     25  C   UNL     1      -3.636  -1.784  25.621  0.00  0.00    +0.226 A 
ATOM     26  C   UNL     1      -4.689  -1.699  23.491  0.00  0.00    +0.018 A 
ATOM     28  C   UNL     1      -4.336  -3.029  23.295  0.00  0.00    +0.021 A 
ATOM     29  C   UNL     1      -3.636  -3.669  24.306  0.00  0.00    +0.114 A 
BRANCH  25   5
ATOM      5  O   UNL     1      -3.265  -1.196  26.803  0.00  0.00    -0.474 OA
BRANCH   5  30
ATOM     30  C   UNL     1      -1.885  -1.255  27.141  0.00  0.00    +0.258 C 
BRANCH  30  31
ATOM     31  C   UNL     1      -1.080  -0.575  26.050  0.00  0.00    +0.200 C 
BRANCH  31   6
ATOM      6  O   UNL     1      -0.240  -1.537  25.425  0.00  0.00    -0.380 OA
ATOM     32  C   UNL     1      -0.710  -1.876  24.128  0.00  0.00    +0.194 C 
ENDBRANCH  31   6
ENDBRANCH  30  31
ENDBRANCH   5  30
ENDBRANCH  25   5
ENDBRANCH  20  24
ENDBRANCH  11  16
BRANCH   7  15
ATOM     15  C   UNL     1      -1.651   3.808  25.543  0.00  0.00    +0.120 C 
BRANCH  15  17
ATOM     17  C   UNL     1      -0.714   2.863  24.836  0.00  0.00    -0.033 A 
ATOM     18  C   UNL     1      -1.111   2.247  23.649  0.00  0.00    +0.007 A 
ATOM     19  C   UNL     1       0.549   2.604  25.369  0.00  0.00    +0.007 A 
ATOM     21  C   UNL     1      -0.244   1.373  22.994  0.00  0.00    +0.027 A 
ATOM     22  C   UNL     1       1.415   1.730  24.714  0.00  0.00    +0.027 A 
ATOM     23  C   UNL     1       1.019   1.114  23.527  0.00  0.00    +0.088 A 
BRANCH  23   1
ATOM      1  S   UNL     1       2.105   0.021  22.705  0.00  0.00    -0.006 S 
ATOM      3  O   UNL     1       2.420  -1.088  23.594  0.00  0.00    -0.170 OA
ATOM      4  O   UNL     1       1.557  -0.246  21.382  0.00  0.00    -0.170 OA
ATOM     27  C   UNL     1       3.602   0.960  22.497  0.00  0.00    +0.200 C 
ENDBRANCH  23   1
ENDBRANCH  15  17
ENDBRANCH   7  15
TORSDOF 9
ENDMDL
MODEL 5
REMARK VINA RESULT:       3.7      2.594      5.003
REMARK  Name = 45783433
REMARK  11 active torsions:
REMARK  status: ('A' for Active; 'I' for Inactive)
REMARK    1  A    between atoms: S_1  and  C_23
REMARK    2  A    between atoms: S_1  and  C_27
REMARK    3  A    between atoms: O_5  and  C_25
REMARK    4  A    between atoms: O_5  and  C_30
REMARK    5  A    between atoms: O_6  and  C_31
REMARK    6  A    between atoms: O_6  and  C_32
REMARK    7  A    between atoms: N_7  and  C_15
REMARK    8  A    between atoms: C_11  and  C_16
REMARK    9  A    between atoms: C_15  and  C_17
REMARK   10  A    between atoms: C_20  and  C_24
REMARK   11  A    between atoms: C_30  and  C_31
REMARK                            x       y       z     vdW  Elec       q    Type
REMARK                         _______ _______ _______ _____ _____    ______ ____
ROOT
ATOM      7  N   UNL     1      -2.971  -2.127  24.038  0.00  0.00    -0.287 NA
ATOM     11  C   UNL     1      -2.019  -1.316  24.823  0.00  0.00    +0.146 C 
ATOM     12  C   UNL     1      -1.776  -2.132  26.106  0.00  0.00    +0.030 C 
ATOM     13  C   UNL     1      -2.677  -3.351  25.980  0.00  0.00    +0.017 C 
ATOM     14  C   UNL     1      -3.747  -2.904  25.005  0.00  0.00    +0.085 C 
ENDROOT
BRANCH  11  16
ATOM      2  O   UNL     1      -0.836  -0.980  22.711  0.00  0.00    -0.336 OA
ATOM      8  N   UNL     1       0.464  -0.801  24.525  0.00  0.00    -0.190 NA
ATOM      9  N   UNL     1       0.453  -0.698  22.240  0.00  0.00    -0.056 NA
ATOM     16  C   UNL     1      -0.741  -1.023  24.065  0.00  0.00    +0.245 A 
ATOM     20  C   UNL     1       1.162  -0.608  23.368  0.00  0.00    +0.207 A 
BRANCH  20  24
ATOM     10  N   UNL     1       4.371   1.286  23.299  0.00  0.00    -0.221 NA
ATOM     24  C   UNL     1       2.568  -0.323  23.375  0.00  0.00    +0.084 A 
ATOM     25  C   UNL     1       3.056   0.971  23.295  0.00  0.00    +0.226 A 
ATOM     26  C   UNL     1       3.488  -1.361  23.465  0.00  0.00    +0.018 A 
ATOM     28  C   UNL     1       4.850  -1.078  23.472  0.00  0.00    +0.021 A 
ATOM     29  C   UNL     1       5.236   0.250  23.388  0.00  0.00    +0.114 A 
BRANCH  25   5
ATOM      5  O   UNL     1       2.188   2.029  23.206  0.00  0.00    -0.474 OA
BRANCH   5  30
ATOM     30  C   UNL     1       1.254   2.180  24.267  0.00  0.00    +0.258 C 
BRANCH  30  31
ATOM     31  C   UNL     1       0.068   2.986  23.770  0.00  0.00    +0.200 C 
BRANCH  31   6
ATOM      6  O   UNL     1      -0.688   3.435  24.888  0.00  0.00    -0.380 OA
ATOM     32  C   UNL     1      -0.573   2.543  25.988  0.00  0.00    +0.194 C 
ENDBRANCH  31   6
ENDBRANCH  30  31
ENDBRANCH   5  30
ENDBRANCH  25   5
ENDBRANCH  20  24
ENDBRANCH  11  16
BRANCH   7  15
ATOM     15  C   UNL     1      -3.822  -1.329  23.166  0.00  0.00    +0.120 C 
BRANCH  15  17
ATOM     17  C   UNL     1      -4.011   0.069  23.694  0.00  0.00    -0.033 A 
ATOM     18  C   UNL     1      -3.381   1.143  23.065  0.00  0.00    +0.007 A 
ATOM     19  C   UNL     1      -4.817   0.289  24.811  0.00  0.00    +0.007 A 
ATOM     21  C   UNL     1      -3.557   2.437  23.554  0.00  0.00    +0.027 A 
ATOM     22  C   UNL     1      -4.992   1.584  25.299  0.00  0.00    +0.027 A 
ATOM     23  C   UNL     1      -4.363   2.658  24.671  0.00  0.00    +0.088 A 
BRANCH  23   1
ATOM      1  S   UNL     1      -4.585   4.279  25.280  0.00  0.00    -0.006 S 
ATOM      3  O   UNL     1      -4.055   5.225  24.309  0.00  0.00    -0.170 OA
ATOM      4  O   UNL     1      -5.963   4.403  25.732  0.00  0.00    -0.170 OA
ATOM     27  C   UNL     1      -3.531   4.361  26.711  0.00  0.00    +0.200 C 
ENDBRANCH  23   1
ENDBRANCH  15  17
ENDBRANCH   7  15
TORSDOF 9
ENDMDL
MODEL 6
REMARK VINA RESULT:       4.1      2.708      5.297
REMARK  Name = 45783433
REMARK  11 active torsions:
REMARK  status: ('A' for Active; 'I' for Inactive)
REMARK    1  A    between atoms: S_1  and  C_23
REMARK    2  A    between atoms: S_1  and  C_27
REMARK    3  A    between atoms: O_5  and  C_25
REMARK    4  A    between atoms: O_5  and  C_30
REMARK    5  A    between atoms: O_6  and  C_31
REMARK    6  A    between atoms: O_6  and  C_32
REMARK    7  A    between atoms: N_7  and  C_15
REMARK    8  A    between atoms: C_11  and  C_16
REMARK    9  A    between atoms: C_15  and  C_17
REMARK   10  A    between atoms: C_20  and  C_24
REMARK   11  A    between atoms: C_30  and  C_31
REMARK                            x       y       z     vdW  Elec       q    Type
REMARK                         _______ _______ _______ _____ _____    ______ ____
ROOT
ATOM      7  N   UNL     1      -4.556  -1.489  23.984  0.00  0.00    -0.287 NA
ATOM     11  C   UNL     1      -3.619  -2.143  24.918  0.00  0.00    +0.146 C 
ATOM     12  C   UNL     1      -3.476  -3.581  24.385  0.00  0.00    +0.030 C 
ATOM     13  C   UNL     1      -4.415  -3.658  23.190  0.00  0.00    +0.017 C 
ATOM     14  C   UNL     1      -5.413  -2.548  23.449  0.00  0.00    +0.085 C 
ENDROOT
BRANCH  11  16
ATOM      2  O   UNL     1      -1.837  -1.147  26.263  0.00  0.00    -0.336 OA
ATOM      8  N   UNL     1      -1.500  -1.009  24.054  0.00  0.00    -0.190 NA
ATOM      9  N   UNL     1      -0.614  -0.485  26.096  0.00  0.00    -0.056 NA
ATOM     16  C   UNL     1      -2.291  -1.420  25.012  0.00  0.00    +0.245 A 
ATOM     20  C   UNL     1      -0.485  -0.442  24.768  0.00  0.00    +0.207 A 
BRANCH  20  24
ATOM     10  N   UNL     1       1.990   2.115  23.661  0.00  0.00    -0.221 NA
ATOM     24  C   UNL     1       0.647   0.159  24.122  0.00  0.00    +0.084 A 
ATOM     25  C   UNL     1       0.935   1.508  24.250  0.00  0.00    +0.226 A 
ATOM     26  C   UNL     1       1.494  -0.617  23.339  0.00  0.00    +0.018 A 
ATOM     28  C   UNL     1       2.590  -0.029  22.717  0.00  0.00    +0.021 A 
ATOM     29  C   UNL     1       2.792   1.329  22.908  0.00  0.00    +0.114 A 
BRANCH  25   5
ATOM      5  O   UNL     1       0.129   2.315  25.011  0.00  0.00    -0.474 OA
BRANCH   5  30
ATOM     30  C   UNL     1       0.770   3.092  26.015  0.00  0.00    +0.258 C 
BRANCH  30  31
ATOM     31  C   UNL     1       0.642   2.381  27.348  0.00  0.00    +0.200 C 
BRANCH  31   6
ATOM      6  O   UNL     1       1.754   2.723  28.165  0.00  0.00    -0.380 OA
ATOM     32  C   UNL     1       1.522   2.393  29.528  0.00  0.00    +0.194 C 
ENDBRANCH  31   6
ENDBRANCH  30  31
ENDBRANCH   5  30
ENDBRANCH  25   5
ENDBRANCH  20  24
ENDBRANCH  11  16
BRANCH   7  15
ATOM     15  C   UNL     1      -5.328  -0.419  24.602  0.00  0.00    +0.120 C 
BRANCH  15  17
ATOM     17  C   UNL     1      -4.591   0.894  24.572  0.00  0.00    -0.033 A 
ATOM     18  C   UNL     1      -3.611   1.121  23.604  0.00  0.00    +0.007 A 
ATOM     19  C   UNL     1      -4.886   1.882  25.511  0.00  0.00    +0.007 A 
ATOM     21  C   UNL     1      -2.929   2.337  23.576  0.00  0.00    +0.027 A 
ATOM     22  C   UNL     1      -4.203   3.098  25.481  0.00  0.00    +0.027 A 
ATOM     23  C   UNL     1      -3.225   3.325  24.514  0.00  0.00    +0.088 A 
BRANCH  23   1
ATOM      1  S   UNL     1      -2.371   4.848  24.476  0.00  0.00    -0.006 S 
ATOM      3  O   UNL     1      -3.148   5.805  23.699  0.00  0.00    -0.170 OA
ATOM      4  O   UNL     1      -1.977   5.176  25.839  0.00  0.00    -0.170 OA
ATOM     27  C   UNL     1      -0.894   4.503  23.547  0.00  0.00    +0.200 C 
ENDBRANCH  23   1
ENDBRANCH  15  17
ENDBRANCH   7  15
TORSDOF 9
ENDMDL
MODEL 7
REMARK VINA RESULT:       4.4      1.552      2.691
REMARK  Name = 45783433
REMARK  11 active torsions:
REMARK  status: ('A' for Active; 'I' for Inactive)
REMARK    1  A    between atoms: S_1  and  C_23
REMARK    2  A    between atoms: S_1  and  C_27
REMARK    3  A    between atoms: O_5  and  C_25
REMARK    4  A    between atoms: O_5  and  C_30
REMARK    5  A    between atoms: O_6  and  C_31
REMARK    6  A    between atoms: O_6  and  C_32
REMARK    7  A    between atoms: N_7  and  C_15
REMARK    8  A    between atoms: C_11  and  C_16
REMARK    9  A    between atoms: C_15  and  C_17
REMARK   10  A    between atoms: C_20  and  C_24
REMARK   11  A    between atoms: C_30  and  C_31
REMARK                            x       y       z     vdW  Elec       q    Type
REMARK                         _______ _______ _______ _____ _____    ______ ____
ROOT
ATOM      7  N   UNL     1      -3.395   3.734  25.360  0.00  0.00    -0.287 NA
ATOM     11  C   UNL     1      -2.246   4.231  24.578  0.00  0.00    +0.146 C 
ATOM     12  C   UNL     1      -1.747   5.463  25.355  0.00  0.00    +0.030 C 
ATOM     13  C   UNL     1      -2.713   5.617  26.520  0.00  0.00    +0.017 C 
ATOM     14  C   UNL     1      -3.959   4.896  26.047  0.00  0.00    +0.085 C 
ENDROOT
BRANCH  11  16
ATOM      2  O   UNL     1      -0.305   3.012  25.429  0.00  0.00    -0.336 OA
ATOM      8  N   UNL     1      -0.942   2.396  23.372  0.00  0.00    -0.190 NA
ATOM      9  N   UNL     1       0.584   2.005  25.031  0.00  0.00    -0.056 NA
ATOM     16  C   UNL     1      -1.170   3.180  24.394  0.00  0.00    +0.245 A 
ATOM     20  C   UNL     1       0.144   1.693  23.809  0.00  0.00    +0.207 A 
BRANCH  20  24
ATOM     10  N   UNL     1       2.760  -0.286  22.042  0.00  0.00    -0.221 NA
ATOM     24  C   UNL     1       0.764   0.684  22.999  0.00  0.00    +0.084 A 
ATOM     25  C   UNL     1       2.134   0.645  22.795  0.00  0.00    +0.226 A 
ATOM     26  C   UNL     1      -0.013  -0.296  22.392  0.00  0.00    +0.018 A 
ATOM     28  C   UNL     1       0.595  -1.272  21.609  0.00  0.00    +0.021 A 
ATOM     29  C   UNL     1       1.972  -1.224  21.467  0.00  0.00    +0.114 A 
BRANCH  25   5
ATOM      5  O   UNL     1       2.943   1.590  23.373  0.00  0.00    -0.474 OA
BRANCH   5  30
ATOM     30  C   UNL     1       4.305   1.599  22.966  0.00  0.00    +0.258 C 
BRANCH  30  31
ATOM     31  C   UNL     1       5.138   0.885  24.014  0.00  0.00    +0.200 C 
BRANCH  31   6
ATOM      6  O   UNL     1       5.685  -0.298  23.445  0.00  0.00    -0.380 OA
ATOM     32  C   UNL     1       5.064  -1.464  23.969  0.00  0.00    +0.194 C 
ENDBRANCH  31   6
ENDBRANCH  30  31
ENDBRANCH   5  30
ENDBRANCH  25   5
ENDBRANCH  20  24
ENDBRANCH  11  16
BRANCH   7  15
ATOM     15  C   UNL     1      -4.387   3.044  24.546  0.00  0.00    +0.120 C 
BRANCH  15  17
ATOM     17  C   UNL     1      -4.151   1.557  24.517  0.00  0.00    -0.033 A 
ATOM     18  C   UNL     1      -3.685   0.948  23.350  0.00  0.00    +0.007 A 
ATOM     19  C   UNL     1      -4.398   0.788  25.654  0.00  0.00    +0.007 A 
ATOM     21  C   UNL     1      -3.466  -0.429  23.323  0.00  0.00    +0.027 A 
ATOM     22  C   UNL     1      -4.179  -0.589  25.626  0.00  0.00    +0.027 A 
ATOM     23  C   UNL     1      -3.713  -1.197  24.461  0.00  0.00    +0.088 A 
BRANCH  23   1
ATOM      1  S   UNL     1      -3.436  -2.921  24.427  0.00  0.00    -0.006 S 
ATOM      3  O   UNL     1      -3.479  -3.433  25.789  0.00  0.00    -0.170 OA
ATOM      4  O   UNL     1      -4.307  -3.496  23.411  0.00  0.00    -0.170 OA
ATOM     27  C   UNL     1      -1.756  -3.087  23.864  0.00  0.00    +0.200 C 
ENDBRANCH  23   1
ENDBRANCH  15  17
ENDBRANCH   7  15
TORSDOF 9
ENDMDL
MODEL 8
REMARK VINA RESULT:       4.9      1.890      3.297
REMARK  Name = 45783433
REMARK  11 active torsions:
REMARK  status: ('A' for Active; 'I' for Inactive)
REMARK    1  A    between atoms: S_1  and  C_23
REMARK    2  A    between atoms: S_1  and  C_27
REMARK    3  A    between atoms: O_5  and  C_25
REMARK    4  A    between atoms: O_5  and  C_30
REMARK    5  A    between atoms: O_6  and  C_31
REMARK    6  A    between atoms: O_6  and  C_32
REMARK    7  A    between atoms: N_7  and  C_15
REMARK    8  A    between atoms: C_11  and  C_16
REMARK    9  A    between atoms: C_15  and  C_17
REMARK   10  A    between atoms: C_20  and  C_24
REMARK   11  A    between atoms: C_30  and  C_31
REMARK                            x       y       z     vdW  Elec       q    Type
REMARK                         _______ _______ _______ _____ _____    ______ ____
ROOT
ATOM      7  N   UNL     1      -5.147   2.489  25.421  0.00  0.00    -0.287 NA
ATOM     11  C   UNL     1      -4.983   3.000  24.046  0.00  0.00    +0.146 C 
ATOM     12  C   UNL     1      -5.131   4.527  24.176  0.00  0.00    +0.030 C 
ATOM     13  C   UNL     1      -5.435   4.774  25.646  0.00  0.00    +0.017 C 
ATOM     14  C   UNL     1      -6.000   3.451  26.120  0.00  0.00    +0.085 C 
ENDROOT
BRANCH  11  16
ATOM      2  O   UNL     1      -3.520   2.825  22.096  0.00  0.00    -0.336 OA
ATOM      8  N   UNL     1      -2.620   2.034  23.987  0.00  0.00    -0.190 NA
ATOM      9  N   UNL     1      -2.240   2.369  21.757  0.00  0.00    -0.056 NA
ATOM     16  C   UNL     1      -3.663   2.591  23.426  0.00  0.00    +0.245 A 
ATOM     20  C   UNL     1      -1.773   1.917  22.924  0.00  0.00    +0.207 A 
BRANCH  20  24
ATOM     10  N   UNL     1       1.774   1.455  23.969  0.00  0.00    -0.221 NA
ATOM     24  C   UNL     1      -0.465   1.346  23.062  0.00  0.00    +0.084 A 
ATOM     25  C   UNL     1       0.529   1.956  23.810  0.00  0.00    +0.226 A 
ATOM     26  C   UNL     1      -0.160   0.142  22.436  0.00  0.00    +0.018 A 
ATOM     28  C   UNL     1       1.110  -0.406  22.574  0.00  0.00    +0.021 A 
ATOM     29  C   UNL     1       2.033   0.283  23.345  0.00  0.00    +0.114 A 
BRANCH  25   5
ATOM      5  O   UNL     1       0.277   3.145  24.447  0.00  0.00    -0.474 OA
BRANCH   5  30
ATOM     30  C   UNL     1       0.117   3.091  25.859  0.00  0.00    +0.258 C 
BRANCH  30  31
ATOM     31  C   UNL     1      -1.363   3.019  26.186  0.00  0.00    +0.200 C 
BRANCH  31   6
ATOM      6  O   UNL     1      -1.902   4.335  26.186  0.00  0.00    -0.380 OA
ATOM     32  C   UNL     1      -1.402   5.103  25.100  0.00  0.00    +0.194 C 
ENDBRANCH  31   6
ENDBRANCH  30  31
ENDBRANCH   5  30
ENDBRANCH  25   5
ENDBRANCH  20  24
ENDBRANCH  11  16
BRANCH   7  15
ATOM     15  C   UNL     1      -5.689   1.138  25.471  0.00  0.00    +0.120 C 
BRANCH  15  17
ATOM     17  C   UNL     1      -4.620   0.097  25.265  0.00  0.00    -0.033 A 
ATOM     18  C   UNL     1      -3.540   0.024  26.146  0.00  0.00    +0.007 A 
ATOM     19  C   UNL     1      -4.709  -0.793  24.195  0.00  0.00    +0.007 A 
ATOM     21  C   UNL     1      -2.550  -0.940  25.956  0.00  0.00    +0.027 A 
ATOM     22  C   UNL     1      -3.719  -1.757  24.006  0.00  0.00    +0.027 A 
ATOM     23  C   UNL     1      -2.639  -1.830  24.886  0.00  0.00    +0.088 A 
BRANCH  23   1
ATOM      1  S   UNL     1      -1.401  -3.039  24.651  0.00  0.00    -0.006 S 
ATOM      3  O   UNL     1      -1.649  -4.151  25.557  0.00  0.00    -0.170 OA
ATOM      4  O   UNL     1      -1.281  -3.285  23.221  0.00  0.00    -0.170 OA
ATOM     27  C   UNL     1       0.096  -2.249  25.198  0.00  0.00    +0.200 C 
ENDBRANCH  23   1
ENDBRANCH  15  17
ENDBRANCH   7  15
TORSDOF 9
ENDMDL
MODEL 9
REMARK VINA RESULT:       5.0      3.018      7.460
REMARK  Name = 45783433
REMARK  11 active torsions:
REMARK  status: ('A' for Active; 'I' for Inactive)
REMARK    1  A    between atoms: S_1  and  C_23
REMARK    2  A    between atoms: S_1  and  C_27
REMARK    3  A    between atoms: O_5  and  C_25
REMARK    4  A    between atoms: O_5  and  C_30
REMARK    5  A    between atoms: O_6  and  C_31
REMARK    6  A    between atoms: O_6  and  C_32
REMARK    7  A    between atoms: N_7  and  C_15
REMARK    8  A    between atoms: C_11  and  C_16
REMARK    9  A    between atoms: C_15  and  C_17
REMARK   10  A    between atoms: C_20  and  C_24
REMARK   11  A    between atoms: C_30  and  C_31
REMARK                            x       y       z     vdW  Elec       q    Type
REMARK                         _______ _______ _______ _____ _____    ______ ____
ROOT
ATOM      7  N   UNL     1      -0.869  -0.838  24.240  0.00  0.00    -0.287 NA
ATOM     11  C   UNL     1      -2.217  -1.361  23.942  0.00  0.00    +0.146 C 
ATOM     12  C   UNL     1      -2.329  -2.652  24.775  0.00  0.00    +0.030 C 
ATOM     13  C   UNL     1      -0.977  -2.804  25.457  0.00  0.00    +0.017 C 
ATOM     14  C   UNL     1      -0.042  -1.997  24.579  0.00  0.00    +0.085 C 
ENDROOT
BRANCH  11  16
ATOM      2  O   UNL     1      -4.581  -0.846  24.288  0.00  0.00    -0.336 OA
ATOM      8  N   UNL     1      -3.219   0.917  24.517  0.00  0.00    -0.190 NA
ATOM      9  N   UNL     1      -5.404   0.246  24.597  0.00  0.00    -0.056 NA
ATOM     16  C   UNL     1      -3.311  -0.363  24.260  0.00  0.00    +0.245 A 
ATOM     20  C   UNL     1      -4.527   1.247  24.716  0.00  0.00    +0.207 A 
BRANCH  20  24
ATOM     10  N   UNL     1      -4.412   4.947  25.143  0.00  0.00    -0.221 NA
ATOM     24  C   UNL     1      -4.926   2.587  25.036  0.00  0.00    +0.084 A 
ATOM     25  C   UNL     1      -4.079   3.669  24.857  0.00  0.00    +0.226 A 
ATOM     26  C   UNL     1      -6.197   2.834  25.542  0.00  0.00    +0.018 A 
ATOM     28  C   UNL     1      -6.578   4.135  25.849  0.00  0.00    +0.021 A 
ATOM     29  C   UNL     1      -5.657   5.148  25.633  0.00  0.00    +0.114 A 
BRANCH  25   5
ATOM      5  O   UNL     1      -2.815   3.477  24.360  0.00  0.00    -0.474 OA
BRANCH   5  30
ATOM     30  C   UNL     1      -1.751   4.105  25.063  0.00  0.00    +0.258 C 
BRANCH  30  31
ATOM     31  C   UNL     1      -0.430   3.612  24.503  0.00  0.00    +0.200 C 
BRANCH  31   6
ATOM      6  O   UNL     1       0.369   3.114  25.568  0.00  0.00    -0.380 OA
ATOM     32  C   UNL     1      -0.289   2.067  26.267  0.00  0.00    +0.194 C 
ENDBRANCH  31   6
ENDBRANCH  30  31
ENDBRANCH   5  30
ENDBRANCH  25   5
ENDBRANCH  20  24
ENDBRANCH  11  16
BRANCH   7  15
ATOM     15  C   UNL     1      -0.301  -0.060  23.147  0.00  0.00    +0.120 C 
BRANCH  15  17
ATOM     17  C   UNL     1       1.203  -0.012  23.216  0.00  0.00    -0.033 A 
ATOM     18  C   UNL     1       1.868   1.208  23.083  0.00  0.00    +0.007 A 
ATOM     19  C   UNL     1       1.931  -1.186  23.412  0.00  0.00    +0.007 A 
ATOM     21  C   UNL     1       3.260   1.252  23.147  0.00  0.00    +0.027 A 
ATOM     22  C   UNL     1       3.323  -1.140  23.475  0.00  0.00    +0.027 A 
ATOM     23  C   UNL     1       3.988   0.079  23.343  0.00  0.00    +0.088 A 
BRANCH  23   1
ATOM      1  S   UNL     1       5.731   0.136  23.426  0.00  0.00    -0.006 S 
ATOM      3  O   UNL     1       6.277  -0.199  22.118  0.00  0.00    -0.170 OA
ATOM      4  O   UNL     1       6.109   1.388  24.067  0.00  0.00    -0.170 OA
ATOM     27  C   UNL     1       6.165  -1.194  24.525  0.00  0.00    +0.200 C 
ENDBRANCH  23   1
ENDBRANCH  15  17
ENDBRANCH   7  15
TORSDOF 9
ENDMDL
MODEL 10
REMARK VINA RESULT:       5.2      2.770      6.796
REMARK  Name = 45783433
REMARK  11 active torsions:
REMARK  status: ('A' for Active; 'I' for Inactive)
REMARK    1  A    between atoms: S_1  and  C_23
REMARK    2  A    between atoms: S_1  and  C_27
REMARK    3  A    between atoms: O_5  and  C_25
REMARK    4  A    between atoms: O_5  and  C_30
REMARK    5  A    between atoms: O_6  and  C_31
REMARK    6  A    between atoms: O_6  and  C_32
REMARK    7  A    between atoms: N_7  and  C_15
REMARK    8  A    between atoms: C_11  and  C_16
REMARK    9  A    between atoms: C_15  and  C_17
REMARK   10  A    between atoms: C_20  and  C_24
REMARK   11  A    between atoms: C_30  and  C_31
REMARK                            x       y       z     vdW  Elec       q    Type
REMARK                         _______ _______ _______ _____ _____    ______ ____
ROOT
ATOM      7  N   UNL     1      -3.103  -1.756  25.345  0.00  0.00    -0.287 NA
ATOM     11  C   UNL     1      -3.032  -1.162  23.995  0.00  0.00    +0.146 C 
ATOM     12  C   UNL     1      -3.963  -2.035  23.134  0.00  0.00    +0.030 C 
ATOM     13  C   UNL     1      -4.461  -3.128  24.068  0.00  0.00    +0.017 C 
ATOM     14  C   UNL     1      -3.407  -3.175  25.156  0.00  0.00    +0.085 C 
ENDROOT
BRANCH  11  16
ATOM      2  O   UNL     1      -3.118   1.000  22.858  0.00  0.00    -0.336 OA
ATOM      8  N   UNL     1      -4.025   1.007  24.906  0.00  0.00    -0.190 NA
ATOM      9  N   UNL     1      -3.571   2.307  23.079  0.00  0.00    -0.056 NA
ATOM     16  C   UNL     1      -3.425   0.301  23.982  0.00  0.00    +0.245 A 
ATOM     20  C   UNL     1      -4.093   2.232  24.307  0.00  0.00    +0.207 A 
BRANCH  20  24
ATOM     10  N   UNL     1      -4.498   5.241  26.466  0.00  0.00    -0.221 NA
ATOM     24  C   UNL     1      -4.691   3.359  24.962  0.00  0.00    +0.084 A 
ATOM     25  C   UNL     1      -3.976   4.170  25.829  0.00  0.00    +0.226 A 
ATOM     26  C   UNL     1      -6.027   3.668  24.734  0.00  0.00    +0.018 A 
ATOM     28  C   UNL     1      -6.601   4.763  25.372  0.00  0.00    +0.021 A 
ATOM     29  C   UNL     1      -5.800   5.511  26.220  0.00  0.00    +0.114 A 
BRANCH  25   5
ATOM      5  O   UNL     1      -2.655   3.906  26.085  0.00  0.00    -0.474 OA
BRANCH   5  30
ATOM     30  C   UNL     1      -1.700   4.613  25.304  0.00  0.00    +0.258 C 
BRANCH  30  31
ATOM     31  C   UNL     1      -0.399   3.832  25.289  0.00  0.00    +0.200 C 
BRANCH  31   6
ATOM      6  O   UNL     1      -0.495   2.753  26.210  0.00  0.00    -0.380 OA
ATOM     32  C   UNL     1       0.654   2.675  27.042  0.00  0.00    +0.194 C 
ENDBRANCH  31   6
ENDBRANCH  30  31
ENDBRANCH   5  30
ENDBRANCH  25   5
ENDBRANCH  20  24
ENDBRANCH  11  16
BRANCH   7  15
ATOM     15  C   UNL     1      -1.889  -1.555  26.125  0.00  0.00    +0.120 C 
BRANCH  15  17
ATOM     17  C   UNL     1      -0.735  -1.115  25.263  0.00  0.00    -0.033 A 
ATOM     18  C   UNL     1       0.290  -2.011  24.960  0.00  0.00    +0.007 A 
ATOM     19  C   UNL     1      -0.692   0.188  24.768  0.00  0.00    +0.007 A 
ATOM     21  C   UNL     1       1.358  -1.604  24.162  0.00  0.00    +0.027 A 
ATOM     22  C   UNL     1       0.377   0.595  23.969  0.00  0.00    +0.027 A 
ATOM     23  C   UNL     1       1.402  -0.301  23.666  0.00  0.00    +0.088 A 
BRANCH  23   1
ATOM      1  S   UNL     1       2.738   0.207  22.664  0.00  0.00    -0.006 S 
ATOM      3  O   UNL     1       2.463  -0.169  21.284  0.00  0.00    -0.170 OA
ATOM      4  O   UNL     1       3.040   1.594  22.988  0.00  0.00    -0.170 OA
ATOM     27  C   UNL     1       4.105  -0.792  23.211  0.00  0.00    +0.200 C 
ENDBRANCH  23   1
ENDBRANCH  15  17
ENDBRANCH   7  15
TORSDOF 9
ENDMDL
