MODEL 1
REMARK VINA RESULT:       1.6      0.000      0.000
REMARK  Name = 7051867
REMARK  8 active torsions:
REMARK  status: ('A' for Active; 'I' for Inactive)
REMARK    1  A    between atoms: N_3  and  C_15
REMARK    2  A    between atoms: N_5  and  C_26
REMARK    3  A    between atoms: N_6  and  C_19
REMARK    4  A    between atoms: N_7  and  C_30
REMARK    5  A    between atoms: N_7  and  C_31
REMARK    6  A    between atoms: N_7  and  C_32
REMARK    7  A    between atoms: C_15  and  C_18
REMARK    8  A    between atoms: C_27  and  C_30
REMARK                            x       y       z     vdW  Elec       q    Type
REMARK                         _______ _______ _______ _____ _____    ______ ____
ROOT
ATOM      1  O   UNL     1       0.158  -1.091  22.297  0.00  0.00    -0.266 OA
ATOM      3  N   UNL     1      -4.298  -0.379  24.479  0.00  0.00    -0.297 NA
ATOM      4  N   UNL     1      -1.235  -1.217  24.168  0.00  0.00    -0.310 N 
ATOM      8  C   UNL     1      -3.338  -2.682  24.241  0.00  0.00    +0.024 C 
ATOM      9  C   UNL     1      -2.737  -1.320  26.186  0.00  0.00    +0.050 C 
ATOM     10  C   UNL     1      -3.062  -2.743  25.738  0.00  0.00    +0.017 C 
ATOM     11  C   UNL     1      -4.522  -1.734  23.960  0.00  0.00    +0.090 C 
ATOM     12  C   UNL     1      -3.948  -0.401  25.906  0.00  0.00    +0.094 C 
ATOM     13  C   UNL     1      -2.054  -2.252  23.519  0.00  0.00    +0.130 C 
ATOM     14  C   UNL     1      -1.500  -0.802  25.477  0.00  0.00    +0.026 A 
ATOM     16  C   UNL     1      -0.676   0.064  26.091  0.00  0.00    +0.024 A 
ATOM     17  C   UNL     1      -0.123  -0.742  23.444  0.00  0.00    +0.273 A 
ATOM     19  C   UNL     1       0.757   0.238  24.156  0.00  0.00    +0.099 A 
ATOM     20  C   UNL     1       0.474   0.593  25.413  0.00  0.00    +0.030 A 
ENDROOT
BRANCH  19   6
ATOM      2  O   UNL     1       3.143  -1.196  23.497  0.00  0.00    -0.274 OA
ATOM      6  N   UNL     1       1.838   0.731  23.486  0.00  0.00    -0.280 N 
ATOM     27  C   UNL     1       2.968  -0.020  23.185  0.00  0.00    +0.231 C 
ATOM     33  H   UNL     1       1.901   1.744  23.405  0.00  0.00    +0.155 HD
BRANCH  27  30
ATOM     30  C   UNL     1       3.996   0.803  22.436  0.00  0.00    +0.180 C 
BRANCH  30   7
ATOM      7  N   UNL     1       5.281   0.689  23.109  0.00  0.00    -0.300 NA
ATOM     31  C   UNL     1       6.093  -0.368  22.501  0.00  0.00    +0.105 C 
ATOM     32  C   UNL     1       5.096   0.424  24.539  0.00  0.00    +0.105 C 
ENDBRANCH  30   7
ENDBRANCH  27  30
ENDBRANCH  19   6
BRANCH   3  15
ATOM     15  C   UNL     1      -5.461   0.473  24.240  0.00  0.00    +0.121 C 
BRANCH  15  18
ATOM      5  N   UNL     1      -5.529   3.939  25.388  0.00  0.00    -0.349 N 
ATOM     18  C   UNL     1      -5.207   1.899  24.653  0.00  0.00    -0.008 A 
ATOM     21  C   UNL     1      -3.964   2.555  24.604  0.00  0.00    +0.004 A 
ATOM     22  C   UNL     1      -6.154   2.748  25.131  0.00  0.00    +0.091 A 
ATOM     23  C   UNL     1      -4.191   3.850  25.075  0.00  0.00    +0.049 A 
ATOM     24  C   UNL     1      -2.660   2.195  24.210  0.00  0.00    +0.010 A 
ATOM     25  C   UNL     1      -3.175   4.806  25.173  0.00  0.00    +0.026 A 
ATOM     26  C   UNL     1      -6.194   5.112  25.914  0.00  0.00    +0.149 C 
ATOM     28  C   UNL     1      -1.634   3.142  24.303  0.00  0.00    +0.001 A 
ATOM     29  C   UNL     1      -1.889   4.426  24.777  0.00  0.00    +0.002 A 
ENDBRANCH  15  18
ENDBRANCH   3  15
TORSDOF 5
ENDMDL
MODEL 2
REMARK VINA RESULT:       2.1      1.907      4.754
REMARK  Name = 7051867
REMARK  8 active torsions:
REMARK  status: ('A' for Active; 'I' for Inactive)
REMARK    1  A    between atoms: N_3  and  C_15
REMARK    2  A    between atoms: N_5  and  C_26
REMARK    3  A    between atoms: N_6  and  C_19
REMARK    4  A    between atoms: N_7  and  C_30
REMARK    5  A    between atoms: N_7  and  C_31
REMARK    6  A    between atoms: N_7  and  C_32
REMARK    7  A    between atoms: C_15  and  C_18
REMARK    8  A    between atoms: C_27  and  C_30
REMARK                            x       y       z     vdW  Elec       q    Type
REMARK                         _______ _______ _______ _____ _____    ______ ____
ROOT
ATOM      1  O   UNL     1       0.444   2.741  26.315  0.00  0.00    -0.266 OA
ATOM      3  N   UNL     1      -4.309   1.666  25.139  0.00  0.00    -0.297 NA
ATOM      4  N   UNL     1      -1.481   3.142  25.053  0.00  0.00    -0.310 N 
ATOM      8  C   UNL     1      -3.697   3.901  26.096  0.00  0.00    +0.024 C 
ATOM      9  C   UNL     1      -3.551   3.545  23.677  0.00  0.00    +0.050 C 
ATOM     10  C   UNL     1      -3.933   4.565  24.746  0.00  0.00    +0.017 C 
ATOM     11  C   UNL     1      -4.562   2.629  26.218  0.00  0.00    +0.090 C 
ATOM     12  C   UNL     1      -4.447   2.293  23.816  0.00  0.00    +0.094 C 
ATOM     13  C   UNL     1      -2.198   3.609  26.248  0.00  0.00    +0.130 C 
ATOM     14  C   UNL     1      -2.087   3.166  23.792  0.00  0.00    +0.026 A 
ATOM     16  C   UNL     1      -1.380   2.838  22.698  0.00  0.00    +0.024 A 
ATOM     17  C   UNL     1      -0.135   2.763  25.228  0.00  0.00    +0.273 A 
ATOM     19  C   UNL     1       0.610   2.383  23.986  0.00  0.00    +0.099 A 
ATOM     20  C   UNL     1      -0.005   2.438  22.800  0.00  0.00    +0.030 A 
ENDROOT
BRANCH  19   6
ATOM      2  O   UNL     1       1.899   0.263  22.563  0.00  0.00    -0.274 OA
ATOM      6  N   UNL     1       1.912   1.998  24.114  0.00  0.00    -0.280 N 
ATOM     27  C   UNL     1       2.486   0.963  23.384  0.00  0.00    +0.231 C 
ATOM     33  H   UNL     1       2.410   2.339  24.933  0.00  0.00    +0.155 HD
BRANCH  27  30
ATOM     30  C   UNL     1       3.945   0.774  23.748  0.00  0.00    +0.180 C 
BRANCH  30   7
ATOM      7  N   UNL     1       4.454  -0.412  23.075  0.00  0.00    -0.300 NA
ATOM     31  C   UNL     1       4.211  -1.610  23.883  0.00  0.00    +0.105 C 
ATOM     32  C   UNL     1       5.885  -0.274  22.793  0.00  0.00    +0.105 C 
ENDBRANCH  30   7
ENDBRANCH  27  30
ENDBRANCH  19   6
BRANCH   3  15
ATOM     15  C   UNL     1      -5.184   0.502  25.259  0.00  0.00    +0.121 C 
BRANCH  15  18
ATOM      5  N   UNL     1      -4.151  -2.751  23.962  0.00  0.00    -0.349 N 
ATOM     18  C   UNL     1      -4.497  -0.764  24.821  0.00  0.00    -0.008 A 
ATOM     21  C   UNL     1      -3.134  -1.060  25.002  0.00  0.00    +0.004 A 
ATOM     22  C   UNL     1      -5.109  -1.799  24.187  0.00  0.00    +0.091 A 
ATOM     23  C   UNL     1      -2.935  -2.326  24.449  0.00  0.00    +0.049 A 
ATOM     24  C   UNL     1      -2.035  -0.390  25.577  0.00  0.00    +0.010 A 
ATOM     25  C   UNL     1      -1.688  -2.960  24.443  0.00  0.00    +0.026 A 
ATOM     26  C   UNL     1      -4.398  -4.016  23.303  0.00  0.00    +0.149 C 
ATOM     28  C   UNL     1      -0.782  -1.012  25.577  0.00  0.00    +0.001 A 
ATOM     29  C   UNL     1      -0.613  -2.277  25.018  0.00  0.00    +0.002 A 
ENDBRANCH  15  18
ENDBRANCH   3  15
TORSDOF 5
ENDMDL
MODEL 3
REMARK VINA RESULT:       5.0      3.134      5.802
REMARK  Name = 7051867
REMARK  8 active torsions:
REMARK  status: ('A' for Active; 'I' for Inactive)
REMARK    1  A    between atoms: N_3  and  C_15
REMARK    2  A    between atoms: N_5  and  C_26
REMARK    3  A    between atoms: N_6  and  C_19
REMARK    4  A    between atoms: N_7  and  C_30
REMARK    5  A    between atoms: N_7  and  C_31
REMARK    6  A    between atoms: N_7  and  C_32
REMARK    7  A    between atoms: C_15  and  C_18
REMARK    8  A    between atoms: C_27  and  C_30
REMARK                            x       y       z     vdW  Elec       q    Type
REMARK                         _______ _______ _______ _____ _____    ______ ____
ROOT
ATOM      1  O   UNL     1      -1.573   3.890  27.490  0.00  0.00    -0.266 OA
ATOM      3  N   UNL     1      -4.694   1.217  24.618  0.00  0.00    -0.297 NA
ATOM      4  N   UNL     1      -2.541   3.434  25.413  0.00  0.00    -0.310 N 
ATOM      8  C   UNL     1      -5.053   3.674  24.966  0.00  0.00    +0.024 C 
ATOM      9  C   UNL     1      -3.567   2.915  23.173  0.00  0.00    +0.050 C 
ATOM     10  C   UNL     1      -4.620   3.960  23.534  0.00  0.00    +0.017 C 
ATOM     11  C   UNL     1      -5.637   2.249  25.067  0.00  0.00    +0.090 C 
ATOM     12  C   UNL     1      -4.187   1.502  23.268  0.00  0.00    +0.094 C 
ATOM     13  C   UNL     1      -3.853   3.886  25.897  0.00  0.00    +0.130 C 
ATOM     14  C   UNL     1      -2.361   3.028  24.087  0.00  0.00    +0.026 A 
ATOM     16  C   UNL     1      -1.133   2.723  23.634  0.00  0.00    +0.024 A 
ATOM     17  C   UNL     1      -1.465   3.523  26.319  0.00  0.00    +0.273 A 
ATOM     19  C   UNL     1      -0.117   3.152  25.782  0.00  0.00    +0.099 A 
ATOM     20  C   UNL     1       0.009   2.787  24.502  0.00  0.00    +0.030 A 
ENDROOT
BRANCH  19   6
ATOM      2  O   UNL     1       0.261   1.584  28.144  0.00  0.00    -0.274 OA
ATOM      6  N   UNL     1       0.949   3.213  26.630  0.00  0.00    -0.280 N 
ATOM     27  C   UNL     1       1.082   2.415  27.761  0.00  0.00    +0.231 C 
ATOM     33  H   UNL     1       1.552   4.029  26.547  0.00  0.00    +0.155 HD
BRANCH  27  30
ATOM     30  C   UNL     1       2.370   2.714  28.500  0.00  0.00    +0.180 C 
BRANCH  30   7
ATOM      7  N   UNL     1       2.103   2.743  29.930  0.00  0.00    -0.300 NA
ATOM     31  C   UNL     1       2.499   1.480  30.558  0.00  0.00    +0.105 C 
ATOM     32  C   UNL     1       0.686   3.013  30.188  0.00  0.00    +0.105 C 
ENDBRANCH  30   7
ENDBRANCH  27  30
ENDBRANCH  19   6
BRANCH   3  15
ATOM     15  C   UNL     1      -5.301  -0.111  24.679  0.00  0.00    +0.121 C 
BRANCH  15  18
ATOM      5  N   UNL     1      -3.367  -3.082  23.804  0.00  0.00    -0.349 N 
ATOM     18  C   UNL     1      -4.288  -1.202  24.454  0.00  0.00    -0.008 A 
ATOM     21  C   UNL     1      -2.952  -1.180  24.893  0.00  0.00    +0.004 A 
ATOM     22  C   UNL     1      -4.533  -2.363  23.793  0.00  0.00    +0.091 A 
ATOM     23  C   UNL     1      -2.385  -2.384  24.469  0.00  0.00    +0.049 A 
ATOM     24  C   UNL     1      -2.150  -0.267  25.607  0.00  0.00    +0.010 A 
ATOM     25  C   UNL     1      -1.052  -2.722  24.725  0.00  0.00    +0.026 A 
ATOM     26  C   UNL     1      -3.209  -4.387  23.197  0.00  0.00    +0.149 C 
ATOM     28  C   UNL     1      -0.815  -0.593  25.871  0.00  0.00    +0.001 A 
ATOM     29  C   UNL     1      -0.276  -1.802  25.436  0.00  0.00    +0.002 A 
ENDBRANCH  15  18
ENDBRANCH   3  15
TORSDOF 5
ENDMDL
