MODEL 1
REMARK VINA RESULT:      -4.2      0.000      0.000
REMARK  Name = 7135391
REMARK  9 active torsions:
REMARK  status: ('A' for Active; 'I' for Inactive)
REMARK    1  A    between atoms: O_2  and  C_16
REMARK    2  A    between atoms: O_2  and  C_22
REMARK    3  A    between atoms: N_4  and  C_20
REMARK    4  A    between atoms: C_5  and  C_8
REMARK    5  A    between atoms: C_8  and  C_14
REMARK    6  A    between atoms: C_8  and  C_15
REMARK    7  A    between atoms: C_12  and  C_18
REMARK    8  A    between atoms: C_13  and  C_19
REMARK    9  A    between atoms: C_20  and  C_21
REMARK                            x       y       z     vdW  Elec       q    Type
REMARK                         _______ _______ _______ _____ _____    ______ ____
ROOT
ATOM      5  C   UNL     1      -4.859  -9.562  12.738  0.00  0.00    +0.005 C 
ATOM      6  C   UNL     1      -5.606 -10.779  13.291  0.00  0.00    +0.009 C 
ATOM      7  C   UNL     1      -5.302  -9.294  11.292  0.00  0.00    +0.040 C 
ATOM      9  C   UNL     1      -7.110 -10.511  13.334  0.00  0.00    +0.036 C 
ATOM     10  C   UNL     1      -6.801  -9.315  11.111  0.00  0.00    -0.037 A 
ATOM     11  C   UNL     1      -7.648  -9.924  12.054  0.00  0.00    -0.041 A 
ATOM     12  C   UNL     1      -7.353  -8.762   9.944  0.00  0.00    -0.005 A 
ATOM     13  C   UNL     1      -9.033  -9.935  11.829  0.00  0.00    -0.044 A 
ATOM     16  C   UNL     1      -8.730  -8.789   9.729  0.00  0.00    +0.124 A 
ATOM     17  C   UNL     1      -9.570  -9.374  10.672  0.00  0.00    +0.049 A 
ATOM     18  C   UNL     1      -6.476  -8.140   8.901  0.00  0.00    +0.048 C 
ATOM     19  C   UNL     1      -9.981 -10.537  12.818  0.00  0.00    +0.044 C 
ENDROOT
BRANCH  16   2
ATOM      2  O   UNL     1      -9.272  -8.252   8.600  0.00  0.00    -0.495 OA
ATOM     22  C   UNL     1     -10.000  -7.033   8.747  0.00  0.00    +0.277 C 
ENDBRANCH  16   2
BRANCH   5   8
ATOM      8  C   UNL     1      -3.347  -9.771  12.807  0.00  0.00    +0.075 C 
ATOM     14  C   UNL     1      -2.886 -10.698  11.683  0.00  0.00    +0.017 C 
BRANCH   8  15
ATOM      3  O   UNL     1      -1.806 -10.778  14.384  0.00  0.00    -0.276 OA
ATOM      4  N   UNL     1      -3.963 -10.302  15.091  0.00  0.00    -0.310 N 
ATOM     15  C   UNL     1      -2.933 -10.341  14.162  0.00  0.00    +0.216 C 
ATOM     26  H   UNL     1      -4.869  -9.927  14.831  0.00  0.00    +0.149 HD
BRANCH   4  20
ATOM     20  C   UNL     1      -3.812 -10.781  16.446  0.00  0.00    +0.146 C 
BRANCH  20  21
ATOM      1  S   UNL     1      -6.445  -9.961  16.424  0.00  0.00    -0.100 S 
ATOM     21  C   UNL     1      -5.065 -10.533  17.237  0.00  0.00    +0.007 A 
ATOM     23  C   UNL     1      -5.257 -10.711  18.573  0.00  0.00    +0.013 A 
ATOM     24  C   UNL     1      -6.585 -10.367  18.956  0.00  0.00    +0.008 A 
ATOM     25  C   UNL     1      -7.338  -9.943  17.884  0.00  0.00    +0.045 A 
ENDBRANCH  20  21
ENDBRANCH   4  20
ENDBRANCH   8  15
ENDBRANCH   5   8
TORSDOF 5
ENDMDL
MODEL 2
REMARK VINA RESULT:      -4.2     14.967     17.393
REMARK  Name = 7135391
REMARK  9 active torsions:
REMARK  status: ('A' for Active; 'I' for Inactive)
REMARK    1  A    between atoms: O_2  and  C_16
REMARK    2  A    between atoms: O_2  and  C_22
REMARK    3  A    between atoms: N_4  and  C_20
REMARK    4  A    between atoms: C_5  and  C_8
REMARK    5  A    between atoms: C_8  and  C_14
REMARK    6  A    between atoms: C_8  and  C_15
REMARK    7  A    between atoms: C_12  and  C_18
REMARK    8  A    between atoms: C_13  and  C_19
REMARK    9  A    between atoms: C_20  and  C_21
REMARK                            x       y       z     vdW  Elec       q    Type
REMARK                         _______ _______ _______ _____ _____    ______ ____
ROOT
ATOM      5  C   UNL     1      -1.830  -0.682  24.753  0.00  0.00    +0.005 C 
ATOM      6  C   UNL     1      -3.142  -0.838  23.978  0.00  0.00    +0.009 C 
ATOM      7  C   UNL     1      -1.383   0.787  24.728  0.00  0.00    +0.040 C 
ATOM      9  C   UNL     1      -4.255  -0.027  24.641  0.00  0.00    +0.036 C 
ATOM     10  C   UNL     1      -2.491   1.757  25.061  0.00  0.00    -0.037 A 
ATOM     11  C   UNL     1      -3.844   1.383  24.981  0.00  0.00    -0.041 A 
ATOM     12  C   UNL     1      -2.160   3.077  25.404  0.00  0.00    -0.005 A 
ATOM     13  C   UNL     1      -4.838   2.328  25.281  0.00  0.00    -0.044 A 
ATOM     16  C   UNL     1      -3.157   4.009  25.689  0.00  0.00    +0.124 A 
ATOM     17  C   UNL     1      -4.495   3.633  25.630  0.00  0.00    +0.049 A 
ATOM     18  C   UNL     1      -0.729   3.519  25.461  0.00  0.00    +0.048 C 
ATOM     19  C   UNL     1      -6.291   1.972  25.247  0.00  0.00    +0.044 C 
ENDROOT
BRANCH  16   2
ATOM      2  O   UNL     1      -2.841   5.291  26.025  0.00  0.00    -0.495 OA
ATOM     22  C   UNL     1      -2.045   6.027  25.098  0.00  0.00    +0.277 C 
ENDBRANCH  16   2
BRANCH   5   8
ATOM      8  C   UNL     1      -0.743  -1.585  24.173  0.00  0.00    +0.075 C 
ATOM     14  C   UNL     1       0.204  -2.055  25.275  0.00  0.00    +0.017 C 
BRANCH   8  15
ATOM      3  O   UNL     1      -0.440  -0.596  21.980  0.00  0.00    -0.276 OA
ATOM      4  N   UNL     1       1.337  -0.556  23.469  0.00  0.00    -0.310 N 
ATOM     15  C   UNL     1       0.042  -0.865  23.077  0.00  0.00    +0.216 C 
ATOM     26  H   UNL     1       1.665  -0.813  24.395  0.00  0.00    +0.149 HD
BRANCH   4  20
ATOM     20  C   UNL     1       2.272   0.130  22.607  0.00  0.00    +0.146 C 
BRANCH  20  21
ATOM      1  S   UNL     1       4.140  -1.476  23.849  0.00  0.00    -0.100 S 
ATOM     21  C   UNL     1       3.673  -0.005  23.134  0.00  0.00    +0.007 A 
ATOM     23  C   UNL     1       4.664   0.929  23.115  0.00  0.00    +0.013 A 
ATOM     24  C   UNL     1       5.858   0.428  23.709  0.00  0.00    +0.008 A 
ATOM     25  C   UNL     1       5.711  -0.868  24.151  0.00  0.00    +0.045 A 
ENDBRANCH  20  21
ENDBRANCH   4  20
ENDBRANCH   8  15
ENDBRANCH   5   8
TORSDOF 5
ENDMDL
MODEL 3
REMARK VINA RESULT:      -4.0     15.517     17.571
REMARK  Name = 7135391
REMARK  9 active torsions:
REMARK  status: ('A' for Active; 'I' for Inactive)
REMARK    1  A    between atoms: O_2  and  C_16
REMARK    2  A    between atoms: O_2  and  C_22
REMARK    3  A    between atoms: N_4  and  C_20
REMARK    4  A    between atoms: C_5  and  C_8
REMARK    5  A    between atoms: C_8  and  C_14
REMARK    6  A    between atoms: C_8  and  C_15
REMARK    7  A    between atoms: C_12  and  C_18
REMARK    8  A    between atoms: C_13  and  C_19
REMARK    9  A    between atoms: C_20  and  C_21
REMARK                            x       y       z     vdW  Elec       q    Type
REMARK                         _______ _______ _______ _____ _____    ______ ____
ROOT
ATOM      5  C   UNL     1      -0.835   0.867  23.417  0.00  0.00    +0.005 C 
ATOM      6  C   UNL     1       0.017   1.795  24.287  0.00  0.00    +0.009 C 
ATOM      7  C   UNL     1      -2.188   0.614  24.100  0.00  0.00    +0.040 C 
ATOM      9  C   UNL     1      -0.660   3.157  24.442  0.00  0.00    +0.036 C 
ATOM     10  C   UNL     1      -2.849   1.873  24.606  0.00  0.00    -0.037 A 
ATOM     11  C   UNL     1      -2.120   3.059  24.805  0.00  0.00    -0.041 A 
ATOM     12  C   UNL     1      -4.213   1.839  24.939  0.00  0.00    -0.005 A 
ATOM     13  C   UNL     1      -2.777   4.197  25.297  0.00  0.00    -0.044 A 
ATOM     16  C   UNL     1      -4.851   2.973  25.437  0.00  0.00    +0.124 A 
ATOM     17  C   UNL     1      -4.134   4.152  25.614  0.00  0.00    +0.049 A 
ATOM     18  C   UNL     1      -5.011   0.581  24.776  0.00  0.00    +0.048 C 
ATOM     19  C   UNL     1      -2.056   5.493  25.492  0.00  0.00    +0.044 C 
ENDROOT
BRANCH  16   2
ATOM      2  O   UNL     1      -6.175   2.947  25.759  0.00  0.00    -0.495 OA
ATOM     22  C   UNL     1      -6.591   1.973  26.714  0.00  0.00    +0.277 C 
ENDBRANCH  16   2
BRANCH   5   8
ATOM      8  C   UNL     1      -0.111  -0.451  23.153  0.00  0.00    +0.075 C 
ATOM     14  C   UNL     1       0.211  -1.155  24.469  0.00  0.00    +0.017 C 
BRANCH   8  15
ATOM      3  O   UNL     1       1.350  -0.703  21.234  0.00  0.00    -0.276 OA
ATOM      4  N   UNL     1       2.081   0.577  23.025  0.00  0.00    -0.310 N 
ATOM     15  C   UNL     1       1.169  -0.224  22.351  0.00  0.00    +0.216 C 
ATOM     26  H   UNL     1       1.860   0.935  23.948  0.00  0.00    +0.149 HD
BRANCH   4  20
ATOM     20  C   UNL     1       3.364   0.938  22.468  0.00  0.00    +0.146 C 
BRANCH  20  21
ATOM      1  S   UNL     1       4.224  -1.374  23.703  0.00  0.00    -0.100 S 
ATOM     21  C   UNL     1       4.473   0.230  23.196  0.00  0.00    +0.007 A 
ATOM     23  C   UNL     1       5.703   0.718  23.518  0.00  0.00    +0.013 A 
ATOM     24  C   UNL     1       6.481  -0.256  24.209  0.00  0.00    +0.008 A 
ATOM     25  C   UNL     1       5.797  -1.439  24.377  0.00  0.00    +0.045 A 
ENDBRANCH  20  21
ENDBRANCH   4  20
ENDBRANCH   8  15
ENDBRANCH   5   8
TORSDOF 5
ENDMDL
MODEL 4
REMARK VINA RESULT:      -3.3     14.214     16.808
REMARK  Name = 7135391
REMARK  9 active torsions:
REMARK  status: ('A' for Active; 'I' for Inactive)
REMARK    1  A    between atoms: O_2  and  C_16
REMARK    2  A    between atoms: O_2  and  C_22
REMARK    3  A    between atoms: N_4  and  C_20
REMARK    4  A    between atoms: C_5  and  C_8
REMARK    5  A    between atoms: C_8  and  C_14
REMARK    6  A    between atoms: C_8  and  C_15
REMARK    7  A    between atoms: C_12  and  C_18
REMARK    8  A    between atoms: C_13  and  C_19
REMARK    9  A    between atoms: C_20  and  C_21
REMARK                            x       y       z     vdW  Elec       q    Type
REMARK                         _______ _______ _______ _____ _____    ______ ____
ROOT
ATOM      5  C   UNL     1       0.300   2.082  24.205  0.00  0.00    +0.005 C 
ATOM      6  C   UNL     1       0.406   2.729  25.589  0.00  0.00    +0.009 C 
ATOM      7  C   UNL     1      -1.057   1.377  24.064  0.00  0.00    +0.040 C 
ATOM      9  C   UNL     1      -0.668   3.803  25.763  0.00  0.00    +0.036 C 
ATOM     10  C   UNL     1      -2.223   2.226  24.511  0.00  0.00    -0.037 A 
ATOM     11  C   UNL     1      -2.042   3.345  25.344  0.00  0.00    -0.041 A 
ATOM     12  C   UNL     1      -3.522   1.853  24.130  0.00  0.00    -0.005 A 
ATOM     13  C   UNL     1      -3.161   4.089  25.749  0.00  0.00    -0.044 A 
ATOM     16  C   UNL     1      -4.625   2.595  24.548  0.00  0.00    +0.124 A 
ATOM     17  C   UNL     1      -4.445   3.714  25.356  0.00  0.00    +0.049 A 
ATOM     18  C   UNL     1      -3.753   0.645  23.275  0.00  0.00    +0.048 C 
ATOM     19  C   UNL     1      -3.021   5.309  26.604  0.00  0.00    +0.044 C 
ENDROOT
BRANCH  16   2
ATOM      2  O   UNL     1      -5.888   2.240  24.180  0.00  0.00    -0.495 OA
ATOM     22  C   UNL     1      -6.672   1.539  25.144  0.00  0.00    +0.277 C 
ENDBRANCH  16   2
BRANCH   5   8
ATOM      8  C   UNL     1       1.444   1.097  23.974  0.00  0.00    +0.075 C 
ATOM     14  C   UNL     1       2.385   1.618  22.890  0.00  0.00    +0.017 C 
BRANCH   8  15
ATOM      3  O   UNL     1       0.980  -0.727  22.446  0.00  0.00    -0.276 OA
ATOM      4  N   UNL     1       0.357  -0.957  24.669  0.00  0.00    -0.310 N 
ATOM     15  C   UNL     1       0.912  -0.282  23.589  0.00  0.00    +0.216 C 
ATOM     26  H   UNL     1       0.336  -0.521  25.585  0.00  0.00    +0.149 HD
BRANCH   4  20
ATOM     20  C   UNL     1      -0.209  -2.281  24.555  0.00  0.00    +0.146 C 
BRANCH  20  21
ATOM      1  S   UNL     1      -2.324  -1.274  26.011  0.00  0.00    -0.100 S 
ATOM     21  C   UNL     1      -1.697  -2.238  24.759  0.00  0.00    +0.007 A 
ATOM     23  C   UNL     1      -2.655  -2.894  24.046  0.00  0.00    +0.013 A 
ATOM     24  C   UNL     1      -3.959  -2.600  24.539  0.00  0.00    +0.008 A 
ATOM     25  C   UNL     1      -3.923  -1.732  25.607  0.00  0.00    +0.045 A 
ENDBRANCH  20  21
ENDBRANCH   4  20
ENDBRANCH   8  15
ENDBRANCH   5   8
TORSDOF 5
ENDMDL
MODEL 5
REMARK VINA RESULT:      -2.5     15.230     17.491
REMARK  Name = 7135391
REMARK  9 active torsions:
REMARK  status: ('A' for Active; 'I' for Inactive)
REMARK    1  A    between atoms: O_2  and  C_16
REMARK    2  A    between atoms: O_2  and  C_22
REMARK    3  A    between atoms: N_4  and  C_20
REMARK    4  A    between atoms: C_5  and  C_8
REMARK    5  A    between atoms: C_8  and  C_14
REMARK    6  A    between atoms: C_8  and  C_15
REMARK    7  A    between atoms: C_12  and  C_18
REMARK    8  A    between atoms: C_13  and  C_19
REMARK    9  A    between atoms: C_20  and  C_21
REMARK                            x       y       z     vdW  Elec       q    Type
REMARK                         _______ _______ _______ _____ _____    ______ ____
ROOT
ATOM      5  C   UNL     1      -1.723   0.073  24.049  0.00  0.00    +0.005 C 
ATOM      6  C   UNL     1      -0.587   0.818  24.755  0.00  0.00    +0.009 C 
ATOM      7  C   UNL     1      -3.061   0.401  24.730  0.00  0.00    +0.040 C 
ATOM      9  C   UNL     1      -0.782   2.330  24.637  0.00  0.00    +0.036 C 
ATOM     10  C   UNL     1      -3.262   1.877  24.976  0.00  0.00    -0.037 A 
ATOM     11  C   UNL     1      -2.183   2.777  24.972  0.00  0.00    -0.041 A 
ATOM     12  C   UNL     1      -4.552   2.347  25.273  0.00  0.00    -0.005 A 
ATOM     13  C   UNL     1      -2.420   4.137  25.227  0.00  0.00    -0.044 A 
ATOM     16  C   UNL     1      -4.772   3.698  25.535  0.00  0.00    +0.124 A 
ATOM     17  C   UNL     1      -3.707   4.593  25.510  0.00  0.00    +0.049 A 
ATOM     18  C   UNL     1      -5.718   1.408  25.324  0.00  0.00    +0.048 C 
ATOM     19  C   UNL     1      -1.313   5.143  25.198  0.00  0.00    +0.044 C 
ENDROOT
BRANCH  16   2
ATOM      2  O   UNL     1      -6.021   4.161  25.820  0.00  0.00    -0.495 OA
ATOM     22  C   UNL     1      -6.379   5.434  25.283  0.00  0.00    +0.277 C 
ENDBRANCH  16   2
BRANCH   5   8
ATOM      8  C   UNL     1      -1.473  -1.434  24.053  0.00  0.00    +0.075 C 
ATOM     14  C   UNL     1      -2.590  -2.157  24.802  0.00  0.00    +0.017 C 
BRANCH   8  15
ATOM      3  O   UNL     1      -0.005  -2.206  25.820  0.00  0.00    -0.276 OA
ATOM      4  N   UNL     1       0.939  -1.513  23.818  0.00  0.00    -0.310 N 
ATOM     15  C   UNL     1      -0.120  -1.764  24.680  0.00  0.00    +0.216 C 
ATOM     26  H   UNL     1       0.764  -1.145  22.889  0.00  0.00    +0.149 HD
BRANCH   4  20
ATOM     20  C   UNL     1       2.316  -1.751  24.183  0.00  0.00    +0.146 C 
BRANCH  20  21
ATOM      1  S   UNL     1       4.869  -0.731  23.956  0.00  0.00    -0.100 S 
ATOM     21  C   UNL     1       3.211  -0.706  23.578  0.00  0.00    +0.007 A 
ATOM     23  C   UNL     1       2.861   0.301  22.730  0.00  0.00    +0.013 A 
ATOM     24  C   UNL     1       3.991   1.090  22.371  0.00  0.00    +0.008 A 
ATOM     25  C   UNL     1       5.147   0.639  22.967  0.00  0.00    +0.045 A 
ENDBRANCH  20  21
ENDBRANCH   4  20
ENDBRANCH   8  15
ENDBRANCH   5   8
TORSDOF 5
ENDMDL
MODEL 6
REMARK VINA RESULT:      -2.3     14.270     17.173
REMARK  Name = 7135391
REMARK  9 active torsions:
REMARK  status: ('A' for Active; 'I' for Inactive)
REMARK    1  A    between atoms: O_2  and  C_16
REMARK    2  A    between atoms: O_2  and  C_22
REMARK    3  A    between atoms: N_4  and  C_20
REMARK    4  A    between atoms: C_5  and  C_8
REMARK    5  A    between atoms: C_8  and  C_14
REMARK    6  A    between atoms: C_8  and  C_15
REMARK    7  A    between atoms: C_12  and  C_18
REMARK    8  A    between atoms: C_13  and  C_19
REMARK    9  A    between atoms: C_20  and  C_21
REMARK                            x       y       z     vdW  Elec       q    Type
REMARK                         _______ _______ _______ _____ _____    ______ ____
ROOT
ATOM      5  C   UNL     1      -3.168  -0.598  24.749  0.00  0.00    +0.005 C 
ATOM      6  C   UNL     1      -4.544  -0.214  24.196  0.00  0.00    +0.009 C 
ATOM      7  C   UNL     1      -2.176   0.551  24.514  0.00  0.00    +0.040 C 
ATOM      9  C   UNL     1      -5.098   1.005  24.933  0.00  0.00    +0.036 C 
ATOM     10  C   UNL     1      -2.718   1.903  24.911  0.00  0.00    -0.037 A 
ATOM     11  C   UNL     1      -4.098   2.125  25.069  0.00  0.00    -0.041 A 
ATOM     12  C   UNL     1      -1.825   2.974  25.070  0.00  0.00    -0.005 A 
ATOM     13  C   UNL     1      -4.553   3.405  25.419  0.00  0.00    -0.044 A 
ATOM     16  C   UNL     1      -2.291   4.244  25.408  0.00  0.00    +0.124 A 
ATOM     17  C   UNL     1      -3.655   4.459  25.584  0.00  0.00    +0.049 A 
ATOM     18  C   UNL     1      -0.353   2.781  24.871  0.00  0.00    +0.048 C 
ATOM     19  C   UNL     1      -6.007   3.686  25.635  0.00  0.00    +0.044 C 
ENDROOT
BRANCH  16   2
ATOM      2  O   UNL     1      -1.429   5.287  25.566  0.00  0.00    -0.495 OA
ATOM     22  C   UNL     1      -0.645   5.657  24.434  0.00  0.00    +0.277 C 
ENDBRANCH  16   2
BRANCH   5   8
ATOM      8  C   UNL     1      -2.661  -1.887  24.105  0.00  0.00    +0.075 C 
ATOM     14  C   UNL     1      -3.655  -3.024  24.335  0.00  0.00    +0.017 C 
BRANCH   8  15
ATOM      3  O   UNL     1      -1.123  -3.185  25.457  0.00  0.00    -0.276 OA
ATOM      4  N   UNL     1      -0.271  -1.477  24.138  0.00  0.00    -0.310 N 
ATOM     15  C   UNL     1      -1.287  -2.270  24.653  0.00  0.00    +0.216 C 
ATOM     26  H   UNL     1      -0.487  -0.738  23.478  0.00  0.00    +0.149 HD
BRANCH   4  20
ATOM     20  C   UNL     1       1.116  -1.651  24.503  0.00  0.00    +0.146 C 
BRANCH  20  21
ATOM      1  S   UNL     1       3.683  -1.019  23.714  0.00  0.00    -0.100 S 
ATOM     21  C   UNL     1       1.999  -0.789  23.645  0.00  0.00    +0.007 A 
ATOM     23  C   UNL     1       1.620   0.193  22.780  0.00  0.00    +0.013 A 
ATOM     24  C   UNL     1       2.748   0.787  22.145  0.00  0.00    +0.008 A 
ATOM     25  C   UNL     1       3.932   0.222  22.562  0.00  0.00    +0.045 A 
ENDBRANCH  20  21
ENDBRANCH   4  20
ENDBRANCH   8  15
ENDBRANCH   5   8
TORSDOF 5
ENDMDL
MODEL 7
REMARK VINA RESULT:      -0.9     14.497     16.998
REMARK  Name = 7135391
REMARK  9 active torsions:
REMARK  status: ('A' for Active; 'I' for Inactive)
REMARK    1  A    between atoms: O_2  and  C_16
REMARK    2  A    between atoms: O_2  and  C_22
REMARK    3  A    between atoms: N_4  and  C_20
REMARK    4  A    between atoms: C_5  and  C_8
REMARK    5  A    between atoms: C_8  and  C_14
REMARK    6  A    between atoms: C_8  and  C_15
REMARK    7  A    between atoms: C_12  and  C_18
REMARK    8  A    between atoms: C_13  and  C_19
REMARK    9  A    between atoms: C_20  and  C_21
REMARK                            x       y       z     vdW  Elec       q    Type
REMARK                         _______ _______ _______ _____ _____    ______ ____
ROOT
ATOM      5  C   UNL     1      -0.496   1.073  24.713  0.00  0.00    +0.005 C 
ATOM      6  C   UNL     1      -0.618  -0.126  23.768  0.00  0.00    +0.009 C 
ATOM      7  C   UNL     1      -1.751   1.951  24.603  0.00  0.00    +0.040 C 
ATOM      9  C   UNL     1      -1.805  -1.003  24.164  0.00  0.00    +0.036 C 
ATOM     10  C   UNL     1      -3.039   1.165  24.661  0.00  0.00    -0.037 A 
ATOM     11  C   UNL     1      -3.068  -0.219  24.414  0.00  0.00    -0.041 A 
ATOM     12  C   UNL     1      -4.241   1.846  24.910  0.00  0.00    -0.005 A 
ATOM     13  C   UNL     1      -4.295  -0.900  24.458  0.00  0.00    -0.044 A 
ATOM     16  C   UNL     1      -5.454   1.159  24.941  0.00  0.00    +0.124 A 
ATOM     17  C   UNL     1      -5.480  -0.214  24.717  0.00  0.00    +0.049 A 
ATOM     18  C   UNL     1      -4.251   3.327  25.139  0.00  0.00    +0.048 C 
ATOM     19  C   UNL     1      -4.377  -2.378  24.240  0.00  0.00    +0.044 C 
ENDROOT
BRANCH  16   2
ATOM      2  O   UNL     1      -6.623   1.814  25.186  0.00  0.00    -0.495 OA
ATOM     22  C   UNL     1      -6.957   2.057  26.551  0.00  0.00    +0.277 C 
ENDBRANCH  16   2
BRANCH   5   8
ATOM      8  C   UNL     1       0.759   1.887  24.404  0.00  0.00    +0.075 C 
ATOM     14  C   UNL     1       0.379   3.270  23.878  0.00  0.00    +0.017 C 
BRANCH   8  15
ATOM      3  O   UNL     1       1.260   0.201  22.736  0.00  0.00    -0.276 OA
ATOM      4  N   UNL     1       2.914   1.725  23.304  0.00  0.00    -0.310 N 
ATOM     15  C   UNL     1       1.646   1.165  23.391  0.00  0.00    +0.216 C 
ATOM     26  H   UNL     1       3.160   2.522  23.881  0.00  0.00    +0.149 HD
BRANCH   4  20
ATOM     20  C   UNL     1       3.931   1.218  22.412  0.00  0.00    +0.146 C 
BRANCH  20  21
ATOM      1  S   UNL     1       4.107  -1.282  23.565  0.00  0.00    -0.100 S 
ATOM     21  C   UNL     1       4.794   0.208  23.114  0.00  0.00    +0.007 A 
ATOM     23  C   UNL     1       6.107   0.326  23.454  0.00  0.00    +0.013 A 
ATOM     24  C   UNL     1       6.579  -0.848  24.111  0.00  0.00    +0.008 A 
ATOM     25  C   UNL     1       5.593  -1.801  24.237  0.00  0.00    +0.045 A 
ENDBRANCH  20  21
ENDBRANCH   4  20
ENDBRANCH   8  15
ENDBRANCH   5   8
TORSDOF 5
ENDMDL
MODEL 8
REMARK VINA RESULT:      -0.5     15.598     17.706
REMARK  Name = 7135391
REMARK  9 active torsions:
REMARK  status: ('A' for Active; 'I' for Inactive)
REMARK    1  A    between atoms: O_2  and  C_16
REMARK    2  A    between atoms: O_2  and  C_22
REMARK    3  A    between atoms: N_4  and  C_20
REMARK    4  A    between atoms: C_5  and  C_8
REMARK    5  A    between atoms: C_8  and  C_14
REMARK    6  A    between atoms: C_8  and  C_15
REMARK    7  A    between atoms: C_12  and  C_18
REMARK    8  A    between atoms: C_13  and  C_19
REMARK    9  A    between atoms: C_20  and  C_21
REMARK                            x       y       z     vdW  Elec       q    Type
REMARK                         _______ _______ _______ _____ _____    ______ ____
ROOT
ATOM      5  C   UNL     1      -1.008   1.543  25.221  0.00  0.00    +0.005 C 
ATOM      6  C   UNL     1      -1.565   0.625  24.130  0.00  0.00    +0.009 C 
ATOM      7  C   UNL     1      -1.836   2.835  25.285  0.00  0.00    +0.040 C 
ATOM      9  C   UNL     1      -3.000   0.212  24.458  0.00  0.00    +0.036 C 
ATOM     10  C   UNL     1      -3.326   2.592  25.294  0.00  0.00    -0.037 A 
ATOM     11  C   UNL     1      -3.875   1.370  24.866  0.00  0.00    -0.041 A 
ATOM     12  C   UNL     1      -4.183   3.633  25.685  0.00  0.00    -0.005 A 
ATOM     13  C   UNL     1      -5.268   1.201  24.874  0.00  0.00    -0.044 A 
ATOM     16  C   UNL     1      -5.566   3.456  25.678  0.00  0.00    +0.124 A 
ATOM     17  C   UNL     1      -6.108   2.240  25.274  0.00  0.00    +0.049 A 
ATOM     18  C   UNL     1      -3.633   4.961  26.110  0.00  0.00    +0.048 C 
ATOM     19  C   UNL     1      -5.901  -0.091  24.464  0.00  0.00    +0.044 C 
ENDROOT
BRANCH  16   2
ATOM      2  O   UNL     1      -6.402   4.461  26.060  0.00  0.00    -0.495 OA
ATOM     22  C   UNL     1      -6.628   5.509  25.118  0.00  0.00    +0.277 C 
ENDBRANCH  16   2
BRANCH   5   8
ATOM      8  C   UNL     1       0.465   1.861  24.968  0.00  0.00    +0.075 C 
ATOM     14  C   UNL     1       0.615   3.268  24.392  0.00  0.00    +0.017 C 
BRANCH   8  15
ATOM      3  O   UNL     1       0.647  -0.299  23.882  0.00  0.00    -0.276 OA
ATOM      4  N   UNL     1       2.203   1.340  23.360  0.00  0.00    -0.310 N 
ATOM     15  C   UNL     1       1.093   0.837  24.024  0.00  0.00    +0.216 C 
ATOM     26  H   UNL     1       2.513   2.291  23.532  0.00  0.00    +0.149 HD
BRANCH   4  20
ATOM     20  C   UNL     1       2.965   0.561  22.411  0.00  0.00    +0.146 C 
BRANCH  20  21
ATOM      1  S   UNL     1       4.103  -1.580  23.727  0.00  0.00    -0.100 S 
ATOM     21  C   UNL     1       4.189  -0.017  23.064  0.00  0.00    +0.007 A 
ATOM     23  C   UNL     1       5.413   0.566  23.202  0.00  0.00    +0.013 A 
ATOM     24  C   UNL     1       6.323  -0.297  23.879  0.00  0.00    +0.008 A 
ATOM     25  C   UNL     1       5.740  -1.496  24.221  0.00  0.00    +0.045 A 
ENDBRANCH  20  21
ENDBRANCH   4  20
ENDBRANCH   8  15
ENDBRANCH   5   8
TORSDOF 5
ENDMDL
MODEL 9
REMARK VINA RESULT:      -0.3     14.876     16.651
REMARK  Name = 7135391
REMARK  9 active torsions:
REMARK  status: ('A' for Active; 'I' for Inactive)
REMARK    1  A    between atoms: O_2  and  C_16
REMARK    2  A    between atoms: O_2  and  C_22
REMARK    3  A    between atoms: N_4  and  C_20
REMARK    4  A    between atoms: C_5  and  C_8
REMARK    5  A    between atoms: C_8  and  C_14
REMARK    6  A    between atoms: C_8  and  C_15
REMARK    7  A    between atoms: C_12  and  C_18
REMARK    8  A    between atoms: C_13  and  C_19
REMARK    9  A    between atoms: C_20  and  C_21
REMARK                            x       y       z     vdW  Elec       q    Type
REMARK                         _______ _______ _______ _____ _____    ______ ____
ROOT
ATOM      5  C   UNL     1       0.292  -0.483  23.735  0.00  0.00    +0.005 C 
ATOM      6  C   UNL     1      -0.071  -1.935  23.411  0.00  0.00    +0.009 C 
ATOM      7  C   UNL     1      -0.885   0.438  23.379  0.00  0.00    +0.040 C 
ATOM      9  C   UNL     1      -1.259  -2.392  24.257  0.00  0.00    +0.036 C 
ATOM     10  C   UNL     1      -2.214  -0.063  23.891  0.00  0.00    -0.037 A 
ATOM     11  C   UNL     1      -2.399  -1.406  24.266  0.00  0.00    -0.041 A 
ATOM     12  C   UNL     1      -3.303   0.822  23.938  0.00  0.00    -0.005 A 
ATOM     13  C   UNL     1      -3.660  -1.827  24.716  0.00  0.00    -0.044 A 
ATOM     16  C   UNL     1      -4.553   0.388  24.377  0.00  0.00    +0.124 A 
ATOM     17  C   UNL     1      -4.731  -0.935  24.767  0.00  0.00    +0.049 A 
ATOM     18  C   UNL     1      -3.150   2.249  23.509  0.00  0.00    +0.048 C 
ATOM     19  C   UNL     1      -3.902  -3.235  25.162  0.00  0.00    +0.044 C 
ENDROOT
BRANCH  16   2
ATOM      2  O   UNL     1      -5.612   1.243  24.427  0.00  0.00    -0.495 OA
ATOM     22  C   UNL     1      -5.969   1.759  25.709  0.00  0.00    +0.277 C 
ENDBRANCH  16   2
BRANCH   5   8
ATOM      8  C   UNL     1       1.553  -0.056  22.987  0.00  0.00    +0.075 C 
ATOM     14  C   UNL     1       2.724  -0.966  23.354  0.00  0.00    +0.017 C 
BRANCH   8  15
ATOM      3  O   UNL     1       2.997   1.892  23.015  0.00  0.00    -0.276 OA
ATOM      4  N   UNL     1       0.858   2.083  23.892  0.00  0.00    -0.310 N 
ATOM     15  C   UNL     1       1.904   1.400  23.288  0.00  0.00    +0.216 C 
ATOM     26  H   UNL     1      -0.016   1.607  24.088  0.00  0.00    +0.149 HD
BRANCH   4  20
ATOM     20  C   UNL     1       0.948   3.475  24.268  0.00  0.00    +0.146 C 
BRANCH  20  21
ATOM      1  S   UNL     1      -1.083   2.916  26.049  0.00  0.00    -0.100 S 
ATOM     21  C   UNL     1      -0.331   3.932  24.912  0.00  0.00    +0.007 A 
ATOM     23  C   UNL     1      -1.000   5.100  24.700  0.00  0.00    +0.013 A 
ATOM     24  C   UNL     1      -2.178   5.173  25.498  0.00  0.00    +0.008 A 
ATOM     25  C   UNL     1      -2.343   4.051  26.279  0.00  0.00    +0.045 A 
ENDBRANCH  20  21
ENDBRANCH   4  20
ENDBRANCH   8  15
ENDBRANCH   5   8
TORSDOF 5
ENDMDL
