MODEL 1
REMARK VINA RESULT:      -6.6      0.000      0.000
REMARK  Name = 25390478
REMARK  9 active torsions:
REMARK  status: ('A' for Active; 'I' for Inactive)
REMARK    1  A    between atoms: O_3  and  C_12
REMARK    2  A    between atoms: O_4  and  C_13
REMARK    3  A    between atoms: N_6  and  C_8
REMARK    4  A    between atoms: N_7  and  C_16
REMARK    5  A    between atoms: N_7  and  C_18
REMARK    6  A    between atoms: C_9  and  C_15
REMARK    7  A    between atoms: C_14  and  C_16
REMARK    8  A    between atoms: C_15  and  C_17
REMARK    9  A    between atoms: C_18  and  C_19
REMARK                            x       y       z     vdW  Elec       q    Type
REMARK                         _______ _______ _______ _____ _____    ______ ____
ROOT
ATOM      2  O   UNL     1      -1.149  -1.070  23.889  0.00  0.00    -0.366 OA
ATOM      9  C   UNL     1      -0.185  -0.071  24.267  0.00  0.00    +0.158 C 
ATOM     12  C   UNL     1      -0.880   0.798  25.302  0.00  0.00    +0.175 C 
ATOM     13  C   UNL     1      -1.728  -0.222  26.035  0.00  0.00    +0.175 C 
ATOM     14  C   UNL     1      -2.182  -1.131  24.899  0.00  0.00    +0.163 C 
ENDROOT
BRANCH  12   3
ATOM      3  O   UNL     1       0.041   1.464  26.140  0.00  0.00    -0.387 OA
ATOM     26  H   UNL     1      -0.350   2.320  26.380  0.00  0.00    +0.210 HD
ENDBRANCH  12   3
BRANCH  13   4
ATOM      4  O   UNL     1      -0.918  -0.993  26.923  0.00  0.00    -0.387 OA
ATOM     27  H   UNL     1      -0.998  -0.595  27.807  0.00  0.00    +0.210 HD
ENDBRANCH  13   4
BRANCH   9  15
ATOM     15  C   UNL     1       0.262   0.700  23.038  0.00  0.00    +0.130 C 
BRANCH  15  17
ATOM      5  O   UNL     1       1.577  -0.577  21.456  0.00  0.00    -0.276 OA
ATOM      6  N   UNL     1       2.661   0.578  23.154  0.00  0.00    -0.312 N 
ATOM     17  C   UNL     1       1.546   0.153  22.444  0.00  0.00    +0.216 C 
ATOM     25  H   UNL     1       2.542   1.177  23.967  0.00  0.00    +0.149 HD
BRANCH   6   8
ATOM      8  C   UNL     1       3.996   0.197  22.794  0.00  0.00    +0.073 C 
ATOM     10  C   UNL     1       5.179   0.680  23.580  0.00  0.00    +0.024 C 
ATOM     11  C   UNL     1       4.783  -0.766  23.635  0.00  0.00    +0.024 C 
ENDBRANCH   6   8
ENDBRANCH  15  17
ENDBRANCH   9  15
BRANCH  14  16
ATOM     16  C   UNL     1      -3.486  -0.678  24.258  0.00  0.00    +0.115 C 
BRANCH  16   7
ATOM      7  N   UNL     1      -4.331   0.015  25.221  0.00  0.00    -0.309 NA
ATOM     28  H   UNL     1      -5.094  -0.600  25.503  0.00  0.00    +0.122 HD
BRANCH   7  18
ATOM     18  C   UNL     1      -4.870   1.242  24.653  0.00  0.00    +0.116 C 
BRANCH  18  19
ATOM      1  F   UNL     1      -1.371   5.602  25.356  0.00  0.00    -0.205 F 
ATOM     19  C   UNL     1      -3.935   2.407  24.841  0.00  0.00    -0.033 A 
ATOM     20  C   UNL     1      -3.037   2.750  23.830  0.00  0.00    +0.008 A 
ATOM     21  C   UNL     1      -3.967   3.143  26.025  0.00  0.00    +0.008 A 
ATOM     22  C   UNL     1      -2.170   3.830  24.005  0.00  0.00    +0.038 A 
ATOM     23  C   UNL     1      -3.100   4.222  26.200  0.00  0.00    +0.038 A 
ATOM     24  C   UNL     1      -2.202   4.565  25.188  0.00  0.00    +0.123 A 
ENDBRANCH  18  19
ENDBRANCH   7  18
ENDBRANCH  16   7
ENDBRANCH  14  16
TORSDOF 9
ENDMDL
MODEL 2
REMARK VINA RESULT:      -6.4      1.275      1.873
REMARK  Name = 25390478
REMARK  9 active torsions:
REMARK  status: ('A' for Active; 'I' for Inactive)
REMARK    1  A    between atoms: O_3  and  C_12
REMARK    2  A    between atoms: O_4  and  C_13
REMARK    3  A    between atoms: N_6  and  C_8
REMARK    4  A    between atoms: N_7  and  C_16
REMARK    5  A    between atoms: N_7  and  C_18
REMARK    6  A    between atoms: C_9  and  C_15
REMARK    7  A    between atoms: C_14  and  C_16
REMARK    8  A    between atoms: C_15  and  C_17
REMARK    9  A    between atoms: C_18  and  C_19
REMARK                            x       y       z     vdW  Elec       q    Type
REMARK                         _______ _______ _______ _____ _____    ______ ____
ROOT
ATOM      2  O   UNL     1      -0.047  -1.373  24.326  0.00  0.00    -0.366 OA
ATOM      9  C   UNL     1       0.170   0.036  24.513  0.00  0.00    +0.158 C 
ATOM     12  C   UNL     1      -1.084   0.558  25.194  0.00  0.00    +0.175 C 
ATOM     13  C   UNL     1      -1.453  -0.610  26.087  0.00  0.00    +0.175 C 
ATOM     14  C   UNL     1      -1.114  -1.804  25.202  0.00  0.00    +0.163 C 
ENDROOT
BRANCH  12   3
ATOM      3  O   UNL     1      -0.843   1.752  25.907  0.00  0.00    -0.387 OA
ATOM     26  H   UNL     1      -1.263   1.661  26.778  0.00  0.00    +0.210 HD
ENDBRANCH  12   3
BRANCH  13   4
ATOM      4  O   UNL     1      -0.599  -0.647  27.230  0.00  0.00    -0.387 OA
ATOM     27  H   UNL     1       0.284  -0.918  26.923  0.00  0.00    +0.210 HD
ENDBRANCH  13   4
BRANCH   9  15
ATOM     15  C   UNL     1       0.445   0.693  23.172  0.00  0.00    +0.130 C 
BRANCH  15  17
ATOM      5  O   UNL     1       1.770  -0.410  21.474  0.00  0.00    -0.276 OA
ATOM      6  N   UNL     1       2.840   0.534  23.306  0.00  0.00    -0.312 N 
ATOM     17  C   UNL     1       1.732   0.203  22.538  0.00  0.00    +0.216 C 
ATOM     25  H   UNL     1       2.716   1.039  24.179  0.00  0.00    +0.149 HD
BRANCH   6   8
ATOM      8  C   UNL     1       4.177   0.181  22.922  0.00  0.00    +0.073 C 
ATOM     10  C   UNL     1       5.362   0.660  23.709  0.00  0.00    +0.024 C 
ATOM     11  C   UNL     1       4.985  -0.793  23.728  0.00  0.00    +0.024 C 
ENDBRANCH   6   8
ENDBRANCH  15  17
ENDBRANCH   9  15
BRANCH  14  16
ATOM     16  C   UNL     1      -2.280  -2.251  24.331  0.00  0.00    +0.115 C 
BRANCH  16   7
ATOM      7  N   UNL     1      -3.555  -1.910  24.947  0.00  0.00    -0.309 NA
ATOM     28  H   UNL     1      -4.012  -2.763  25.269  0.00  0.00    +0.122 HD
BRANCH   7  18
ATOM     18  C   UNL     1      -4.419  -1.212  24.005  0.00  0.00    +0.116 C 
BRANCH  18  19
ATOM      1  F   UNL     1      -3.860   4.381  24.392  0.00  0.00    -0.205 F 
ATOM     19  C   UNL     1      -4.270   0.282  24.108  0.00  0.00    -0.033 A 
ATOM     20  C   UNL     1      -4.927   0.981  25.122  0.00  0.00    +0.008 A 
ATOM     21  C   UNL     1      -3.474   0.969  23.191  0.00  0.00    +0.008 A 
ATOM     22  C   UNL     1      -4.789   2.366  25.217  0.00  0.00    +0.038 A 
ATOM     23  C   UNL     1      -3.336   2.354  23.287  0.00  0.00    +0.038 A 
ATOM     24  C   UNL     1      -3.994   3.052  24.300  0.00  0.00    +0.123 A 
ENDBRANCH  18  19
ENDBRANCH   7  18
ENDBRANCH  16   7
ENDBRANCH  14  16
TORSDOF 9
ENDMDL
MODEL 3
REMARK VINA RESULT:      -6.1      2.833      6.655
REMARK  Name = 25390478
REMARK  9 active torsions:
REMARK  status: ('A' for Active; 'I' for Inactive)
REMARK    1  A    between atoms: O_3  and  C_12
REMARK    2  A    between atoms: O_4  and  C_13
REMARK    3  A    between atoms: N_6  and  C_8
REMARK    4  A    between atoms: N_7  and  C_16
REMARK    5  A    between atoms: N_7  and  C_18
REMARK    6  A    between atoms: C_9  and  C_15
REMARK    7  A    between atoms: C_14  and  C_16
REMARK    8  A    between atoms: C_15  and  C_17
REMARK    9  A    between atoms: C_18  and  C_19
REMARK                            x       y       z     vdW  Elec       q    Type
REMARK                         _______ _______ _______ _____ _____    ______ ____
ROOT
ATOM      2  O   UNL     1      -1.757   1.807  23.325  0.00  0.00    -0.366 OA
ATOM      9  C   UNL     1      -2.643   2.772  23.918  0.00  0.00    +0.158 C 
ATOM     12  C   UNL     1      -2.193   2.908  25.363  0.00  0.00    +0.175 C 
ATOM     13  C   UNL     1      -0.691   2.755  25.228  0.00  0.00    +0.175 C 
ATOM     14  C   UNL     1      -0.578   1.681  24.152  0.00  0.00    +0.163 C 
ENDROOT
BRANCH  12   3
ATOM      3  O   UNL     1      -2.580   4.145  25.924  0.00  0.00    -0.387 OA
ATOM     26  H   UNL     1      -2.491   4.067  26.889  0.00  0.00    +0.210 HD
ENDBRANCH  12   3
BRANCH  13   4
ATOM      4  O   UNL     1      -0.115   3.957  24.718  0.00  0.00    -0.387 OA
ATOM     27  H   UNL     1       0.503   4.291  25.391  0.00  0.00    +0.210 HD
ENDBRANCH  13   4
BRANCH   9  15
ATOM     15  C   UNL     1      -4.080   2.300  23.778  0.00  0.00    +0.130 C 
BRANCH  15  17
ATOM      5  O   UNL     1      -5.060   1.107  25.642  0.00  0.00    -0.276 OA
ATOM      6  N   UNL     1      -3.778  -0.064  24.100  0.00  0.00    -0.312 N 
ATOM     17  C   UNL     1      -4.375   1.076  24.623  0.00  0.00    +0.216 C 
ATOM     25  H   UNL     1      -3.220   0.003  23.253  0.00  0.00    +0.149 HD
BRANCH   6   8
ATOM      8  C   UNL     1      -3.905  -1.352  24.717  0.00  0.00    +0.073 C 
ATOM     10  C   UNL     1      -4.222  -2.573  23.903  0.00  0.00    +0.024 C 
ATOM     11  C   UNL     1      -2.863  -2.414  24.520  0.00  0.00    +0.024 C 
ENDBRANCH   6   8
ENDBRANCH  15  17
ENDBRANCH   9  15
BRANCH  14  16
ATOM     16  C   UNL     1      -0.556   0.269  24.720  0.00  0.00    +0.115 C 
BRANCH  16   7
ATOM      7  N   UNL     1       0.253  -0.616  23.893  0.00  0.00    -0.309 NA
ATOM     28  H   UNL     1       0.909  -1.125  24.485  0.00  0.00    +0.122 HD
BRANCH   7  18
ATOM     18  C   UNL     1       0.983   0.136  22.882  0.00  0.00    +0.116 C 
BRANCH  18  19
ATOM      1  F   UNL     1       6.559  -0.264  23.584  0.00  0.00    -0.205 F 
ATOM     19  C   UNL     1       2.473   0.029  23.069  0.00  0.00    -0.033 A 
ATOM     20  C   UNL     1       3.296   1.108  22.746  0.00  0.00    +0.008 A 
ATOM     21  C   UNL     1       3.030  -1.149  23.566  0.00  0.00    +0.008 A 
ATOM     22  C   UNL     1       4.676   1.009  22.919  0.00  0.00    +0.038 A 
ATOM     23  C   UNL     1       4.411  -1.248  23.740  0.00  0.00    +0.038 A 
ATOM     24  C   UNL     1       5.234  -0.169  23.416  0.00  0.00    +0.123 A 
ENDBRANCH  18  19
ENDBRANCH   7  18
ENDBRANCH  16   7
ENDBRANCH  14  16
TORSDOF 9
ENDMDL
MODEL 4
REMARK VINA RESULT:      -6.1      1.433      1.796
REMARK  Name = 25390478
REMARK  9 active torsions:
REMARK  status: ('A' for Active; 'I' for Inactive)
REMARK    1  A    between atoms: O_3  and  C_12
REMARK    2  A    between atoms: O_4  and  C_13
REMARK    3  A    between atoms: N_6  and  C_8
REMARK    4  A    between atoms: N_7  and  C_16
REMARK    5  A    between atoms: N_7  and  C_18
REMARK    6  A    between atoms: C_9  and  C_15
REMARK    7  A    between atoms: C_14  and  C_16
REMARK    8  A    between atoms: C_15  and  C_17
REMARK    9  A    between atoms: C_18  and  C_19
REMARK                            x       y       z     vdW  Elec       q    Type
REMARK                         _______ _______ _______ _____ _____    ______ ____
ROOT
ATOM      2  O   UNL     1      -2.542   0.287  23.863  0.00  0.00    -0.366 OA
ATOM      9  C   UNL     1      -1.206  -0.004  24.310  0.00  0.00    +0.158 C 
ATOM     12  C   UNL     1      -1.366  -0.917  25.513  0.00  0.00    +0.175 C 
ATOM     13  C   UNL     1      -2.578  -1.735  25.115  0.00  0.00    +0.175 C 
ATOM     14  C   UNL     1      -3.447  -0.694  24.418  0.00  0.00    +0.163 C 
ENDROOT
BRANCH  12   3
ATOM      3  O   UNL     1      -0.214  -1.701  25.741  0.00  0.00    -0.387 OA
ATOM     26  H   UNL     1       0.383  -1.185  26.308  0.00  0.00    +0.210 HD
ENDBRANCH  12   3
BRANCH  13   4
ATOM      4  O   UNL     1      -2.213  -2.724  24.153  0.00  0.00    -0.387 OA
ATOM     27  H   UNL     1      -1.249  -2.673  24.036  0.00  0.00    +0.210 HD
ENDBRANCH  13   4
BRANCH   9  15
ATOM     15  C   UNL     1      -0.479   1.290  24.629  0.00  0.00    +0.130 C 
BRANCH  15  17
ATOM      5  O   UNL     1       1.468   2.468  23.804  0.00  0.00    -0.276 OA
ATOM      6  N   UNL     1       1.222   0.212  23.315  0.00  0.00    -0.312 N 
ATOM     17  C   UNL     1       0.836   1.418  23.884  0.00  0.00    +0.216 C 
ATOM     25  H   UNL     1       0.633  -0.609  23.426  0.00  0.00    +0.149 HD
BRANCH   6   8
ATOM      8  C   UNL     1       2.431   0.069  22.556  0.00  0.00    +0.073 C 
ATOM     10  C   UNL     1       3.629   0.926  22.839  0.00  0.00    +0.024 C 
ATOM     11  C   UNL     1       3.662  -0.539  23.164  0.00  0.00    +0.024 C 
ENDBRANCH   6   8
ENDBRANCH  15  17
ENDBRANCH   9  15
BRANCH  14  16
ATOM     16  C   UNL     1      -4.390   0.029  25.370  0.00  0.00    +0.115 C 
BRANCH  16   7
ATOM      7  N   UNL     1      -5.319   0.882  24.641  0.00  0.00    -0.309 NA
ATOM     28  H   UNL     1      -4.957   1.048  23.702  0.00  0.00    +0.122 HD
BRANCH   7  18
ATOM     18  C   UNL     1      -5.512   2.150  25.329  0.00  0.00    +0.116 C 
BRANCH  18  19
ATOM      1  F   UNL     1      -0.936   5.424  25.028  0.00  0.00    -0.205 F 
ATOM     19  C   UNL     1      -4.288   3.024  25.249  0.00  0.00    -0.033 A 
ATOM     20  C   UNL     1      -3.731   3.332  24.007  0.00  0.00    +0.008 A 
ATOM     21  C   UNL     1      -3.714   3.528  26.415  0.00  0.00    +0.008 A 
ATOM     22  C   UNL     1      -2.598   4.142  23.933  0.00  0.00    +0.038 A 
ATOM     23  C   UNL     1      -2.580   4.338  26.341  0.00  0.00    +0.038 A 
ATOM     24  C   UNL     1      -2.022   4.645  25.099  0.00  0.00    +0.123 A 
ENDBRANCH  18  19
ENDBRANCH   7  18
ENDBRANCH  16   7
ENDBRANCH  14  16
TORSDOF 9
ENDMDL
MODEL 5
REMARK VINA RESULT:      -5.9      2.844      6.677
REMARK  Name = 25390478
REMARK  9 active torsions:
REMARK  status: ('A' for Active; 'I' for Inactive)
REMARK    1  A    between atoms: O_3  and  C_12
REMARK    2  A    between atoms: O_4  and  C_13
REMARK    3  A    between atoms: N_6  and  C_8
REMARK    4  A    between atoms: N_7  and  C_16
REMARK    5  A    between atoms: N_7  and  C_18
REMARK    6  A    between atoms: C_9  and  C_15
REMARK    7  A    between atoms: C_14  and  C_16
REMARK    8  A    between atoms: C_15  and  C_17
REMARK    9  A    between atoms: C_18  and  C_19
REMARK                            x       y       z     vdW  Elec       q    Type
REMARK                         _______ _______ _______ _____ _____    ______ ____
ROOT
ATOM      2  O   UNL     1      -2.902   0.239  25.588  0.00  0.00    -0.366 OA
ATOM      9  C   UNL     1      -4.102  -0.297  25.004  0.00  0.00    +0.158 C 
ATOM     12  C   UNL     1      -3.638  -1.286  23.949  0.00  0.00    +0.175 C 
ATOM     13  C   UNL     1      -2.397  -1.864  24.599  0.00  0.00    +0.175 C 
ATOM     14  C   UNL     1      -1.796  -0.639  25.279  0.00  0.00    +0.163 C 
ENDROOT
BRANCH  12   3
ATOM      3  O   UNL     1      -4.622  -2.257  23.662  0.00  0.00    -0.387 OA
ATOM     26  H   UNL     1      -4.809  -2.735  24.486  0.00  0.00    +0.210 HD
ENDBRANCH  12   3
BRANCH  13   4
ATOM      4  O   UNL     1      -2.761  -2.800  25.613  0.00  0.00    -0.387 OA
ATOM     27  H   UNL     1      -3.719  -2.953  25.536  0.00  0.00    +0.210 HD
ENDBRANCH  13   4
BRANCH   9  15
ATOM     15  C   UNL     1      -4.945   0.833  24.440  0.00  0.00    +0.130 C 
BRANCH  15  17
ATOM      5  O   UNL     1      -5.218   2.714  25.939  0.00  0.00    -0.276 OA
ATOM      6  N   UNL     1      -3.456   2.722  24.427  0.00  0.00    -0.312 N 
ATOM     17  C   UNL     1      -4.582   2.181  25.033  0.00  0.00    +0.216 C 
ATOM     25  H   UNL     1      -2.994   2.213  23.677  0.00  0.00    +0.149 HD
BRANCH   6   8
ATOM      8  C   UNL     1      -2.910   3.992  24.808  0.00  0.00    +0.073 C 
ATOM     10  C   UNL     1      -2.370   4.220  26.190  0.00  0.00    +0.024 C 
ATOM     11  C   UNL     1      -1.434   4.171  25.018  0.00  0.00    +0.024 C 
ENDBRANCH   6   8
ENDBRANCH  15  17
ENDBRANCH   9  15
BRANCH  14  16
ATOM     16  C   UNL     1      -0.831   0.125  24.384  0.00  0.00    +0.115 C 
BRANCH  16   7
ATOM      7  N   UNL     1       0.333  -0.686  24.055  0.00  0.00    -0.309 NA
ATOM     28  H   UNL     1       0.973  -0.696  24.849  0.00  0.00    +0.122 HD
BRANCH   7  18
ATOM     18  C   UNL     1       1.015  -0.167  22.878  0.00  0.00    +0.116 C 
BRANCH  18  19
ATOM      1  F   UNL     1       6.606  -0.059  23.569  0.00  0.00    -0.205 F 
ATOM     19  C   UNL     1       2.509  -0.138  23.062  0.00  0.00    -0.033 A 
ATOM     20  C   UNL     1       3.233   1.003  22.714  0.00  0.00    +0.008 A 
ATOM     21  C   UNL     1       3.169  -1.251  23.582  0.00  0.00    +0.008 A 
ATOM     22  C   UNL     1       4.618   1.029  22.885  0.00  0.00    +0.038 A 
ATOM     23  C   UNL     1       4.554  -1.225  23.752  0.00  0.00    +0.038 A 
ATOM     24  C   UNL     1       5.278  -0.084  23.403  0.00  0.00    +0.123 A 
ENDBRANCH  18  19
ENDBRANCH   7  18
ENDBRANCH  16   7
ENDBRANCH  14  16
TORSDOF 9
ENDMDL
MODEL 6
REMARK VINA RESULT:      -5.8      3.410      6.361
REMARK  Name = 25390478
REMARK  9 active torsions:
REMARK  status: ('A' for Active; 'I' for Inactive)
REMARK    1  A    between atoms: O_3  and  C_12
REMARK    2  A    between atoms: O_4  and  C_13
REMARK    3  A    between atoms: N_6  and  C_8
REMARK    4  A    between atoms: N_7  and  C_16
REMARK    5  A    between atoms: N_7  and  C_18
REMARK    6  A    between atoms: C_9  and  C_15
REMARK    7  A    between atoms: C_14  and  C_16
REMARK    8  A    between atoms: C_15  and  C_17
REMARK    9  A    between atoms: C_18  and  C_19
REMARK                            x       y       z     vdW  Elec       q    Type
REMARK                         _______ _______ _______ _____ _____    ______ ____
ROOT
ATOM      2  O   UNL     1      -0.166   3.350  24.026  0.00  0.00    -0.366 OA
ATOM      9  C   UNL     1      -1.049   3.963  24.982  0.00  0.00    +0.158 C 
ATOM     12  C   UNL     1      -1.475   2.847  25.921  0.00  0.00    +0.175 C 
ATOM     13  C   UNL     1      -0.213   2.011  25.991  0.00  0.00    +0.175 C 
ATOM     14  C   UNL     1       0.298   2.088  24.557  0.00  0.00    +0.163 C 
ENDROOT
BRANCH  12   3
ATOM      3  O   UNL     1      -1.889   3.340  27.177  0.00  0.00    -0.387 OA
ATOM     26  H   UNL     1      -2.726   2.901  27.401  0.00  0.00    +0.210 HD
ENDBRANCH  12   3
BRANCH  13   4
ATOM      4  O   UNL     1       0.749   2.638  26.839  0.00  0.00    -0.387 OA
ATOM     27  H   UNL     1       1.629   2.340  26.549  0.00  0.00    +0.210 HD
ENDBRANCH  13   4
BRANCH   9  15
ATOM     15  C   UNL     1      -2.212   4.617  24.258  0.00  0.00    +0.130 C 
BRANCH  15  17
ATOM      5  O   UNL     1      -3.582   2.844  23.342  0.00  0.00    -0.276 OA
ATOM      6  N   UNL     1      -4.343   4.015  25.197  0.00  0.00    -0.312 N 
ATOM     17  C   UNL     1      -3.433   3.719  24.191  0.00  0.00    +0.216 C 
ATOM     25  H   UNL     1      -4.141   4.763  25.855  0.00  0.00    +0.149 HD
BRANCH   6   8
ATOM      8  C   UNL     1      -5.581   3.307  25.349  0.00  0.00    +0.073 C 
ATOM     10  C   UNL     1      -5.711   1.873  24.927  0.00  0.00    +0.024 C 
ATOM     11  C   UNL     1      -5.739   2.231  26.384  0.00  0.00    +0.024 C 
ENDBRANCH   6   8
ENDBRANCH  15  17
ENDBRANCH   9  15
BRANCH  14  16
ATOM     16  C   UNL     1      -0.249   0.979  23.669  0.00  0.00    +0.115 C 
BRANCH  16   7
ATOM      7  N   UNL     1       0.296  -0.316  24.052  0.00  0.00    -0.309 NA
ATOM     28  H   UNL     1       0.259  -0.946  23.251  0.00  0.00    +0.122 HD
BRANCH   7  18
ATOM     18  C   UNL     1      -0.449  -0.887  25.164  0.00  0.00    +0.116 C 
BRANCH  18  19
ATOM      1  F   UNL     1      -5.527  -2.737  23.568  0.00  0.00    -0.205 F 
ATOM     19  C   UNL     1      -1.806  -1.381  24.737  0.00  0.00    -0.033 A 
ATOM     20  C   UNL     1      -1.989  -2.727  24.415  0.00  0.00    +0.008 A 
ATOM     21  C   UNL     1      -2.880  -0.495  24.664  0.00  0.00    +0.008 A 
ATOM     22  C   UNL     1      -3.246  -3.185  24.020  0.00  0.00    +0.038 A 
ATOM     23  C   UNL     1      -4.137  -0.953  24.268  0.00  0.00    +0.038 A 
ATOM     24  C   UNL     1      -4.319  -2.298  23.946  0.00  0.00    +0.123 A 
ENDBRANCH  18  19
ENDBRANCH   7  18
ENDBRANCH  16   7
ENDBRANCH  14  16
TORSDOF 9
ENDMDL
MODEL 7
REMARK VINA RESULT:      -5.5      2.564      4.421
REMARK  Name = 25390478
REMARK  9 active torsions:
REMARK  status: ('A' for Active; 'I' for Inactive)
REMARK    1  A    between atoms: O_3  and  C_12
REMARK    2  A    between atoms: O_4  and  C_13
REMARK    3  A    between atoms: N_6  and  C_8
REMARK    4  A    between atoms: N_7  and  C_16
REMARK    5  A    between atoms: N_7  and  C_18
REMARK    6  A    between atoms: C_9  and  C_15
REMARK    7  A    between atoms: C_14  and  C_16
REMARK    8  A    between atoms: C_15  and  C_17
REMARK    9  A    between atoms: C_18  and  C_19
REMARK                            x       y       z     vdW  Elec       q    Type
REMARK                         _______ _______ _______ _____ _____    ______ ____
ROOT
ATOM      2  O   UNL     1      -2.286   3.083  26.267  0.00  0.00    -0.366 OA
ATOM      9  C   UNL     1      -0.962   2.990  25.713  0.00  0.00    +0.158 C 
ATOM     12  C   UNL     1      -1.059   3.581  24.317  0.00  0.00    +0.175 C 
ATOM     13  C   UNL     1      -2.071   4.689  24.526  0.00  0.00    +0.175 C 
ATOM     14  C   UNL     1      -3.048   4.045  25.503  0.00  0.00    +0.163 C 
ENDROOT
BRANCH  12   3
ATOM      3  O   UNL     1       0.190   4.047  23.850  0.00  0.00    -0.387 OA
ATOM     26  H   UNL     1       0.869   3.728  24.468  0.00  0.00    +0.210 HD
ENDBRANCH  12   3
BRANCH  13   4
ATOM      4  O   UNL     1      -1.460   5.802  25.179  0.00  0.00    -0.387 OA
ATOM     27  H   UNL     1      -0.760   6.134  24.590  0.00  0.00    +0.210 HD
ENDBRANCH  13   4
BRANCH   9  15
ATOM     15  C   UNL     1      -0.503   1.543  25.724  0.00  0.00    +0.130 C 
BRANCH  15  17
ATOM      5  O   UNL     1      -0.846   0.546  23.545  0.00  0.00    -0.276 OA
ATOM      6  N   UNL     1       1.281   1.270  24.134  0.00  0.00    -0.312 N 
ATOM     17  C   UNL     1      -0.074   1.060  24.351  0.00  0.00    +0.216 C 
ATOM     25  H   UNL     1       1.848   1.696  24.861  0.00  0.00    +0.149 HD
BRANCH   6   8
ATOM      8  C   UNL     1       1.932   0.898  22.911  0.00  0.00    +0.073 C 
ATOM     10  C   UNL     1       3.424   0.979  22.770  0.00  0.00    +0.024 C 
ATOM     11  C   UNL     1       2.747  -0.360  22.816  0.00  0.00    +0.024 C 
ENDBRANCH   6   8
ENDBRANCH  15  17
ENDBRANCH   9  15
BRANCH  14  16
ATOM     16  C   UNL     1      -4.179   3.299  24.810  0.00  0.00    +0.115 C 
BRANCH  16   7
ATOM      7  N   UNL     1      -4.768   2.302  25.693  0.00  0.00    -0.309 NA
ATOM     28  H   UNL     1      -4.050   1.944  26.323  0.00  0.00    +0.122 HD
BRANCH   7  18
ATOM     18  C   UNL     1      -5.347   1.205  24.929  0.00  0.00    +0.116 C 
BRANCH  18  19
ATOM      1  F   UNL     1      -1.938  -3.279  24.775  0.00  0.00    -0.205 F 
ATOM     19  C   UNL     1      -4.435   0.008  24.888  0.00  0.00    -0.033 A 
ATOM     20  C   UNL     1      -3.500  -0.193  25.903  0.00  0.00    +0.008 A 
ATOM     21  C   UNL     1      -4.528  -0.902  23.835  0.00  0.00    +0.008 A 
ATOM     22  C   UNL     1      -2.656  -1.303  25.864  0.00  0.00    +0.038 A 
ATOM     23  C   UNL     1      -3.683  -2.012  23.796  0.00  0.00    +0.038 A 
ATOM     24  C   UNL     1      -2.747  -2.212  24.812  0.00  0.00    +0.123 A 
ENDBRANCH  18  19
ENDBRANCH   7  18
ENDBRANCH  16   7
ENDBRANCH  14  16
TORSDOF 9
ENDMDL
MODEL 8
REMARK VINA RESULT:      -5.2      3.441      6.054
REMARK  Name = 25390478
REMARK  9 active torsions:
REMARK  status: ('A' for Active; 'I' for Inactive)
REMARK    1  A    between atoms: O_3  and  C_12
REMARK    2  A    between atoms: O_4  and  C_13
REMARK    3  A    between atoms: N_6  and  C_8
REMARK    4  A    between atoms: N_7  and  C_16
REMARK    5  A    between atoms: N_7  and  C_18
REMARK    6  A    between atoms: C_9  and  C_15
REMARK    7  A    between atoms: C_14  and  C_16
REMARK    8  A    between atoms: C_15  and  C_17
REMARK    9  A    between atoms: C_18  and  C_19
REMARK                            x       y       z     vdW  Elec       q    Type
REMARK                         _______ _______ _______ _____ _____    ______ ____
ROOT
ATOM      2  O   UNL     1      -3.596   3.618  24.151  0.00  0.00    -0.366 OA
ATOM      9  C   UNL     1      -4.555   2.548  24.082  0.00  0.00    +0.158 C 
ATOM     12  C   UNL     1      -5.035   2.334  25.508  0.00  0.00    +0.175 C 
ATOM     13  C   UNL     1      -5.029   3.751  26.046  0.00  0.00    +0.175 C 
ATOM     14  C   UNL     1      -3.777   4.331  25.396  0.00  0.00    +0.163 C 
ENDROOT
BRANCH  12   3
ATOM      3  O   UNL     1      -6.308   1.725  25.554  0.00  0.00    -0.387 OA
ATOM     26  H   UNL     1      -6.968   2.434  25.613  0.00  0.00    +0.210 HD
ENDBRANCH  12   3
BRANCH  13   4
ATOM      4  O   UNL     1      -6.158   4.472  25.554  0.00  0.00    -0.387 OA
ATOM     27  H   UNL     1      -6.339   4.149  24.654  0.00  0.00    +0.210 HD
ENDBRANCH  13   4
BRANCH   9  15
ATOM     15  C   UNL     1      -3.905   1.317  23.476  0.00  0.00    +0.130 C 
BRANCH  15  17
ATOM      5  O   UNL     1      -4.260   0.113  25.546  0.00  0.00    -0.276 OA
ATOM      6  N   UNL     1      -4.068  -1.081  23.564  0.00  0.00    -0.312 N 
ATOM     17  C   UNL     1      -4.098   0.077  24.329  0.00  0.00    +0.216 C 
ATOM     25  H   UNL     1      -3.922  -1.018  22.560  0.00  0.00    +0.149 HD
BRANCH   6   8
ATOM      8  C   UNL     1      -4.227  -2.386  24.136  0.00  0.00    +0.073 C 
ATOM     10  C   UNL     1      -3.210  -3.465  23.901  0.00  0.00    +0.024 C 
ATOM     11  C   UNL     1      -3.351  -2.852  25.263  0.00  0.00    +0.024 C 
ENDBRANCH   6   8
ENDBRANCH  15  17
ENDBRANCH   9  15
BRANCH  14  16
ATOM     16  C   UNL     1      -2.523   4.130  26.234  0.00  0.00    +0.115 C 
BRANCH  16   7
ATOM      7  N   UNL     1      -1.331   4.107  25.398  0.00  0.00    -0.309 NA
ATOM     28  H   UNL     1      -1.582   3.783  24.463  0.00  0.00    +0.122 HD
BRANCH   7  18
ATOM     18  C   UNL     1      -0.312   3.236  25.965  0.00  0.00    +0.116 C 
BRANCH  18  19
ATOM      1  F   UNL     1      -0.438  -1.916  23.688  0.00  0.00    -0.205 F 
ATOM     19  C   UNL     1      -0.347   1.859  25.356  0.00  0.00    -0.033 A 
ATOM     20  C   UNL     1       0.158   1.652  24.072  0.00  0.00    +0.008 A 
ATOM     21  C   UNL     1      -0.881   0.791  26.077  0.00  0.00    +0.008 A 
ATOM     22  C   UNL     1       0.126   0.376  23.508  0.00  0.00    +0.038 A 
ATOM     23  C   UNL     1      -0.913  -0.484  25.513  0.00  0.00    +0.038 A 
ATOM     24  C   UNL     1      -0.409  -0.691  24.228  0.00  0.00    +0.123 A 
ENDBRANCH  18  19
ENDBRANCH   7  18
ENDBRANCH  16   7
ENDBRANCH  14  16
TORSDOF 9
ENDMDL
MODEL 9
REMARK VINA RESULT:      -5.1      2.566      4.206
REMARK  Name = 25390478
REMARK  9 active torsions:
REMARK  status: ('A' for Active; 'I' for Inactive)
REMARK    1  A    between atoms: O_3  and  C_12
REMARK    2  A    between atoms: O_4  and  C_13
REMARK    3  A    between atoms: N_6  and  C_8
REMARK    4  A    between atoms: N_7  and  C_16
REMARK    5  A    between atoms: N_7  and  C_18
REMARK    6  A    between atoms: C_9  and  C_15
REMARK    7  A    between atoms: C_14  and  C_16
REMARK    8  A    between atoms: C_15  and  C_17
REMARK    9  A    between atoms: C_18  and  C_19
REMARK                            x       y       z     vdW  Elec       q    Type
REMARK                         _______ _______ _______ _____ _____    ______ ____
ROOT
ATOM      2  O   UNL     1      -1.923   3.437  24.697  0.00  0.00    -0.366 OA
ATOM      9  C   UNL     1      -1.213   2.516  23.850  0.00  0.00    +0.158 C 
ATOM     12  C   UNL     1      -2.273   1.605  23.255  0.00  0.00    +0.175 C 
ATOM     13  C   UNL     1      -3.434   2.564  23.081  0.00  0.00    +0.175 C 
ATOM     14  C   UNL     1      -3.322   3.427  24.332  0.00  0.00    +0.163 C 
ENDROOT
BRANCH  12   3
ATOM      3  O   UNL     1      -1.848   1.017  22.043  0.00  0.00    -0.387 OA
ATOM     26  H   UNL     1      -1.969   1.677  21.341  0.00  0.00    +0.210 HD
ENDBRANCH  12   3
BRANCH  13   4
ATOM      4  O   UNL     1      -3.219   3.400  21.944  0.00  0.00    -0.387 OA
ATOM     27  H   UNL     1      -3.155   2.820  21.166  0.00  0.00    +0.210 HD
ENDBRANCH  13   4
BRANCH   9  15
ATOM     15  C   UNL     1      -0.169   1.772  24.664  0.00  0.00    +0.130 C 
BRANCH  15  17
ATOM      5  O   UNL     1       0.216  -0.303  23.479  0.00  0.00    -0.276 OA
ATOM      6  N   UNL     1       1.888   1.308  23.508  0.00  0.00    -0.312 N 
ATOM     17  C   UNL     1       0.636   0.798  23.825  0.00  0.00    +0.216 C 
ATOM     25  H   UNL     1       2.157   2.229  23.843  0.00  0.00    +0.149 HD
BRANCH   6   8
ATOM      8  C   UNL     1       2.841   0.578  22.723  0.00  0.00    +0.073 C 
ATOM     10  C   UNL     1       4.281   0.996  22.666  0.00  0.00    +0.024 C 
ATOM     11  C   UNL     1       3.895  -0.271  23.373  0.00  0.00    +0.024 C 
ENDBRANCH   6   8
ENDBRANCH  15  17
ENDBRANCH   9  15
BRANCH  14  16
ATOM     16  C   UNL     1      -4.107   2.872  25.512  0.00  0.00    +0.115 C 
BRANCH  16   7
ATOM      7  N   UNL     1      -5.173   1.987  25.062  0.00  0.00    -0.309 NA
ATOM     28  H   UNL     1      -6.065   2.476  25.123  0.00  0.00    +0.122 HD
BRANCH   7  18
ATOM     18  C   UNL     1      -5.218   0.775  25.868  0.00  0.00    +0.116 C 
BRANCH  18  19
ATOM      1  F   UNL     1      -1.746  -3.196  23.885  0.00  0.00    -0.205 F 
ATOM     19  C   UNL     1      -4.291  -0.287  25.339  0.00  0.00    -0.033 A 
ATOM     20  C   UNL     1      -4.646  -1.022  24.207  0.00  0.00    +0.008 A 
ATOM     21  C   UNL     1      -3.077  -0.534  25.978  0.00  0.00    +0.008 A 
ATOM     22  C   UNL     1      -3.787  -2.005  23.717  0.00  0.00    +0.038 A 
ATOM     23  C   UNL     1      -2.217  -1.517  25.488  0.00  0.00    +0.038 A 
ATOM     24  C   UNL     1      -2.573  -2.253  24.356  0.00  0.00    +0.123 A 
ENDBRANCH  18  19
ENDBRANCH   7  18
ENDBRANCH  16   7
ENDBRANCH  14  16
TORSDOF 9
ENDMDL
MODEL 10
REMARK VINA RESULT:      -5.1      2.248      2.989
REMARK  Name = 25390478
REMARK  9 active torsions:
REMARK  status: ('A' for Active; 'I' for Inactive)
REMARK    1  A    between atoms: O_3  and  C_12
REMARK    2  A    between atoms: O_4  and  C_13
REMARK    3  A    between atoms: N_6  and  C_8
REMARK    4  A    between atoms: N_7  and  C_16
REMARK    5  A    between atoms: N_7  and  C_18
REMARK    6  A    between atoms: C_9  and  C_15
REMARK    7  A    between atoms: C_14  and  C_16
REMARK    8  A    between atoms: C_15  and  C_17
REMARK    9  A    between atoms: C_18  and  C_19
REMARK                            x       y       z     vdW  Elec       q    Type
REMARK                         _______ _______ _______ _____ _____    ______ ____
ROOT
ATOM      2  O   UNL     1      -0.959   0.959  23.658  0.00  0.00    -0.366 OA
ATOM      9  C   UNL     1      -0.366  -0.352  23.643  0.00  0.00    +0.158 C 
ATOM     12  C   UNL     1       0.021  -0.643  25.083  0.00  0.00    +0.175 C 
ATOM     13  C   UNL     1      -1.106   0.028  25.842  0.00  0.00    +0.175 C 
ATOM     14  C   UNL     1      -1.340   1.286  25.013  0.00  0.00    +0.163 C 
ENDROOT
BRANCH  12   3
ATOM      3  O   UNL     1       0.117  -2.029  25.336  0.00  0.00    -0.387 OA
ATOM     26  H   UNL     1       0.778  -2.392  24.723  0.00  0.00    +0.210 HD
ENDBRANCH  12   3
BRANCH  13   4
ATOM      4  O   UNL     1      -2.288  -0.770  25.779  0.00  0.00    -0.387 OA
ATOM     27  H   UNL     1      -2.921  -0.307  25.204  0.00  0.00    +0.210 HD
ENDBRANCH  13   4
BRANCH   9  15
ATOM     15  C   UNL     1       0.815  -0.368  22.688  0.00  0.00    +0.130 C 
BRANCH  15  17
ATOM      5  O   UNL     1       1.816   1.627  23.625  0.00  0.00    -0.276 OA
ATOM      6  N   UNL     1       3.185  -0.152  23.033  0.00  0.00    -0.312 N 
ATOM     17  C   UNL     1       1.965   0.495  23.171  0.00  0.00    +0.216 C 
ATOM     25  H   UNL     1       3.217  -1.089  22.640  0.00  0.00    +0.149 HD
BRANCH   6   8
ATOM      8  C   UNL     1       4.427   0.453  23.418  0.00  0.00    +0.073 C 
ATOM     10  C   UNL     1       5.347  -0.218  24.396  0.00  0.00    +0.024 C 
ATOM     11  C   UNL     1       5.741  -0.105  22.952  0.00  0.00    +0.024 C 
ENDBRANCH   6   8
ENDBRANCH  15  17
ENDBRANCH   9  15
BRANCH  14  16
ATOM     16  C   UNL     1      -0.489   2.464  25.466  0.00  0.00    +0.115 C 
BRANCH  16   7
ATOM      7  N   UNL     1      -0.695   3.621  24.605  0.00  0.00    -0.309 NA
ATOM     28  H   UNL     1       0.165   4.168  24.566  0.00  0.00    +0.122 HD
BRANCH   7  18
ATOM     18  C   UNL     1      -1.786   4.450  25.098  0.00  0.00    +0.116 C 
BRANCH  18  19
ATOM      1  F   UNL     1      -6.743   1.787  24.822  0.00  0.00    -0.205 F 
ATOM     19  C   UNL     1      -3.110   3.737  25.025  0.00  0.00    -0.033 A 
ATOM     20  C   UNL     1      -3.948   3.705  26.140  0.00  0.00    +0.008 A 
ATOM     21  C   UNL     1      -3.500   3.112  23.841  0.00  0.00    +0.008 A 
ATOM     22  C   UNL     1      -5.175   3.045  26.072  0.00  0.00    +0.038 A 
ATOM     23  C   UNL     1      -4.728   2.452  23.773  0.00  0.00    +0.038 A 
ATOM     24  C   UNL     1      -5.565   2.419  24.889  0.00  0.00    +0.123 A 
ENDBRANCH  18  19
ENDBRANCH   7  18
ENDBRANCH  16   7
ENDBRANCH  14  16
TORSDOF 9
ENDMDL
