MODEL 1
REMARK VINA RESULT:       2.9      0.000      0.000
REMARK  Name = 7155434
REMARK  3 active torsions:
REMARK  status: ('A' for Active; 'I' for Inactive)
REMARK    1  A    between atoms: S_1  and  N_5
REMARK    2  A    between atoms: S_1  and  C_18
REMARK    3  A    between atoms: C_14  and  C_19
REMARK                            x       y       z     vdW  Elec       q    Type
REMARK                         _______ _______ _______ _____ _____    ______ ____
ROOT
ATOM      4  O   UNL     1      -2.484   4.853  26.617  0.00  0.00    -0.268 OA
ATOM      5  N   UNL     1      -3.768   0.838  24.017  0.00  0.00    -0.176 NA
ATOM      6  N   UNL     1      -2.207   3.474  24.744  0.00  0.00    -0.311 N 
ATOM      7  C   UNL     1      -4.097   3.109  23.051  0.00  0.00    +0.025 C 
ATOM      8  C   UNL     1      -1.947   1.965  22.749  0.00  0.00    +0.053 C 
ATOM      9  C   UNL     1      -2.968   2.867  22.063  0.00  0.00    +0.017 C 
ATOM     10  C   UNL     1      -4.767   1.786  23.451  0.00  0.00    +0.114 C 
ATOM     11  C   UNL     1      -2.608   0.618  23.103  0.00  0.00    +0.119 C 
ATOM     12  C   UNL     1      -3.536   3.864  24.257  0.00  0.00    +0.130 C 
ATOM     13  C   UNL     1      -1.361   2.626  24.000  0.00  0.00    +0.034 A 
ATOM     14  C   UNL     1      -0.085   2.410  24.415  0.00  0.00    +0.002 A 
ATOM     15  C   UNL     1      -1.793   4.093  25.937  0.00  0.00    +0.252 A 
ATOM     16  C   UNL     1       0.375   3.029  25.645  0.00  0.00    +0.015 A 
ATOM     17  C   UNL     1      -0.410   3.812  26.384  0.00  0.00    +0.071 A 
ENDROOT
BRANCH  14  19
ATOM     19  C   UNL     1       0.846   1.545  23.658  0.00  0.00    -0.016 A 
ATOM     22  C   UNL     1       2.159   1.958  23.450  0.00  0.00    +0.008 A 
ATOM     23  C   UNL     1       0.404   0.323  23.159  0.00  0.00    +0.008 A 
ATOM     26  C   UNL     1       3.036   1.143  22.737  0.00  0.00    +0.001 A 
ATOM     27  C   UNL     1       1.282  -0.492  22.446  0.00  0.00    +0.001 A 
ATOM     29  C   UNL     1       2.598  -0.082  22.234  0.00  0.00    +0.000 A 
ENDBRANCH  14  19
BRANCH   5   1
ATOM      1  S   UNL     1      -4.411  -0.569  24.747  0.00  0.00    +0.061 S 
ATOM      2  O   UNL     1      -5.229  -1.272  23.783  0.00  0.00    -0.153 OA
ATOM      3  O   UNL     1      -4.930  -0.225  26.055  0.00  0.00    -0.153 OA
BRANCH   1  18
ATOM     18  C   UNL     1      -2.929  -1.502  24.981  0.00  0.00    +0.105 A 
ATOM     20  C   UNL     1      -1.903  -0.966  25.741  0.00  0.00    +0.028 A 
ATOM     21  C   UNL     1      -2.819  -2.754  24.398  0.00  0.00    +0.028 A 
ATOM     24  C   UNL     1      -0.733  -1.703  25.924  0.00  0.00    +0.002 A 
ATOM     25  C   UNL     1      -1.649  -3.490  24.581  0.00  0.00    +0.002 A 
ATOM     28  C   UNL     1      -0.606  -2.966  25.344  0.00  0.00    +0.000 A 
ENDBRANCH   1  18
ENDBRANCH   5   1
TORSDOF 3
ENDMDL
MODEL 2
REMARK VINA RESULT:       5.8      2.585      4.950
REMARK  Name = 7155434
REMARK  3 active torsions:
REMARK  status: ('A' for Active; 'I' for Inactive)
REMARK    1  A    between atoms: S_1  and  N_5
REMARK    2  A    between atoms: S_1  and  C_18
REMARK    3  A    between atoms: C_14  and  C_19
REMARK                            x       y       z     vdW  Elec       q    Type
REMARK                         _______ _______ _______ _____ _____    ______ ____
ROOT
ATOM      4  O   UNL     1       1.020   2.376  27.950  0.00  0.00    -0.268 OA
ATOM      5  N   UNL     1      -2.339   3.594  24.521  0.00  0.00    -0.176 NA
ATOM      6  N   UNL     1      -0.093   1.907  25.942  0.00  0.00    -0.311 N 
ATOM      7  C   UNL     1       0.073   3.470  23.917  0.00  0.00    +0.025 C 
ATOM      8  C   UNL     1      -1.312   1.448  23.792  0.00  0.00    +0.053 C 
ATOM      9  C   UNL     1      -0.180   2.209  23.107  0.00  0.00    +0.017 C 
ATOM     10  C   UNL     1      -1.184   4.352  23.965  0.00  0.00    +0.114 C 
ATOM     11  C   UNL     1      -2.587   2.315  23.793  0.00  0.00    +0.119 C 
ATOM     12  C   UNL     1       0.553   3.066  25.312  0.00  0.00    +0.130 C 
ATOM     13  C   UNL     1      -0.935   1.039  25.218  0.00  0.00    +0.034 A 
ATOM     14  C   UNL     1      -1.392  -0.102  25.800  0.00  0.00    +0.002 A 
ATOM     15  C   UNL     1       0.277   1.660  27.276  0.00  0.00    +0.252 A 
ATOM     16  C   UNL     1      -1.033  -0.387  27.177  0.00  0.00    +0.015 A 
ATOM     17  C   UNL     1      -0.263   0.429  27.896  0.00  0.00    +0.071 A 
ENDROOT
BRANCH  14  19
ATOM     19  C   UNL     1      -2.260  -1.054  25.074  0.00  0.00    -0.016 A 
ATOM     22  C   UNL     1      -1.731  -2.252  24.605  0.00  0.00    +0.008 A 
ATOM     23  C   UNL     1      -3.602  -0.746  24.867  0.00  0.00    +0.008 A 
ATOM     26  C   UNL     1      -2.550  -3.150  23.922  0.00  0.00    +0.001 A 
ATOM     27  C   UNL     1      -4.420  -1.644  24.184  0.00  0.00    +0.001 A 
ATOM     29  C   UNL     1      -3.895  -2.846  23.710  0.00  0.00    +0.000 A 
ENDBRANCH  14  19
BRANCH   5   1
ATOM      1  S   UNL     1      -3.730   4.522  24.880  0.00  0.00    +0.061 S 
ATOM      2  O   UNL     1      -4.198   5.165  23.670  0.00  0.00    -0.153 OA
ATOM      3  O   UNL     1      -3.487   5.290  26.084  0.00  0.00    -0.153 OA
BRANCH   1  18
ATOM     18  C   UNL     1      -4.868   3.233  25.281  0.00  0.00    +0.105 A 
ATOM     20  C   UNL     1      -5.269   3.066  26.596  0.00  0.00    +0.028 A 
ATOM     21  C   UNL     1      -5.340   2.408  24.272  0.00  0.00    +0.028 A 
ATOM     24  C   UNL     1      -6.167   2.047  26.912  0.00  0.00    +0.002 A 
ATOM     25  C   UNL     1      -6.237   1.389  24.588  0.00  0.00    +0.002 A 
ATOM     28  C   UNL     1      -6.651   1.208  25.908  0.00  0.00    +0.000 A 
ENDBRANCH   1  18
ENDBRANCH   5   1
TORSDOF 3
ENDMDL
MODEL 3
REMARK VINA RESULT:       5.8      2.332      4.647
REMARK  Name = 7155434
REMARK  3 active torsions:
REMARK  status: ('A' for Active; 'I' for Inactive)
REMARK    1  A    between atoms: S_1  and  N_5
REMARK    2  A    between atoms: S_1  and  C_18
REMARK    3  A    between atoms: C_14  and  C_19
REMARK                            x       y       z     vdW  Elec       q    Type
REMARK                         _______ _______ _______ _____ _____    ______ ____
ROOT
ATOM      4  O   UNL     1      -1.448   3.399  22.106  0.00  0.00    -0.268 OA
ATOM      5  N   UNL     1      -2.064  -0.532  25.054  0.00  0.00    -0.176 NA
ATOM      6  N   UNL     1      -0.615   1.929  23.728  0.00  0.00    -0.311 N 
ATOM      7  C   UNL     1      -0.341  -0.576  23.257  0.00  0.00    +0.025 C 
ATOM      8  C   UNL     1       0.236   0.324  25.467  0.00  0.00    +0.053 C 
ATOM      9  C   UNL     1       0.765  -0.502  24.297  0.00  0.00    +0.017 C 
ATOM     10  C   UNL     1      -1.594  -1.250  23.838  0.00  0.00    +0.114 C 
ATOM     11  C   UNL     1      -0.990  -0.381  26.080  0.00  0.00    +0.119 C 
ATOM     12  C   UNL     1      -0.626   0.837  22.746  0.00  0.00    +0.130 C 
ATOM     13  C   UNL     1      -0.118   1.750  25.035  0.00  0.00    +0.034 A 
ATOM     14  C   UNL     1       0.010   2.820  25.863  0.00  0.00    +0.002 A 
ATOM     15  C   UNL     1      -1.021   3.184  23.242  0.00  0.00    +0.252 A 
ATOM     16  C   UNL     1      -0.403   4.130  25.396  0.00  0.00    +0.015 A 
ATOM     17  C   UNL     1      -0.903   4.326  24.176  0.00  0.00    +0.071 A 
ENDROOT
BRANCH  14  19
ATOM     19  C   UNL     1       0.546   2.685  27.235  0.00  0.00    -0.016 A 
ATOM     22  C   UNL     1       1.914   2.802  27.458  0.00  0.00    +0.008 A 
ATOM     23  C   UNL     1      -0.324   2.445  28.296  0.00  0.00    +0.008 A 
ATOM     26  C   UNL     1       2.418   2.676  28.752  0.00  0.00    +0.001 A 
ATOM     27  C   UNL     1       0.181   2.319  29.589  0.00  0.00    +0.001 A 
ATOM     29  C   UNL     1       1.552   2.434  29.818  0.00  0.00    +0.000 A 
ENDBRANCH  14  19
BRANCH   5   1
ATOM      1  S   UNL     1      -3.595  -1.008  25.651  0.00  0.00    +0.061 S 
ATOM      2  O   UNL     1      -3.480  -1.313  27.062  0.00  0.00    -0.153 OA
ATOM      3  O   UNL     1      -4.185  -1.957  24.730  0.00  0.00    -0.153 OA
BRANCH   1  18
ATOM     18  C   UNL     1      -4.474   0.515  25.497  0.00  0.00    +0.105 A 
ATOM     20  C   UNL     1      -5.656   0.690  26.199  0.00  0.00    +0.028 A 
ATOM     21  C   UNL     1      -3.968   1.510  24.676  0.00  0.00    +0.028 A 
ATOM     24  C   UNL     1      -6.351   1.893  26.076  0.00  0.00    +0.002 A 
ATOM     25  C   UNL     1      -4.663   2.712  24.553  0.00  0.00    +0.002 A 
ATOM     28  C   UNL     1      -5.854   2.905  25.252  0.00  0.00    +0.000 A 
ENDBRANCH   1  18
ENDBRANCH   5   1
TORSDOF 3
ENDMDL
MODEL 4
REMARK VINA RESULT:       6.0      2.808      5.606
REMARK  Name = 7155434
REMARK  3 active torsions:
REMARK  status: ('A' for Active; 'I' for Inactive)
REMARK    1  A    between atoms: S_1  and  N_5
REMARK    2  A    between atoms: S_1  and  C_18
REMARK    3  A    between atoms: C_14  and  C_19
REMARK                            x       y       z     vdW  Elec       q    Type
REMARK                         _______ _______ _______ _____ _____    ______ ____
ROOT
ATOM      4  O   UNL     1      -2.637   4.747  24.369  0.00  0.00    -0.268 OA
ATOM      5  N   UNL     1       0.780   1.187  23.944  0.00  0.00    -0.176 NA
ATOM      6  N   UNL     1      -1.824   2.632  24.965  0.00  0.00    -0.311 N 
ATOM      7  C   UNL     1       0.443   2.341  26.124  0.00  0.00    +0.025 C 
ATOM      8  C   UNL     1      -0.912   0.370  25.575  0.00  0.00    +0.053 C 
ATOM      9  C   UNL     1      -0.181   1.084  26.708  0.00  0.00    +0.017 C 
ATOM     10  C   UNL     1       1.440   1.990  25.010  0.00  0.00    +0.114 C 
ATOM     11  C   UNL     1       0.099  -0.027  24.481  0.00  0.00    +0.119 C 
ATOM     12  C   UNL     1      -0.677   3.259  25.633  0.00  0.00    +0.130 C 
ATOM     13  C   UNL     1      -2.030   1.237  24.989  0.00  0.00    +0.034 A 
ATOM     14  C   UNL     1      -3.179   0.714  24.487  0.00  0.00    +0.002 A 
ATOM     15  C   UNL     1      -2.758   3.521  24.405  0.00  0.00    +0.252 A 
ATOM     16  C   UNL     1      -4.163   1.602  23.897  0.00  0.00    +0.015 A 
ATOM     17  C   UNL     1      -3.984   2.921  23.833  0.00  0.00    +0.071 A 
ENDROOT
BRANCH  14  19
ATOM     19  C   UNL     1      -3.449  -0.740  24.509  0.00  0.00    -0.016 A 
ATOM     22  C   UNL     1      -4.181  -1.323  23.479  0.00  0.00    +0.008 A 
ATOM     23  C   UNL     1      -2.966  -1.517  25.558  0.00  0.00    +0.008 A 
ATOM     26  C   UNL     1      -4.434  -2.694  23.500  0.00  0.00    +0.001 A 
ATOM     27  C   UNL     1      -3.219  -2.887  25.578  0.00  0.00    +0.001 A 
ATOM     29  C   UNL     1      -3.954  -3.477  24.549  0.00  0.00    +0.000 A 
ENDBRANCH  14  19
BRANCH   5   1
ATOM      1  S   UNL     1       1.696   0.952  22.518  0.00  0.00    +0.061 S 
ATOM      2  O   UNL     1       2.092   2.241  21.991  0.00  0.00    -0.153 OA
ATOM      3  O   UNL     1       1.024  -0.020  21.681  0.00  0.00    -0.153 OA
BRANCH   1  18
ATOM     18  C   UNL     1       3.133   0.181  23.196  0.00  0.00    +0.105 A 
ATOM     20  C   UNL     1       4.269   0.941  23.418  0.00  0.00    +0.028 A 
ATOM     21  C   UNL     1       3.098  -1.172  23.495  0.00  0.00    +0.028 A 
ATOM     24  C   UNL     1       5.404   0.331  23.953  0.00  0.00    +0.002 A 
ATOM     25  C   UNL     1       4.233  -1.781  24.029  0.00  0.00    +0.002 A 
ATOM     28  C   UNL     1       5.386  -1.031  24.258  0.00  0.00    +0.000 A 
ENDBRANCH   1  18
ENDBRANCH   5   1
TORSDOF 3
ENDMDL
MODEL 5
REMARK VINA RESULT:       6.1      2.108      4.648
REMARK  Name = 7155434
REMARK  3 active torsions:
REMARK  status: ('A' for Active; 'I' for Inactive)
REMARK    1  A    between atoms: S_1  and  N_5
REMARK    2  A    between atoms: S_1  and  C_18
REMARK    3  A    between atoms: C_14  and  C_19
REMARK                            x       y       z     vdW  Elec       q    Type
REMARK                         _______ _______ _______ _____ _____    ______ ____
ROOT
ATOM      4  O   UNL     1      -2.398  -1.382  26.937  0.00  0.00    -0.268 OA
ATOM      5  N   UNL     1      -1.793   2.932  24.581  0.00  0.00    -0.176 NA
ATOM      6  N   UNL     1      -0.990   0.231  25.985  0.00  0.00    -0.311 N 
ATOM      7  C   UNL     1      -0.895   2.630  26.883  0.00  0.00    +0.025 C 
ATOM      8  C   UNL     1       0.480   1.990  24.953  0.00  0.00    +0.053 C 
ATOM      9  C   UNL     1       0.525   2.620  26.343  0.00  0.00    +0.017 C 
ATOM     10  C   UNL     1      -1.821   3.453  25.975  0.00  0.00    +0.114 C 
ATOM     11  C   UNL     1      -0.409   2.847  24.030  0.00  0.00    +0.119 C 
ATOM     12  C   UNL     1      -1.368   1.183  27.037  0.00  0.00    +0.130 C 
ATOM     13  C   UNL     1      -0.027   0.546  25.005  0.00  0.00    +0.034 A 
ATOM     14  C   UNL     1       0.400  -0.413  24.143  0.00  0.00    +0.002 A 
ATOM     15  C   UNL     1      -1.564  -1.049  26.092  0.00  0.00    +0.252 A 
ATOM     16  C   UNL     1      -0.174  -1.744  24.222  0.00  0.00    +0.015 A 
ATOM     17  C   UNL     1      -1.107  -2.064  25.118  0.00  0.00    +0.071 A 
ENDROOT
BRANCH  14  19
ATOM     19  C   UNL     1       1.424  -0.135  23.111  0.00  0.00    -0.016 A 
ATOM     22  C   UNL     1       2.585   0.550  23.457  0.00  0.00    +0.008 A 
ATOM     23  C   UNL     1       1.220  -0.564  21.803  0.00  0.00    +0.008 A 
ATOM     26  C   UNL     1       3.550   0.811  22.486  0.00  0.00    +0.001 A 
ATOM     27  C   UNL     1       2.186  -0.302  20.831  0.00  0.00    +0.001 A 
ATOM     29  C   UNL     1       3.351   0.385  21.172  0.00  0.00    +0.000 A 
ENDBRANCH  14  19
BRANCH   5   1
ATOM      1  S   UNL     1      -2.972   3.580  23.524  0.00  0.00    +0.061 S 
ATOM      2  O   UNL     1      -2.898   2.891  22.252  0.00  0.00    -0.153 OA
ATOM      3  O   UNL     1      -2.922   5.025  23.592  0.00  0.00    -0.153 OA
BRANCH   1  18
ATOM     18  C   UNL     1      -4.445   3.050  24.340  0.00  0.00    +0.105 A 
ATOM     20  C   UNL     1      -5.158   3.955  25.108  0.00  0.00    +0.028 A 
ATOM     21  C   UNL     1      -4.863   1.736  24.199  0.00  0.00    +0.028 A 
ATOM     24  C   UNL     1      -6.321   3.536  25.754  0.00  0.00    +0.002 A 
ATOM     25  C   UNL     1      -6.025   1.317  24.845  0.00  0.00    +0.002 A 
ATOM     28  C   UNL     1      -6.755   2.216  25.622  0.00  0.00    +0.000 A 
ENDBRANCH   1  18
ENDBRANCH   5   1
TORSDOF 3
ENDMDL
MODEL 6
REMARK VINA RESULT:       6.5      2.744      5.220
REMARK  Name = 7155434
REMARK  3 active torsions:
REMARK  status: ('A' for Active; 'I' for Inactive)
REMARK    1  A    between atoms: S_1  and  N_5
REMARK    2  A    between atoms: S_1  and  C_18
REMARK    3  A    between atoms: C_14  and  C_19
REMARK                            x       y       z     vdW  Elec       q    Type
REMARK                         _______ _______ _______ _____ _____    ______ ____
ROOT
ATOM      4  O   UNL     1      -0.219   5.841  23.609  0.00  0.00    -0.268 OA
ATOM      5  N   UNL     1      -0.465   1.023  24.726  0.00  0.00    -0.176 NA
ATOM      6  N   UNL     1      -1.078   4.105  24.926  0.00  0.00    -0.311 N 
ATOM      7  C   UNL     1       0.444   2.644  26.382  0.00  0.00    +0.025 C 
ATOM      8  C   UNL     1      -1.970   2.208  26.314  0.00  0.00    +0.053 C 
ATOM      9  C   UNL     1      -0.793   2.474  27.249  0.00  0.00    +0.017 C 
ATOM     10  C   UNL     1       0.716   1.375  25.561  0.00  0.00    +0.114 C 
ATOM     11  C   UNL     1      -1.718   0.906  25.529  0.00  0.00    +0.119 C 
ATOM     12  C   UNL     1       0.255   3.878  25.499  0.00  0.00    +0.130 C 
ATOM     13  C   UNL     1      -2.207   3.380  25.358  0.00  0.00    +0.034 A 
ATOM     14  C   UNL     1      -3.444   3.723  24.909  0.00  0.00    +0.002 A 
ATOM     15  C   UNL     1      -1.170   5.167  24.009  0.00  0.00    +0.252 A 
ATOM     16  C   UNL     1      -3.575   4.811  23.958  0.00  0.00    +0.015 A 
ATOM     17  C   UNL     1      -2.524   5.495  23.509  0.00  0.00    +0.071 A 
ENDROOT
BRANCH  14  19
ATOM     19  C   UNL     1      -4.660   3.006  25.350  0.00  0.00    -0.016 A 
ATOM     22  C   UNL     1      -5.212   2.017  24.540  0.00  0.00    +0.008 A 
ATOM     23  C   UNL     1      -5.244   3.323  26.573  0.00  0.00    +0.008 A 
ATOM     26  C   UNL     1      -6.357   1.341  24.956  0.00  0.00    +0.001 A 
ATOM     27  C   UNL     1      -6.390   2.646  26.989  0.00  0.00    +0.001 A 
ATOM     29  C   UNL     1      -6.947   1.655  26.181  0.00  0.00    +0.000 A 
ENDBRANCH  14  19
BRANCH   5   1
ATOM      1  S   UNL     1      -0.212  -0.208  23.565  0.00  0.00    +0.061 S 
ATOM      2  O   UNL     1       0.936  -0.999  23.954  0.00  0.00    -0.153 OA
ATOM      3  O   UNL     1      -0.305   0.368  22.240  0.00  0.00    -0.153 OA
BRANCH   1  18
ATOM     18  C   UNL     1      -1.658  -1.187  23.832  0.00  0.00    +0.105 A 
ATOM     20  C   UNL     1      -2.899  -0.669  23.501  0.00  0.00    +0.028 A 
ATOM     21  C   UNL     1      -1.525  -2.458  24.369  0.00  0.00    +0.028 A 
ATOM     24  C   UNL     1      -4.040  -1.442  23.713  0.00  0.00    +0.002 A 
ATOM     25  C   UNL     1      -2.667  -3.230  24.582  0.00  0.00    +0.002 A 
ATOM     28  C   UNL     1      -3.924  -2.724  24.254  0.00  0.00    +0.000 A 
ENDBRANCH   1  18
ENDBRANCH   5   1
TORSDOF 3
ENDMDL
MODEL 7
REMARK VINA RESULT:       6.7      2.668      5.409
REMARK  Name = 7155434
REMARK  3 active torsions:
REMARK  status: ('A' for Active; 'I' for Inactive)
REMARK    1  A    between atoms: S_1  and  N_5
REMARK    2  A    between atoms: S_1  and  C_18
REMARK    3  A    between atoms: C_14  and  C_19
REMARK                            x       y       z     vdW  Elec       q    Type
REMARK                         _______ _______ _______ _____ _____    ______ ____
ROOT
ATOM      4  O   UNL     1      -1.422   2.699  20.683  0.00  0.00    -0.268 OA
ATOM      5  N   UNL     1      -0.763   0.632  25.135  0.00  0.00    -0.176 NA
ATOM      6  N   UNL     1      -1.746   2.730  23.003  0.00  0.00    -0.311 N 
ATOM      7  C   UNL     1       0.228   2.860  24.633  0.00  0.00    +0.025 C 
ATOM      8  C   UNL     1      -2.065   2.722  25.497  0.00  0.00    +0.053 C 
ATOM      9  C   UNL     1      -0.772   3.530  25.562  0.00  0.00    +0.017 C 
ATOM     10  C   UNL     1       0.502   1.415  25.074  0.00  0.00    +0.114 C 
ATOM     11  C   UNL     1      -1.799   1.286  25.989  0.00  0.00    +0.119 C 
ATOM     12  C   UNL     1      -0.306   2.940  23.202  0.00  0.00    +0.130 C 
ATOM     13  C   UNL     1      -2.652   2.710  24.082  0.00  0.00    +0.034 A 
ATOM     14  C   UNL     1      -3.989   2.662  23.842  0.00  0.00    +0.002 A 
ATOM     15  C   UNL     1      -2.168   2.670  21.663  0.00  0.00    +0.252 A 
ATOM     16  C   UNL     1      -4.461   2.594  22.471  0.00  0.00    +0.015 A 
ATOM     17  C   UNL     1      -3.627   2.582  21.432  0.00  0.00    +0.071 A 
ENDROOT
BRANCH  14  19
ATOM     19  C   UNL     1      -4.979   2.659  24.941  0.00  0.00    -0.016 A 
ATOM     22  C   UNL     1      -5.436   3.866  25.463  0.00  0.00    +0.008 A 
ATOM     23  C   UNL     1      -5.449   1.449  25.445  0.00  0.00    +0.008 A 
ATOM     26  C   UNL     1      -6.370   3.863  26.498  0.00  0.00    +0.001 A 
ATOM     27  C   UNL     1      -6.383   1.447  26.480  0.00  0.00    +0.001 A 
ATOM     29  C   UNL     1      -6.844   2.654  27.008  0.00  0.00    +0.000 A 
ENDBRANCH  14  19
BRANCH   5   1
ATOM      1  S   UNL     1      -0.582  -1.055  25.352  0.00  0.00    +0.061 S 
ATOM      2  O   UNL     1      -0.550  -1.350  26.769  0.00  0.00    -0.153 OA
ATOM      3  O   UNL     1       0.459  -1.534  24.468  0.00  0.00    -0.153 OA
BRANCH   1  18
ATOM     18  C   UNL     1      -2.132  -1.617  24.718  0.00  0.00    +0.105 A 
ATOM     20  C   UNL     1      -2.471  -2.954  24.845  0.00  0.00    +0.028 A 
ATOM     21  C   UNL     1      -2.981  -0.710  24.105  0.00  0.00    +0.028 A 
ATOM     24  C   UNL     1      -3.695  -3.397  24.343  0.00  0.00    +0.002 A 
ATOM     25  C   UNL     1      -4.204  -1.154  23.603  0.00  0.00    +0.002 A 
ATOM     28  C   UNL     1      -4.562  -2.497  23.721  0.00  0.00    +0.000 A 
ENDBRANCH   1  18
ENDBRANCH   5   1
TORSDOF 3
ENDMDL
