MODEL 1
REMARK VINA RESULT:      -4.6      0.000      0.000
REMARK  Name = 45784340
REMARK  3 active torsions:
REMARK  status: ('A' for Active; 'I' for Inactive)
REMARK    1  A    between atoms: N_5  and  C_11
REMARK    2  A    between atoms: C_7  and  C_12
REMARK    3  A    between atoms: C_11  and  C_13
REMARK                            x       y       z     vdW  Elec       q    Type
REMARK                         _______ _______ _______ _____ _____    ______ ____
ROOT
ATOM      5  N   UNL     1       0.498  -0.510  23.845  0.00  0.00    -0.297 NA
ATOM      7  C   UNL     1      -1.161   0.322  25.279  0.00  0.00    +0.090 C 
ATOM      8  C   UNL     1      -1.475  -1.142  24.921  0.00  0.00    +0.029 C 
ATOM      9  C   UNL     1      -0.116   0.759  24.243  0.00  0.00    +0.097 C 
ATOM     10  C   UNL     1      -0.621  -1.440  23.697  0.00  0.00    +0.085 C 
ENDROOT
BRANCH   7  12
ATOM      2  F   UNL     1      -6.506   5.176  25.568  0.00  0.00    -0.205 F 
ATOM      4  O   UNL     1      -3.577   0.629  25.208  0.00  0.00    -0.439 OA
ATOM      6  N   UNL     1      -2.392   2.543  25.464  0.00  0.00    -0.213 NA
ATOM     12  C   UNL     1      -2.363   1.236  25.325  0.00  0.00    +0.201 A 
ATOM     14  C   UNL     1      -3.734   2.835  25.437  0.00  0.00    +0.112 A 
ATOM     15  C   UNL     1      -4.463   1.665  25.280  0.00  0.00    +0.156 A 
ATOM     18  C   UNL     1      -4.422   4.053  25.538  0.00  0.00    +0.070 A 
ATOM     19  C   UNL     1      -5.849   1.599  25.213  0.00  0.00    +0.051 A 
ATOM     22  C   UNL     1      -5.822   4.027  25.474  0.00  0.00    +0.126 A 
ATOM     23  C   UNL     1      -6.519   2.823  25.315  0.00  0.00    +0.042 A 
ENDBRANCH   7  12
BRANCH   5  11
ATOM     11  C   UNL     1       1.282  -0.388  22.626  0.00  0.00    +0.119 C 
BRANCH  11  13
ATOM      1  F   UNL     1       5.497  -2.163  24.331  0.00  0.00    -0.202 F 
ATOM      3  F   UNL     1       6.783   0.172  23.718  0.00  0.00    -0.202 F 
ATOM     13  C   UNL     1       2.752  -0.238  22.917  0.00  0.00    -0.030 A 
ATOM     16  C   UNL     1       3.458  -1.291  23.501  0.00  0.00    +0.046 A 
ATOM     17  C   UNL     1       3.407   0.953  22.604  0.00  0.00    +0.008 A 
ATOM     20  C   UNL     1       4.820  -1.152  23.771  0.00  0.00    +0.159 A 
ATOM     21  C   UNL     1       4.769   1.091  22.874  0.00  0.00    +0.041 A 
ATOM     24  C   UNL     1       5.475   0.039  23.457  0.00  0.00    +0.158 A 
ENDBRANCH  11  13
ENDBRANCH   5  11
TORSDOF 3
ENDMDL
MODEL 2
REMARK VINA RESULT:      -3.0      0.832      1.356
REMARK  Name = 45784340
REMARK  3 active torsions:
REMARK  status: ('A' for Active; 'I' for Inactive)
REMARK    1  A    between atoms: N_5  and  C_11
REMARK    2  A    between atoms: C_7  and  C_12
REMARK    3  A    between atoms: C_11  and  C_13
REMARK                            x       y       z     vdW  Elec       q    Type
REMARK                         _______ _______ _______ _____ _____    ______ ____
ROOT
ATOM      5  N   UNL     1       0.461  -0.683  23.650  0.00  0.00    -0.297 NA
ATOM      7  C   UNL     1      -1.147   0.166  25.132  0.00  0.00    +0.090 C 
ATOM      8  C   UNL     1      -1.607  -1.203  24.601  0.00  0.00    +0.029 C 
ATOM      9  C   UNL     1      -0.023   0.595  24.178  0.00  0.00    +0.097 C 
ATOM     10  C   UNL     1      -0.747  -1.458  23.370  0.00  0.00    +0.085 C 
ENDROOT
BRANCH   7  12
ATOM      2  F   UNL     1      -6.794   4.652  25.571  0.00  0.00    -0.205 F 
ATOM      4  O   UNL     1      -1.837   2.459  25.582  0.00  0.00    -0.439 OA
ATOM      6  N   UNL     1      -3.537   1.045  25.086  0.00  0.00    -0.213 NA
ATOM     12  C   UNL     1      -2.242   1.200  25.255  0.00  0.00    +0.201 A 
ATOM     14  C   UNL     1      -4.040   2.301  25.321  0.00  0.00    +0.112 A 
ATOM     15  C   UNL     1      -3.002   3.170  25.624  0.00  0.00    +0.156 A 
ATOM     18  C   UNL     1      -5.352   2.795  25.298  0.00  0.00    +0.070 A 
ATOM     19  C   UNL     1      -3.159   4.520  25.915  0.00  0.00    +0.051 A 
ATOM     22  C   UNL     1      -5.551   4.152  25.586  0.00  0.00    +0.126 A 
ATOM     23  C   UNL     1      -4.474   4.995  25.888  0.00  0.00    +0.042 A 
ENDBRANCH   7  12
BRANCH   5  11
ATOM     11  C   UNL     1       1.298  -0.515  22.473  0.00  0.00    +0.119 C 
BRANCH  11  13
ATOM      1  F   UNL     1       5.510  -2.124  24.342  0.00  0.00    -0.202 F 
ATOM      3  F   UNL     1       6.707   0.282  23.838  0.00  0.00    -0.202 F 
ATOM     13  C   UNL     1       2.743  -0.302  22.837  0.00  0.00    -0.030 A 
ATOM     16  C   UNL     1       3.472  -1.332  23.433  0.00  0.00    +0.046 A 
ATOM     17  C   UNL     1       3.354   0.926  22.579  0.00  0.00    +0.008 A 
ATOM     20  C   UNL     1       4.811  -1.135  23.771  0.00  0.00    +0.159 A 
ATOM     21  C   UNL     1       4.694   1.123  22.917  0.00  0.00    +0.041 A 
ATOM     24  C   UNL     1       5.421   0.092  23.512  0.00  0.00    +0.158 A 
ENDBRANCH  11  13
ENDBRANCH   5  11
TORSDOF 3
ENDMDL
MODEL 3
REMARK VINA RESULT:      -2.9      3.187      7.698
REMARK  Name = 45784340
REMARK  3 active torsions:
REMARK  status: ('A' for Active; 'I' for Inactive)
REMARK    1  A    between atoms: N_5  and  C_11
REMARK    2  A    between atoms: C_7  and  C_12
REMARK    3  A    between atoms: C_11  and  C_13
REMARK                            x       y       z     vdW  Elec       q    Type
REMARK                         _______ _______ _______ _____ _____    ______ ____
ROOT
ATOM      5  N   UNL     1      -3.739   2.268  25.260  0.00  0.00    -0.297 NA
ATOM      7  C   UNL     1      -1.459   2.675  24.884  0.00  0.00    +0.090 C 
ATOM      8  C   UNL     1      -2.302   3.556  23.945  0.00  0.00    +0.029 C 
ATOM      9  C   UNL     1      -2.438   1.609  25.398  0.00  0.00    +0.097 C 
ATOM     10  C   UNL     1      -3.690   2.929  23.956  0.00  0.00    +0.085 C 
ENDROOT
BRANCH   7  12
ATOM      2  F   UNL     1       4.796   0.309  22.149  0.00  0.00    -0.205 F 
ATOM      4  O   UNL     1      -0.411   0.960  23.507  0.00  0.00    -0.439 OA
ATOM      6  N   UNL     1       1.022   2.507  24.336  0.00  0.00    -0.213 NA
ATOM     12  C   UNL     1      -0.219   2.082  24.256  0.00  0.00    +0.201 A 
ATOM     14  C   UNL     1       1.718   1.596  23.581  0.00  0.00    +0.112 A 
ATOM     15  C   UNL     1       0.844   0.646  23.071  0.00  0.00    +0.156 A 
ATOM     18  C   UNL     1       3.083   1.494  23.273  0.00  0.00    +0.070 A 
ATOM     19  C   UNL     1       1.217  -0.420  22.263  0.00  0.00    +0.051 A 
ATOM     22  C   UNL     1       3.498   0.431  22.460  0.00  0.00    +0.126 A 
ATOM     23  C   UNL     1       2.581  -0.507  21.966  0.00  0.00    +0.042 A 
ENDBRANCH   7  12
BRANCH   5  11
ATOM     11  C   UNL     1      -4.848   1.333  25.366  0.00  0.00    +0.119 C 
BRANCH  11  13
ATOM      1  F   UNL     1      -4.616  -2.682  22.601  0.00  0.00    -0.202 F 
ATOM      3  F   UNL     1      -3.195  -3.990  24.536  0.00  0.00    -0.202 F 
ATOM     13  C   UNL     1      -4.406  -0.089  25.144  0.00  0.00    -0.030 A 
ATOM     16  C   UNL     1      -4.722  -0.740  23.952  0.00  0.00    +0.046 A 
ATOM     17  C   UNL     1      -3.680  -0.756  26.132  0.00  0.00    +0.008 A 
ATOM     20  C   UNL     1      -4.313  -2.058  23.746  0.00  0.00    +0.159 A 
ATOM     21  C   UNL     1      -3.270  -2.074  25.926  0.00  0.00    +0.041 A 
ATOM     24  C   UNL     1      -3.587  -2.724  24.733  0.00  0.00    +0.158 A 
ENDBRANCH  11  13
ENDBRANCH   5  11
TORSDOF 3
ENDMDL
MODEL 4
REMARK VINA RESULT:      -2.1      2.497      7.566
REMARK  Name = 45784340
REMARK  3 active torsions:
REMARK  status: ('A' for Active; 'I' for Inactive)
REMARK    1  A    between atoms: N_5  and  C_11
REMARK    2  A    between atoms: C_7  and  C_12
REMARK    3  A    between atoms: C_11  and  C_13
REMARK                            x       y       z     vdW  Elec       q    Type
REMARK                         _______ _______ _______ _____ _____    ______ ____
ROOT
ATOM      5  N   UNL     1      -3.061  -0.202  24.609  0.00  0.00    -0.297 NA
ATOM      7  C   UNL     1      -1.049  -1.085  23.787  0.00  0.00    +0.090 C 
ATOM      8  C   UNL     1      -1.425  -1.794  25.101  0.00  0.00    +0.029 C 
ATOM      9  C   UNL     1      -1.927   0.174  23.761  0.00  0.00    +0.097 C 
ATOM     10  C   UNL     1      -2.464  -0.891  25.752  0.00  0.00    +0.085 C 
ENDROOT
BRANCH   7  12
ATOM      2  F   UNL     1       6.103  -0.214  23.238  0.00  0.00    -0.205 F 
ATOM      4  O   UNL     1       0.725   0.467  23.171  0.00  0.00    -0.439 OA
ATOM      6  N   UNL     1       1.451  -1.561  23.876  0.00  0.00    -0.213 NA
ATOM     12  C   UNL     1       0.422  -0.780  23.629  0.00  0.00    +0.201 A 
ATOM     14  C   UNL     1       2.530  -0.774  23.557  0.00  0.00    +0.112 A 
ATOM     15  C   UNL     1       2.090   0.469  23.125  0.00  0.00    +0.156 A 
ATOM     18  C   UNL     1       3.909  -1.026  23.602  0.00  0.00    +0.070 A 
ATOM     19  C   UNL     1       2.920   1.508  22.724  0.00  0.00    +0.051 A 
ATOM     22  C   UNL     1       4.780  -0.002  23.205  0.00  0.00    +0.126 A 
ATOM     23  C   UNL     1       4.293   1.239  22.775  0.00  0.00    +0.042 A 
ENDBRANCH   7  12
BRANCH   5  11
ATOM     11  C   UNL     1      -3.859   0.947  25.009  0.00  0.00    +0.119 C 
BRANCH  11  13
ATOM      1  F   UNL     1       0.275   3.319  26.060  0.00  0.00    -0.202 F 
ATOM      3  F   UNL     1      -0.796   5.675  25.174  0.00  0.00    -0.202 F 
ATOM     13  C   UNL     1      -3.041   2.210  25.053  0.00  0.00    -0.030 A 
ATOM     16  C   UNL     1      -1.736   2.179  25.546  0.00  0.00    +0.046 A 
ATOM     17  C   UNL     1      -3.587   3.412  24.601  0.00  0.00    +0.008 A 
ATOM     20  C   UNL     1      -0.977   3.350  25.587  0.00  0.00    +0.159 A 
ATOM     21  C   UNL     1      -2.828   4.582  24.641  0.00  0.00    +0.041 A 
ATOM     24  C   UNL     1      -1.524   4.550  25.134  0.00  0.00    +0.158 A 
ENDBRANCH  11  13
ENDBRANCH   5  11
TORSDOF 3
ENDMDL
MODEL 5
REMARK VINA RESULT:      -1.4      4.014      7.388
REMARK  Name = 45784340
REMARK  3 active torsions:
REMARK  status: ('A' for Active; 'I' for Inactive)
REMARK    1  A    between atoms: N_5  and  C_11
REMARK    2  A    between atoms: C_7  and  C_12
REMARK    3  A    between atoms: C_11  and  C_13
REMARK                            x       y       z     vdW  Elec       q    Type
REMARK                         _______ _______ _______ _____ _____    ______ ____
ROOT
ATOM      5  N   UNL     1       0.003   3.483  25.181  0.00  0.00    -0.297 NA
ATOM      7  C   UNL     1      -0.041   1.138  25.125  0.00  0.00    +0.090 C 
ATOM      8  C   UNL     1       0.708   1.670  23.890  0.00  0.00    +0.029 C 
ATOM      9  C   UNL     1      -0.793   2.358  25.677  0.00  0.00    +0.097 C 
ATOM     10  C   UNL     1       0.319   3.139  23.795  0.00  0.00    +0.085 C 
ENDROOT
BRANCH   7  12
ATOM      2  F   UNL     1      -3.876  -4.876  23.974  0.00  0.00    -0.205 F 
ATOM      4  O   UNL     1      -2.234   0.259  24.531  0.00  0.00    -0.439 OA
ATOM      6  N   UNL     1      -0.655  -1.323  24.904  0.00  0.00    -0.213 NA
ATOM     12  C   UNL     1      -0.947  -0.042  24.860  0.00  0.00    +0.201 A 
ATOM     14  C   UNL     1      -1.844  -1.929  24.579  0.00  0.00    +0.112 A 
ATOM     15  C   UNL     1      -2.814  -0.963  24.349  0.00  0.00    +0.156 A 
ATOM     18  C   UNL     1      -2.193  -3.282  24.454  0.00  0.00    +0.070 A 
ATOM     19  C   UNL     1      -4.131  -1.231  23.999  0.00  0.00    +0.051 A 
ATOM     22  C   UNL     1      -3.514  -3.592  24.101  0.00  0.00    +0.126 A 
ATOM     23  C   UNL     1      -4.462  -2.585  23.879  0.00  0.00    +0.042 A 
ENDBRANCH   7  12
BRANCH   5  11
ATOM     11  C   UNL     1      -0.701   4.751  25.290  0.00  0.00    +0.119 C 
BRANCH  11  13
ATOM      1  F   UNL     1      -4.895   3.220  23.318  0.00  0.00    -0.202 F 
ATOM      3  F   UNL     1      -6.287   4.037  25.526  0.00  0.00    -0.202 F 
ATOM     13  C   UNL     1      -2.193   4.560  25.354  0.00  0.00    -0.030 A 
ATOM     16  C   UNL     1      -2.867   3.967  24.285  0.00  0.00    +0.046 A 
ATOM     17  C   UNL     1      -2.903   4.976  26.481  0.00  0.00    +0.008 A 
ATOM     20  C   UNL     1      -4.250   3.790  24.344  0.00  0.00    +0.159 A 
ATOM     21  C   UNL     1      -4.286   4.799  26.539  0.00  0.00    +0.041 A 
ATOM     24  C   UNL     1      -4.958   4.206  25.471  0.00  0.00    +0.158 A 
ENDBRANCH  11  13
ENDBRANCH   5  11
TORSDOF 3
ENDMDL
MODEL 6
REMARK VINA RESULT:      -1.2      1.562      2.031
REMARK  Name = 45784340
REMARK  3 active torsions:
REMARK  status: ('A' for Active; 'I' for Inactive)
REMARK    1  A    between atoms: N_5  and  C_11
REMARK    2  A    between atoms: C_7  and  C_12
REMARK    3  A    between atoms: C_11  and  C_13
REMARK                            x       y       z     vdW  Elec       q    Type
REMARK                         _______ _______ _______ _____ _____    ______ ____
ROOT
ATOM      5  N   UNL     1       0.585   0.860  22.924  0.00  0.00    -0.297 NA
ATOM      7  C   UNL     1      -1.338   2.126  23.371  0.00  0.00    +0.090 C 
ATOM      8  C   UNL     1      -0.142   2.716  24.140  0.00  0.00    +0.029 C 
ATOM      9  C   UNL     1      -0.873   0.726  22.945  0.00  0.00    +0.097 C 
ATOM     10  C   UNL     1       0.912   1.617  24.132  0.00  0.00    +0.085 C 
ENDROOT
BRANCH   7  12
ATOM      2  F   UNL     1      -7.497   1.405  27.080  0.00  0.00    -0.205 F 
ATOM      4  O   UNL     1      -3.229   3.319  24.340  0.00  0.00    -0.439 OA
ATOM      6  N   UNL     1      -3.279   1.072  24.638  0.00  0.00    -0.213 NA
ATOM     12  C   UNL     1      -2.640   2.107  24.139  0.00  0.00    +0.201 A 
ATOM     14  C   UNL     1      -4.386   1.637  25.223  0.00  0.00    +0.112 A 
ATOM     15  C   UNL     1      -4.359   3.013  25.042  0.00  0.00    +0.156 A 
ATOM     18  C   UNL     1      -5.460   1.067  25.922  0.00  0.00    +0.070 A 
ATOM     19  C   UNL     1      -5.329   3.891  25.508  0.00  0.00    +0.051 A 
ATOM     22  C   UNL     1      -6.459   1.922  26.408  0.00  0.00    +0.126 A 
ATOM     23  C   UNL     1      -6.392   3.306  26.204  0.00  0.00    +0.042 A 
ENDBRANCH   7  12
BRANCH   5  11
ATOM     11  C   UNL     1       1.259  -0.428  22.878  0.00  0.00    +0.119 C 
BRANCH  11  13
ATOM      1  F   UNL     1       5.564  -2.211  24.330  0.00  0.00    -0.202 F 
ATOM      3  F   UNL     1       6.829   0.090  23.565  0.00  0.00    -0.202 F 
ATOM     13  C   UNL     1       2.747  -0.290  23.061  0.00  0.00    -0.030 A 
ATOM     16  C   UNL     1       3.481  -1.335  23.622  0.00  0.00    +0.046 A 
ATOM     17  C   UNL     1       3.392   0.884  22.670  0.00  0.00    +0.008 A 
ATOM     20  C   UNL     1       4.860  -1.207  23.792  0.00  0.00    +0.159 A 
ATOM     21  C   UNL     1       4.771   1.012  22.839  0.00  0.00    +0.041 A 
ATOM     24  C   UNL     1       5.504  -0.034  23.400  0.00  0.00    +0.158 A 
ENDBRANCH  11  13
ENDBRANCH   5  11
TORSDOF 3
ENDMDL
MODEL 7
REMARK VINA RESULT:      -0.9      2.156      8.077
REMARK  Name = 45784340
REMARK  3 active torsions:
REMARK  status: ('A' for Active; 'I' for Inactive)
REMARK    1  A    between atoms: N_5  and  C_11
REMARK    2  A    between atoms: C_7  and  C_12
REMARK    3  A    between atoms: C_11  and  C_13
REMARK                            x       y       z     vdW  Elec       q    Type
REMARK                         _______ _______ _______ _____ _____    ______ ____
ROOT
ATOM      5  N   UNL     1      -2.536  -0.273  24.274  0.00  0.00    -0.297 NA
ATOM      7  C   UNL     1      -0.516  -0.742  23.176  0.00  0.00    +0.090 C 
ATOM      8  C   UNL     1      -0.991  -1.991  23.941  0.00  0.00    +0.029 C 
ATOM      9  C   UNL     1      -1.344   0.410  23.765  0.00  0.00    +0.097 C 
ATOM     10  C   UNL     1      -2.029  -1.478  24.929  0.00  0.00    +0.085 C 
ENDROOT
BRANCH   7  12
ATOM      2  F   UNL     1       6.483   1.050  23.244  0.00  0.00    -0.205 F 
ATOM      4  O   UNL     1       1.735  -1.527  23.681  0.00  0.00    -0.439 OA
ATOM      6  N   UNL     1       1.630   0.603  22.915  0.00  0.00    -0.213 NA
ATOM     12  C   UNL     1       0.972  -0.489  23.236  0.00  0.00    +0.201 A 
ATOM     14  C   UNL     1       2.938   0.270  23.165  0.00  0.00    +0.112 A 
ATOM     15  C   UNL     1       3.007  -1.034  23.634  0.00  0.00    +0.156 A 
ATOM     18  C   UNL     1       4.126   1.002  23.025  0.00  0.00    +0.070 A 
ATOM     19  C   UNL     1       4.181  -1.689  23.985  0.00  0.00    +0.051 A 
ATOM     22  C   UNL     1       5.332   0.375  23.368  0.00  0.00    +0.126 A 
ATOM     23  C   UNL     1       5.356  -0.944  23.839  0.00  0.00    +0.042 A 
ENDBRANCH   7  12
BRANCH   5  11
ATOM     11  C   UNL     1      -3.311   0.565  25.176  0.00  0.00    +0.119 C 
BRANCH  11  13
ATOM      1  F   UNL     1      -3.917   5.235  23.895  0.00  0.00    -0.202 F 
ATOM      3  F   UNL     1      -1.557   5.920  25.095  0.00  0.00    -0.202 F 
ATOM     13  C   UNL     1      -2.842   1.995  25.155  0.00  0.00    -0.030 A 
ATOM     16  C   UNL     1      -3.611   2.972  24.522  0.00  0.00    +0.046 A 
ATOM     17  C   UNL     1      -1.638   2.345  25.768  0.00  0.00    +0.008 A 
ATOM     20  C   UNL     1      -3.177   4.298  24.502  0.00  0.00    +0.159 A 
ATOM     21  C   UNL     1      -1.204   3.671  25.748  0.00  0.00    +0.041 A 
ATOM     24  C   UNL     1      -1.974   4.647  25.115  0.00  0.00    +0.158 A 
ENDBRANCH  11  13
ENDBRANCH   5  11
TORSDOF 3
ENDMDL
MODEL 8
REMARK VINA RESULT:      -0.9      1.880      9.335
REMARK  Name = 45784340
REMARK  3 active torsions:
REMARK  status: ('A' for Active; 'I' for Inactive)
REMARK    1  A    between atoms: N_5  and  C_11
REMARK    2  A    between atoms: C_7  and  C_12
REMARK    3  A    between atoms: C_11  and  C_13
REMARK                            x       y       z     vdW  Elec       q    Type
REMARK                         _______ _______ _______ _____ _____    ______ ____
ROOT
ATOM      5  N   UNL     1      -1.255   1.451  24.020  0.00  0.00    -0.297 NA
ATOM      7  C   UNL     1       0.600   0.429  23.011  0.00  0.00    +0.090 C 
ATOM      8  C   UNL     1      -0.245  -0.635  23.734  0.00  0.00    +0.029 C 
ATOM      9  C   UNL     1       0.105   1.768  23.577  0.00  0.00    +0.097 C 
ATOM     10  C   UNL     1      -1.143   0.151  24.681  0.00  0.00    +0.085 C 
ENDROOT
BRANCH   7  12
ATOM      2  F   UNL     1       7.806   0.180  23.484  0.00  0.00    -0.205 F 
ATOM      4  O   UNL     1       2.515  -0.996  23.504  0.00  0.00    -0.439 OA
ATOM      6  N   UNL     1       3.045   1.139  22.957  0.00  0.00    -0.213 NA
ATOM     12  C   UNL     1       2.095   0.250  23.144  0.00  0.00    +0.201 A 
ATOM     14  C   UNL     1       4.194   0.432  23.214  0.00  0.00    +0.112 A 
ATOM     15  C   UNL     1       3.874  -0.876  23.549  0.00  0.00    +0.156 A 
ATOM     18  C   UNL     1       5.544   0.812  23.187  0.00  0.00    +0.070 A 
ATOM     19  C   UNL     1       4.800  -1.861  23.867  0.00  0.00    +0.051 A 
ATOM     22  C   UNL     1       6.508  -0.154  23.502  0.00  0.00    +0.126 A 
ATOM     23  C   UNL     1       6.141  -1.464  23.836  0.00  0.00    +0.042 A 
ENDBRANCH   7  12
BRANCH   5  11
ATOM     11  C   UNL     1      -1.804   2.473  24.898  0.00  0.00    +0.119 C 
BRANCH  11  13
ATOM      1  F   UNL     1      -6.166   4.499  25.728  0.00  0.00    -0.202 F 
ATOM      3  F   UNL     1      -7.412   2.102  25.304  0.00  0.00    -0.202 F 
ATOM     13  C   UNL     1      -3.302   2.374  25.006  0.00  0.00    -0.030 A 
ATOM     16  C   UNL     1      -4.055   3.505  25.324  0.00  0.00    +0.046 A 
ATOM     17  C   UNL     1      -3.938   1.151  24.789  0.00  0.00    +0.008 A 
ATOM     20  C   UNL     1      -5.444   3.413  25.424  0.00  0.00    +0.159 A 
ATOM     21  C   UNL     1      -5.327   1.059  24.889  0.00  0.00    +0.041 A 
ATOM     24  C   UNL     1      -6.079   2.190  25.206  0.00  0.00    +0.158 A 
ENDBRANCH  11  13
ENDBRANCH   5  11
TORSDOF 3
ENDMDL
MODEL 9
REMARK VINA RESULT:      -0.8      3.278      8.075
REMARK  Name = 45784340
REMARK  3 active torsions:
REMARK  status: ('A' for Active; 'I' for Inactive)
REMARK    1  A    between atoms: N_5  and  C_11
REMARK    2  A    between atoms: C_7  and  C_12
REMARK    3  A    between atoms: C_11  and  C_13
REMARK                            x       y       z     vdW  Elec       q    Type
REMARK                         _______ _______ _______ _____ _____    ______ ____
ROOT
ATOM      5  N   UNL     1      -3.051   2.221  24.316  0.00  0.00    -0.297 NA
ATOM      7  C   UNL     1      -0.769   2.327  23.783  0.00  0.00    +0.090 C 
ATOM      8  C   UNL     1      -1.604   2.412  22.493  0.00  0.00    +0.029 C 
ATOM      9  C   UNL     1      -1.748   1.811  24.846  0.00  0.00    +0.097 C 
ATOM     10  C   UNL     1      -2.989   1.916  22.887  0.00  0.00    +0.085 C 
ENDROOT
BRANCH   7  12
ATOM      2  F   UNL     1       4.853  -2.197  23.418  0.00  0.00    -0.205 F 
ATOM      4  O   UNL     1       1.623   2.155  23.349  0.00  0.00    -0.439 OA
ATOM      6  N   UNL     1       0.614   0.190  23.856  0.00  0.00    -0.213 NA
ATOM     12  C   UNL     1       0.482   1.486  23.675  0.00  0.00    +0.201 A 
ATOM     14  C   UNL     1       1.951  -0.026  23.632  0.00  0.00    +0.112 A 
ATOM     15  C   UNL     1       2.573   1.176  23.321  0.00  0.00    +0.156 A 
ATOM     18  C   UNL     1       2.723  -1.197  23.669  0.00  0.00    +0.070 A 
ATOM     19  C   UNL     1       3.926   1.317  23.037  0.00  0.00    +0.051 A 
ATOM     22  C   UNL     1       4.092  -1.094  23.389  0.00  0.00    +0.126 A 
ATOM     23  C   UNL     1       4.679   0.139  23.079  0.00  0.00    +0.042 A 
ENDBRANCH   7  12
BRANCH   5  11
ATOM     11  C   UNL     1      -4.156   1.548  24.979  0.00  0.00    +0.119 C 
BRANCH  11  13
ATOM      1  F   UNL     1      -4.713  -2.832  22.898  0.00  0.00    -0.202 F 
ATOM      3  F   UNL     1      -3.489  -4.048  25.020  0.00  0.00    -0.202 F 
ATOM     13  C   UNL     1      -3.977   0.053  24.990  0.00  0.00    -0.030 A 
ATOM     16  C   UNL     1      -4.437  -0.712  23.918  0.00  0.00    +0.046 A 
ATOM     17  C   UNL     1      -3.352  -0.567  26.073  0.00  0.00    +0.008 A 
ATOM     20  C   UNL     1      -4.272  -2.098  23.928  0.00  0.00    +0.159 A 
ATOM     21  C   UNL     1      -3.187  -1.953  26.082  0.00  0.00    +0.041 A 
ATOM     24  C   UNL     1      -3.646  -2.717  25.010  0.00  0.00    +0.158 A 
ENDBRANCH  11  13
ENDBRANCH   5  11
TORSDOF 3
ENDMDL
MODEL 10
REMARK VINA RESULT:      -0.6      1.799      8.050
REMARK  Name = 45784340
REMARK  3 active torsions:
REMARK  status: ('A' for Active; 'I' for Inactive)
REMARK    1  A    between atoms: N_5  and  C_11
REMARK    2  A    between atoms: C_7  and  C_12
REMARK    3  A    between atoms: C_11  and  C_13
REMARK                            x       y       z     vdW  Elec       q    Type
REMARK                         _______ _______ _______ _____ _____    ______ ____
ROOT
ATOM      5  N   UNL     1      -4.292  -0.866  24.672  0.00  0.00    -0.297 NA
ATOM      7  C   UNL     1      -2.104  -1.486  24.097  0.00  0.00    +0.090 C 
ATOM      8  C   UNL     1      -2.334  -1.740  25.597  0.00  0.00    +0.029 C 
ATOM      9  C   UNL     1      -3.260  -0.566  23.678  0.00  0.00    +0.097 C 
ATOM     10  C   UNL     1      -3.578  -0.935  25.947  0.00  0.00    +0.085 C 
ENDROOT
BRANCH   7  12
ATOM      2  F   UNL     1       4.548   0.636  22.239  0.00  0.00    -0.205 F 
ATOM      4  O   UNL     1      -0.569   0.405  24.011  0.00  0.00    -0.439 OA
ATOM      6  N   UNL     1       0.289  -1.541  23.227  0.00  0.00    -0.213 NA
ATOM     12  C   UNL     1      -0.746  -0.921  23.749  0.00  0.00    +0.201 A 
ATOM     14  C   UNL     1       1.236  -0.551  23.131  0.00  0.00    +0.112 A 
ATOM     15  C   UNL     1       0.714   0.642  23.611  0.00  0.00    +0.156 A 
ATOM     18  C   UNL     1       2.555  -0.570  22.655  0.00  0.00    +0.070 A 
ATOM     19  C   UNL     1       1.406   1.846  23.658  0.00  0.00    +0.051 A 
ATOM     22  C   UNL     1       3.285   0.625  22.687  0.00  0.00    +0.126 A 
ATOM     23  C   UNL     1       2.720   1.809  23.179  0.00  0.00    +0.042 A 
ENDBRANCH   7  12
BRANCH   5  11
ATOM     11  C   UNL     1      -5.355   0.127  24.685  0.00  0.00    +0.119 C 
BRANCH  11  13
ATOM      1  F   UNL     1      -6.102   4.814  25.820  0.00  0.00    -0.202 F 
ATOM      3  F   UNL     1      -3.407   5.275  25.892  0.00  0.00    -0.202 F 
ATOM     13  C   UNL     1      -4.834   1.502  25.008  0.00  0.00    -0.030 A 
ATOM     16  C   UNL     1      -5.727   2.542  25.269  0.00  0.00    +0.046 A 
ATOM     17  C   UNL     1      -3.460   1.737  25.045  0.00  0.00    +0.008 A 
ATOM     20  C   UNL     1      -5.245   3.817  25.568  0.00  0.00    +0.159 A 
ATOM     21  C   UNL     1      -2.977   3.011  25.344  0.00  0.00    +0.041 A 
ATOM     24  C   UNL     1      -3.870   4.050  25.606  0.00  0.00    +0.158 A 
ENDBRANCH  11  13
ENDBRANCH   5  11
TORSDOF 3
ENDMDL
