MODEL 1
REMARK VINA RESULT:      -3.0      0.000      0.000
REMARK  Name = 25390136
REMARK  10 active torsions:
REMARK  status: ('A' for Active; 'I' for Inactive)
REMARK    1  A    between atoms: O_3  and  C_11
REMARK    2  A    between atoms: O_4  and  C_12
REMARK    3  A    between atoms: N_7  and  C_16
REMARK    4  A    between atoms: N_9  and  C_20
REMARK    5  A    between atoms: C_13  and  C_15
REMARK    6  A    between atoms: C_14  and  C_16
REMARK    7  A    between atoms: C_15  and  C_17
REMARK    8  A    between atoms: C_19  and  C_21
REMARK    9  A    between atoms: C_20  and  C_22
REMARK   10  A    between atoms: C_20  and  C_23
REMARK                            x       y       z     vdW  Elec       q    Type
REMARK                         _______ _______ _______ _____ _____    ______ ____
ROOT
ATOM      2  O   UNL     1      -5.475 -10.781  10.404  0.00  0.00    -0.366 OA
ATOM     11  C   UNL     1      -6.746  -9.127  11.502  0.00  0.00    +0.175 C 
ATOM     12  C   UNL     1      -7.322  -9.310  10.113  0.00  0.00    +0.176 C 
ATOM     13  C   UNL     1      -6.001 -10.436  11.698  0.00  0.00    +0.159 C 
ATOM     14  C   UNL     1      -6.189 -10.032   9.394  0.00  0.00    +0.167 C 
ENDROOT
BRANCH  11   3
ATOM      3  O   UNL     1      -7.732  -8.924  12.494  0.00  0.00    -0.387 OA
ATOM     29  H   UNL     1      -8.565  -9.295  12.156  0.00  0.00    +0.210 HD
ENDBRANCH  11   3
BRANCH  12   4
ATOM      4  O   UNL     1      -8.449 -10.183  10.154  0.00  0.00    -0.387 OA
ATOM     30  H   UNL     1      -8.177 -10.988  10.628  0.00  0.00    +0.210 HD
ENDBRANCH  12   4
BRANCH  13  15
ATOM     15  C   UNL     1      -4.867 -10.339  12.702  0.00  0.00    +0.133 C 
BRANCH  15  17
ATOM      5  O   UNL     1      -4.412 -10.517  15.090  0.00  0.00    -0.338 OA
ATOM      8  N   UNL     1      -6.590 -10.459  14.574  0.00  0.00    -0.191 NA
ATOM     10  N   UNL     1      -5.102 -10.598  16.306  0.00  0.00    -0.056 NA
ATOM     17  C   UNL     1      -5.362 -10.436  14.123  0.00  0.00    +0.230 A 
ATOM     19  C   UNL     1      -6.380 -10.559  15.919  0.00  0.00    +0.202 A 
BRANCH  19  21
ATOM      1  F   UNL     1     -10.611 -10.781  19.526  0.00  0.00    -0.205 F 
ATOM     21  C   UNL     1      -7.471 -10.616  16.849  0.00  0.00    +0.023 A 
ATOM     24  C   UNL     1      -8.786 -10.585  16.385  0.00  0.00    +0.014 A 
ATOM     25  C   UNL     1      -7.216 -10.703  18.217  0.00  0.00    +0.014 A 
ATOM     26  C   UNL     1      -9.846 -10.641  17.289  0.00  0.00    +0.039 A 
ATOM     27  C   UNL     1      -8.277 -10.759  19.122  0.00  0.00    +0.039 A 
ATOM     28  C   UNL     1      -9.592 -10.728  18.658  0.00  0.00    +0.123 A 
ENDBRANCH  19  21
ENDBRANCH  15  17
ENDBRANCH  13  15
BRANCH  14  16
ATOM     16  C   UNL     1      -5.199  -9.082   8.734  0.00  0.00    +0.140 C 
BRANCH  16   7
ATOM      6  O   UNL     1      -3.696  -7.952  10.924  0.00  0.00    -0.253 OA
ATOM      7  N   UNL     1      -3.851  -9.395   9.108  0.00  0.00    -0.297 N 
ATOM      9  N   UNL     1      -1.893  -9.286  10.328  0.00  0.00    -0.297 N 
ATOM     18  C   UNL     1      -3.191  -8.800  10.188  0.00  0.00    +0.300 C 
ATOM     31  H   UNL     1      -3.355 -10.095   8.567  0.00  0.00    +0.150 HD
ATOM     32  H   UNL     1      -1.542  -9.931   9.626  0.00  0.00    +0.150 HD
BRANCH   9  20
ATOM     20  C   UNL     1      -0.997  -8.837  11.366  0.00  0.00    +0.068 C 
ATOM     22  C   UNL     1       0.440  -8.827  10.856  0.00  0.00    +0.027 C 
ATOM     23  C   UNL     1      -1.136  -9.709  12.607  0.00  0.00    +0.027 C 
ENDBRANCH   9  20
ENDBRANCH  16   7
ENDBRANCH  14  16
TORSDOF 8
ENDMDL
MODEL 2
REMARK VINA RESULT:      -2.4     15.009     16.815
REMARK  Name = 25390136
REMARK  10 active torsions:
REMARK  status: ('A' for Active; 'I' for Inactive)
REMARK    1  A    between atoms: O_3  and  C_11
REMARK    2  A    between atoms: O_4  and  C_12
REMARK    3  A    between atoms: N_7  and  C_16
REMARK    4  A    between atoms: N_9  and  C_20
REMARK    5  A    between atoms: C_13  and  C_15
REMARK    6  A    between atoms: C_14  and  C_16
REMARK    7  A    between atoms: C_15  and  C_17
REMARK    8  A    between atoms: C_19  and  C_21
REMARK    9  A    between atoms: C_20  and  C_22
REMARK   10  A    between atoms: C_20  and  C_23
REMARK                            x       y       z     vdW  Elec       q    Type
REMARK                         _______ _______ _______ _____ _____    ______ ____
ROOT
ATOM      2  O   UNL     1      -3.016   3.903  23.705  0.00  0.00    -0.366 OA
ATOM     11  C   UNL     1      -2.918   4.334  26.020  0.00  0.00    +0.175 C 
ATOM     12  C   UNL     1      -1.537   4.573  25.444  0.00  0.00    +0.176 C 
ATOM     13  C   UNL     1      -3.790   4.457  24.783  0.00  0.00    +0.159 C 
ATOM     14  C   UNL     1      -1.626   3.855  24.102  0.00  0.00    +0.167 C 
ENDROOT
BRANCH  11   3
ATOM      3  O   UNL     1      -3.276   5.267  27.018  0.00  0.00    -0.387 OA
ATOM     29  H   UNL     1      -2.598   5.964  27.022  0.00  0.00    +0.210 HD
ENDBRANCH  11   3
BRANCH  12   4
ATOM      4  O   UNL     1      -1.339   5.963  25.191  0.00  0.00    -0.387 OA
ATOM     30  H   UNL     1      -1.280   6.078  24.228  0.00  0.00    +0.210 HD
ENDBRANCH  12   4
BRANCH  13  15
ATOM     15  C   UNL     1      -5.109   3.716  24.900  0.00  0.00    +0.133 C 
BRANCH  15  17
ATOM      5  O   UNL     1      -5.663   1.614  26.004  0.00  0.00    -0.338 OA
ATOM      8  N   UNL     1      -4.099   1.429  24.413  0.00  0.00    -0.191 NA
ATOM     10  N   UNL     1      -5.305   0.261  25.966  0.00  0.00    -0.056 NA
ATOM     17  C   UNL     1      -4.907   2.230  25.058  0.00  0.00    +0.230 A 
ATOM     19  C   UNL     1      -4.378   0.231  25.004  0.00  0.00    +0.202 A 
BRANCH  19  21
ATOM      1  F   UNL     1      -1.801  -4.457  23.474  0.00  0.00    -0.205 F 
ATOM     21  C   UNL     1      -3.714  -0.978  24.609  0.00  0.00    +0.023 A 
ATOM     24  C   UNL     1      -2.365  -1.162  24.910  0.00  0.00    +0.014 A 
ATOM     25  C   UNL     1      -4.418  -1.969  23.926  0.00  0.00    +0.014 A 
ATOM     26  C   UNL     1      -1.719  -2.337  24.526  0.00  0.00    +0.039 A 
ATOM     27  C   UNL     1      -3.772  -3.145  23.542  0.00  0.00    +0.039 A 
ATOM     28  C   UNL     1      -2.422  -3.328  23.843  0.00  0.00    +0.123 A 
ENDBRANCH  19  21
ENDBRANCH  15  17
ENDBRANCH  13  15
BRANCH  14  16
ATOM     16  C   UNL     1      -1.215   2.391  24.180  0.00  0.00    +0.140 C 
BRANCH  16   7
ATOM      6  O   UNL     1       0.207   0.126  23.097  0.00  0.00    -0.253 OA
ATOM      7  N   UNL     1       0.205   2.244  24.052  0.00  0.00    -0.297 N 
ATOM      9  N   UNL     1       2.207   1.230  23.508  0.00  0.00    -0.297 N 
ATOM     18  C   UNL     1       0.819   1.109  23.514  0.00  0.00    +0.300 C 
ATOM     31  H   UNL     1       0.796   3.012  24.357  0.00  0.00    +0.150 HD
ATOM     32  H   UNL     1       2.622   2.048  23.941  0.00  0.00    +0.150 HD
BRANCH   9  20
ATOM     20  C   UNL     1       3.080   0.197  23.004  0.00  0.00    +0.068 C 
ATOM     22  C   UNL     1       4.538   0.593  23.202  0.00  0.00    +0.027 C 
ATOM     23  C   UNL     1       2.780  -0.089  21.537  0.00  0.00    +0.027 C 
ENDBRANCH   9  20
ENDBRANCH  16   7
ENDBRANCH  14  16
TORSDOF 8
ENDMDL
MODEL 3
REMARK VINA RESULT:      -1.7     15.060     17.381
REMARK  Name = 25390136
REMARK  10 active torsions:
REMARK  status: ('A' for Active; 'I' for Inactive)
REMARK    1  A    between atoms: O_3  and  C_11
REMARK    2  A    between atoms: O_4  and  C_12
REMARK    3  A    between atoms: N_7  and  C_16
REMARK    4  A    between atoms: N_9  and  C_20
REMARK    5  A    between atoms: C_13  and  C_15
REMARK    6  A    between atoms: C_14  and  C_16
REMARK    7  A    between atoms: C_15  and  C_17
REMARK    8  A    between atoms: C_19  and  C_21
REMARK    9  A    between atoms: C_20  and  C_22
REMARK   10  A    between atoms: C_20  and  C_23
REMARK                            x       y       z     vdW  Elec       q    Type
REMARK                         _______ _______ _______ _____ _____    ______ ____
ROOT
ATOM      2  O   UNL     1      -2.382  -2.882  24.056  0.00  0.00    -0.366 OA
ATOM     11  C   UNL     1      -1.866  -1.257  25.684  0.00  0.00    +0.175 C 
ATOM     12  C   UNL     1      -3.274  -1.750  25.949  0.00  0.00    +0.176 C 
ATOM     13  C   UNL     1      -1.293  -2.399  24.862  0.00  0.00    +0.159 C 
ATOM     14  C   UNL     1      -3.628  -2.421  24.627  0.00  0.00    +0.167 C 
ENDROOT
BRANCH  11   3
ATOM      3  O   UNL     1      -1.122  -1.028  26.863  0.00  0.00    -0.387 OA
ATOM     29  H   UNL     1      -0.180  -1.064  26.626  0.00  0.00    +0.210 HD
ENDBRANCH  11   3
BRANCH  12   4
ATOM      4  O   UNL     1      -3.265  -2.751  26.965  0.00  0.00    -0.387 OA
ATOM     30  H   UNL     1      -3.686  -3.545  26.595  0.00  0.00    +0.210 HD
ENDBRANCH  12   4
BRANCH  13  15
ATOM     15  C   UNL     1      -0.142  -1.977  23.967  0.00  0.00    +0.133 C 
BRANCH  15  17
ATOM      5  O   UNL     1       1.236  -0.031  23.461  0.00  0.00    -0.338 OA
ATOM      8  N   UNL     1      -0.721   0.459  24.432  0.00  0.00    -0.191 NA
ATOM     10  N   UNL     1       1.202   1.363  23.585  0.00  0.00    -0.056 NA
ATOM     17  C   UNL     1       0.066  -0.484  23.982  0.00  0.00    +0.230 A 
ATOM     19  C   UNL     1       0.018   1.575  24.166  0.00  0.00    +0.202 A 
BRANCH  19  21
ATOM      1  F   UNL     1      -1.825   6.669  25.436  0.00  0.00    -0.205 F 
ATOM     21  C   UNL     1      -0.457   2.889  24.494  0.00  0.00    +0.023 A 
ATOM     24  C   UNL     1      -0.118   3.974  23.687  0.00  0.00    +0.014 A 
ATOM     25  C   UNL     1      -1.259   3.079  25.619  0.00  0.00    +0.014 A 
ATOM     26  C   UNL     1      -0.580   5.251  24.005  0.00  0.00    +0.039 A 
ATOM     27  C   UNL     1      -1.721   4.357  25.938  0.00  0.00    +0.039 A 
ATOM     28  C   UNL     1      -1.382   5.443  25.130  0.00  0.00    +0.123 A 
ENDBRANCH  19  21
ENDBRANCH  15  17
ENDBRANCH  13  15
BRANCH  14  16
ATOM     16  C   UNL     1      -4.272  -1.468  23.629  0.00  0.00    +0.140 C 
BRANCH  16   7
ATOM      6  O   UNL     1      -3.298   1.244  23.475  0.00  0.00    -0.253 OA
ATOM      7  N   UNL     1      -4.815  -0.317  24.288  0.00  0.00    -0.297 N 
ATOM      9  N   UNL     1      -5.003   1.901  24.906  0.00  0.00    -0.297 N 
ATOM     18  C   UNL     1      -4.282   0.970  24.161  0.00  0.00    +0.300 C 
ATOM     31  H   UNL     1      -5.640  -0.441  24.867  0.00  0.00    +0.150 HD
ATOM     32  H   UNL     1      -5.755   1.565  25.499  0.00  0.00    +0.150 HD
BRANCH   9  20
ATOM     20  C   UNL     1      -4.661   3.302  24.948  0.00  0.00    +0.068 C 
ATOM     22  C   UNL     1      -5.804   4.107  25.556  0.00  0.00    +0.027 C 
ATOM     23  C   UNL     1      -4.310   3.810  23.555  0.00  0.00    +0.027 C 
ENDBRANCH   9  20
ENDBRANCH  16   7
ENDBRANCH  14  16
TORSDOF 8
ENDMDL
MODEL 4
REMARK VINA RESULT:      -1.5     15.060     17.038
REMARK  Name = 25390136
REMARK  10 active torsions:
REMARK  status: ('A' for Active; 'I' for Inactive)
REMARK    1  A    between atoms: O_3  and  C_11
REMARK    2  A    between atoms: O_4  and  C_12
REMARK    3  A    between atoms: N_7  and  C_16
REMARK    4  A    between atoms: N_9  and  C_20
REMARK    5  A    between atoms: C_13  and  C_15
REMARK    6  A    between atoms: C_14  and  C_16
REMARK    7  A    between atoms: C_15  and  C_17
REMARK    8  A    between atoms: C_19  and  C_21
REMARK    9  A    between atoms: C_20  and  C_22
REMARK   10  A    between atoms: C_20  and  C_23
REMARK                            x       y       z     vdW  Elec       q    Type
REMARK                         _______ _______ _______ _____ _____    ______ ____
ROOT
ATOM      2  O   UNL     1      -3.926  -0.981  26.089  0.00  0.00    -0.366 OA
ATOM     11  C   UNL     1      -3.691  -1.491  23.799  0.00  0.00    +0.175 C 
ATOM     12  C   UNL     1      -2.569  -2.183  24.547  0.00  0.00    +0.176 C 
ATOM     13  C   UNL     1      -4.701  -1.260  24.909  0.00  0.00    +0.159 C 
ATOM     14  C   UNL     1      -2.570  -1.438  25.877  0.00  0.00    +0.167 C 
ENDROOT
BRANCH  11   3
ATOM      3  O   UNL     1      -4.225  -2.270  22.749  0.00  0.00    -0.387 OA
ATOM     29  H   UNL     1      -5.194  -2.231  22.821  0.00  0.00    +0.210 HD
ENDBRANCH  11   3
BRANCH  12   4
ATOM      4  O   UNL     1      -2.909  -3.545  24.802  0.00  0.00    -0.387 OA
ATOM     30  H   UNL     1      -3.682  -3.759  24.253  0.00  0.00    +0.210 HD
ENDBRANCH  12   4
BRANCH  13  15
ATOM     15  C   UNL     1      -5.646  -0.106  24.633  0.00  0.00    +0.133 C 
BRANCH  15  17
ATOM      5  O   UNL     1      -5.760   2.084  25.698  0.00  0.00    -0.338 OA
ATOM      8  N   UNL     1      -3.842   1.692  24.612  0.00  0.00    -0.191 NA
ATOM     10  N   UNL     1      -4.979   3.235  25.861  0.00  0.00    -0.056 NA
ATOM     17  C   UNL     1      -5.016   1.226  24.952  0.00  0.00    +0.230 A 
ATOM     19  C   UNL     1      -3.864   2.927  25.192  0.00  0.00    +0.202 A 
BRANCH  19  21
ATOM      1  F   UNL     1       0.443   6.426  24.777  0.00  0.00    -0.205 F 
ATOM     21  C   UNL     1      -2.753   3.829  25.086  0.00  0.00    +0.023 A 
ATOM     24  C   UNL     1      -1.456   3.329  24.977  0.00  0.00    +0.014 A 
ATOM     25  C   UNL     1      -2.971   5.206  25.089  0.00  0.00    +0.014 A 
ATOM     26  C   UNL     1      -0.377   4.205  24.873  0.00  0.00    +0.039 A 
ATOM     27  C   UNL     1      -1.891   6.084  24.985  0.00  0.00    +0.039 A 
ATOM     28  C   UNL     1      -0.594   5.583  24.877  0.00  0.00    +0.123 A 
ENDBRANCH  19  21
ENDBRANCH  15  17
ENDBRANCH  13  15
BRANCH  14  16
ATOM     16  C   UNL     1      -1.662  -0.216  25.877  0.00  0.00    +0.140 C 
BRANCH  16   7
ATOM      6  O   UNL     1      -0.692   0.964  23.428  0.00  0.00    -0.253 OA
ATOM      7  N   UNL     1      -0.419  -0.493  25.218  0.00  0.00    -0.297 N 
ATOM      9  N   UNL     1       1.228  -0.328  23.608  0.00  0.00    -0.297 N 
ATOM     18  C   UNL     1      -0.021   0.124  24.028  0.00  0.00    +0.300 C 
ATOM     31  H   UNL     1       0.210  -1.165  25.646  0.00  0.00    +0.150 HD
ATOM     32  H   UNL     1       1.670  -1.077  24.131  0.00  0.00    +0.150 HD
BRANCH   9  20
ATOM     20  C   UNL     1       1.870   0.150  22.407  0.00  0.00    +0.068 C 
ATOM     22  C   UNL     1       1.440  -0.686  21.208  0.00  0.00    +0.027 C 
ATOM     23  C   UNL     1       3.385   0.142  22.571  0.00  0.00    +0.027 C 
ENDBRANCH   9  20
ENDBRANCH  16   7
ENDBRANCH  14  16
TORSDOF 8
ENDMDL
MODEL 5
REMARK VINA RESULT:      -1.3     15.269     17.553
REMARK  Name = 25390136
REMARK  10 active torsions:
REMARK  status: ('A' for Active; 'I' for Inactive)
REMARK    1  A    between atoms: O_3  and  C_11
REMARK    2  A    between atoms: O_4  and  C_12
REMARK    3  A    between atoms: N_7  and  C_16
REMARK    4  A    between atoms: N_9  and  C_20
REMARK    5  A    between atoms: C_13  and  C_15
REMARK    6  A    between atoms: C_14  and  C_16
REMARK    7  A    between atoms: C_15  and  C_17
REMARK    8  A    between atoms: C_19  and  C_21
REMARK    9  A    between atoms: C_20  and  C_22
REMARK   10  A    between atoms: C_20  and  C_23
REMARK                            x       y       z     vdW  Elec       q    Type
REMARK                         _______ _______ _______ _____ _____    ______ ____
ROOT
ATOM      2  O   UNL     1      -3.915   2.076  25.942  0.00  0.00    -0.366 OA
ATOM     11  C   UNL     1      -5.497   3.712  25.326  0.00  0.00    +0.175 C 
ATOM     12  C   UNL     1      -6.241   2.416  25.571  0.00  0.00    +0.176 C 
ATOM     13  C   UNL     1      -4.209   3.475  26.097  0.00  0.00    +0.159 C 
ATOM     14  C   UNL     1      -5.115   1.389  25.515  0.00  0.00    +0.167 C 
ENDROOT
BRANCH  11   3
ATOM      3  O   UNL     1      -6.191   4.852  25.791  0.00  0.00    -0.387 OA
ATOM     29  H   UNL     1      -6.987   4.539  26.254  0.00  0.00    +0.210 HD
ENDBRANCH  11   3
BRANCH  12   4
ATOM      4  O   UNL     1      -6.790   2.400  26.888  0.00  0.00    -0.387 OA
ATOM     30  H   UNL     1      -6.632   1.515  27.258  0.00  0.00    +0.210 HD
ENDBRANCH  12   4
BRANCH  13  15
ATOM     15  C   UNL     1      -3.043   4.303  25.590  0.00  0.00    +0.133 C 
BRANCH  15  17
ATOM      5  O   UNL     1      -1.030   3.275  26.504  0.00  0.00    -0.338 OA
ATOM      8  N   UNL     1      -1.342   2.895  24.319  0.00  0.00    -0.191 NA
ATOM     10  N   UNL     1       0.049   2.484  26.089  0.00  0.00    -0.056 NA
ATOM     17  C   UNL     1      -1.801   3.469  25.402  0.00  0.00    +0.230 A 
ATOM     19  C   UNL     1      -0.206   2.302  24.790  0.00  0.00    +0.202 A 
BRANCH  19  21
ATOM      1  F   UNL     1       3.125  -0.676  21.474  0.00  0.00    -0.205 F 
ATOM     21  C   UNL     1       0.653   1.534  23.934  0.00  0.00    +0.023 A 
ATOM     24  C   UNL     1       2.008   1.848  23.844  0.00  0.00    +0.014 A 
ATOM     25  C   UNL     1       0.132   0.473  23.195  0.00  0.00    +0.014 A 
ATOM     26  C   UNL     1       2.843   1.102  23.013  0.00  0.00    +0.039 A 
ATOM     27  C   UNL     1       0.967  -0.274  22.363  0.00  0.00    +0.039 A 
ATOM     28  C   UNL     1       2.323   0.041  22.273  0.00  0.00    +0.123 A 
ENDBRANCH  19  21
ENDBRANCH  15  17
ENDBRANCH  13  15
BRANCH  14  16
ATOM     16  C   UNL     1      -4.869   0.850  24.113  0.00  0.00    +0.140 C 
BRANCH  16   7
ATOM      6  O   UNL     1      -4.023  -1.676  25.224  0.00  0.00    -0.253 OA
ATOM      7  N   UNL     1      -3.570   0.252  24.008  0.00  0.00    -0.297 N 
ATOM      9  N   UNL     1      -1.913  -1.326  24.323  0.00  0.00    -0.297 N 
ATOM     18  C   UNL     1      -3.239  -0.981  24.578  0.00  0.00    +0.300 C 
ATOM     31  H   UNL     1      -2.857   0.745  23.480  0.00  0.00    +0.150 HD
ATOM     32  H   UNL     1      -1.324  -0.653  23.843  0.00  0.00    +0.150 HD
BRANCH   9  20
ATOM     20  C   UNL     1      -1.318  -2.551  24.799  0.00  0.00    +0.068 C 
ATOM     22  C   UNL     1       0.095  -2.290  25.308  0.00  0.00    +0.027 C 
ATOM     23  C   UNL     1      -1.322  -3.610  23.703  0.00  0.00    +0.027 C 
ENDBRANCH   9  20
ENDBRANCH  16   7
ENDBRANCH  14  16
TORSDOF 8
ENDMDL
MODEL 6
REMARK VINA RESULT:      -1.3     15.373     17.781
REMARK  Name = 25390136
REMARK  10 active torsions:
REMARK  status: ('A' for Active; 'I' for Inactive)
REMARK    1  A    between atoms: O_3  and  C_11
REMARK    2  A    between atoms: O_4  and  C_12
REMARK    3  A    between atoms: N_7  and  C_16
REMARK    4  A    between atoms: N_9  and  C_20
REMARK    5  A    between atoms: C_13  and  C_15
REMARK    6  A    between atoms: C_14  and  C_16
REMARK    7  A    between atoms: C_15  and  C_17
REMARK    8  A    between atoms: C_19  and  C_21
REMARK    9  A    between atoms: C_20  and  C_22
REMARK   10  A    between atoms: C_20  and  C_23
REMARK                            x       y       z     vdW  Elec       q    Type
REMARK                         _______ _______ _______ _____ _____    ______ ____
ROOT
ATOM      2  O   UNL     1      -3.776   0.268  23.552  0.00  0.00    -0.366 OA
ATOM     11  C   UNL     1      -2.279   0.037  25.359  0.00  0.00    +0.175 C 
ATOM     12  C   UNL     1      -3.605  -0.565  25.775  0.00  0.00    +0.176 C 
ATOM     13  C   UNL     1      -2.391   0.007  23.845  0.00  0.00    +0.159 C 
ATOM     14  C   UNL     1      -4.559   0.029  24.745  0.00  0.00    +0.167 C 
ENDROOT
BRANCH  11   3
ATOM      3  O   UNL     1      -1.163  -0.695  25.823  0.00  0.00    -0.387 OA
ATOM     29  H   UNL     1      -0.390  -0.106  25.778  0.00  0.00    +0.210 HD
ENDBRANCH  11   3
BRANCH  12   4
ATOM      4  O   UNL     1      -3.585  -1.980  25.596  0.00  0.00    -0.387 OA
ATOM     30  H   UNL     1      -4.426  -2.329  25.939  0.00  0.00    +0.210 HD
ENDBRANCH  12   4
BRANCH  13  15
ATOM     15  C   UNL     1      -1.520   1.041  23.155  0.00  0.00    +0.133 C 
BRANCH  15  17
ATOM      5  O   UNL     1      -0.011  -0.303  21.792  0.00  0.00    -0.338 OA
ATOM      8  N   UNL     1       0.980   0.719  23.520  0.00  0.00    -0.191 NA
ATOM     10  N   UNL     1       1.342  -0.662  21.733  0.00  0.00    -0.056 NA
ATOM     17  C   UNL     1      -0.137   0.512  22.871  0.00  0.00    +0.230 A 
ATOM     19  C   UNL     1       1.860  -0.021  22.784  0.00  0.00    +0.202 A 
BRANCH  19  21
ATOM      1  F   UNL     1       7.255  -0.317  24.114  0.00  0.00    -0.205 F 
ATOM     21  C   UNL     1       3.251  -0.098  23.127  0.00  0.00    +0.023 A 
ATOM     24  C   UNL     1       4.074   1.015  22.955  0.00  0.00    +0.014 A 
ATOM     25  C   UNL     1       3.780  -1.285  23.632  0.00  0.00    +0.014 A 
ATOM     26  C   UNL     1       5.426   0.941  23.289  0.00  0.00    +0.039 A 
ATOM     27  C   UNL     1       5.133  -1.359  23.966  0.00  0.00    +0.039 A 
ATOM     28  C   UNL     1       5.956  -0.246  23.794  0.00  0.00    +0.123 A 
ENDBRANCH  19  21
ENDBRANCH  15  17
ENDBRANCH  13  15
BRANCH  14  16
ATOM     16  C   UNL     1      -5.156   1.360  25.183  0.00  0.00    +0.140 C 
BRANCH  16   7
ATOM      6  O   UNL     1      -3.621   3.454  23.923  0.00  0.00    -0.253 OA
ATOM      7  N   UNL     1      -4.166   2.195  25.798  0.00  0.00    -0.297 N 
ATOM      9  N   UNL     1      -2.565   3.851  25.952  0.00  0.00    -0.297 N 
ATOM     18  C   UNL     1      -3.463   3.192  25.115  0.00  0.00    +0.300 C 
ATOM     31  H   UNL     1      -3.976   2.062  26.787  0.00  0.00    +0.150 HD
ATOM     32  H   UNL     1      -2.454   3.513  26.903  0.00  0.00    +0.150 HD
BRANCH   9  20
ATOM     20  C   UNL     1      -1.715   4.925  25.495  0.00  0.00    +0.068 C 
ATOM     22  C   UNL     1      -2.505   5.889  24.620  0.00  0.00    +0.027 C 
ATOM     23  C   UNL     1      -0.505   4.371  24.754  0.00  0.00    +0.027 C 
ENDBRANCH   9  20
ENDBRANCH  16   7
ENDBRANCH  14  16
TORSDOF 8
ENDMDL
MODEL 7
REMARK VINA RESULT:      -1.1     14.943     17.462
REMARK  Name = 25390136
REMARK  10 active torsions:
REMARK  status: ('A' for Active; 'I' for Inactive)
REMARK    1  A    between atoms: O_3  and  C_11
REMARK    2  A    between atoms: O_4  and  C_12
REMARK    3  A    between atoms: N_7  and  C_16
REMARK    4  A    between atoms: N_9  and  C_20
REMARK    5  A    between atoms: C_13  and  C_15
REMARK    6  A    between atoms: C_14  and  C_16
REMARK    7  A    between atoms: C_15  and  C_17
REMARK    8  A    between atoms: C_19  and  C_21
REMARK    9  A    between atoms: C_20  and  C_22
REMARK   10  A    between atoms: C_20  and  C_23
REMARK                            x       y       z     vdW  Elec       q    Type
REMARK                         _______ _______ _______ _____ _____    ______ ____
ROOT
ATOM      2  O   UNL     1      -3.626   3.182  25.506  0.00  0.00    -0.366 OA
ATOM     11  C   UNL     1      -2.859   2.250  23.481  0.00  0.00    +0.175 C 
ATOM     12  C   UNL     1      -4.186   2.929  23.207  0.00  0.00    +0.176 C 
ATOM     13  C   UNL     1      -2.420   2.943  24.759  0.00  0.00    +0.159 C 
ATOM     14  C   UNL     1      -4.758   3.082  24.612  0.00  0.00    +0.167 C 
ENDROOT
BRANCH  11   3
ATOM      3  O   UNL     1      -1.921   2.415  22.438  0.00  0.00    -0.387 OA
ATOM     29  H   UNL     1      -1.618   3.339  22.463  0.00  0.00    +0.210 HD
ENDBRANCH  11   3
BRANCH  12   4
ATOM      4  O   UNL     1      -3.973   4.234  22.671  0.00  0.00    -0.387 OA
ATOM     30  H   UNL     1      -4.140   4.873  23.385  0.00  0.00    +0.210 HD
ENDBRANCH  12   4
BRANCH  13  15
ATOM     15  C   UNL     1      -1.458   2.115  25.592  0.00  0.00    +0.133 C 
BRANCH  15  17
ATOM      5  O   UNL     1      -0.907   0.610  23.756  0.00  0.00    -0.338 OA
ATOM      8  N   UNL     1       0.876   1.470  24.802  0.00  0.00    -0.191 NA
ATOM     10  N   UNL     1       0.216   0.081  23.109  0.00  0.00    -0.056 NA
ATOM     17  C   UNL     1      -0.430   1.418  24.738  0.00  0.00    +0.230 A 
ATOM     19  C   UNL     1       1.229   0.634  23.782  0.00  0.00    +0.202 A 
BRANCH  19  21
ATOM      1  F   UNL     1       6.559  -0.372  22.542  0.00  0.00    -0.205 F 
ATOM     21  C   UNL     1       2.603   0.375  23.462  0.00  0.00    +0.023 A 
ATOM     24  C   UNL     1       3.376   1.363  22.855  0.00  0.00    +0.014 A 
ATOM     25  C   UNL     1       3.166  -0.866  23.760  0.00  0.00    +0.014 A 
ATOM     26  C   UNL     1       4.712   1.111  22.544  0.00  0.00    +0.039 A 
ATOM     27  C   UNL     1       4.502  -1.119  23.450  0.00  0.00    +0.039 A 
ATOM     28  C   UNL     1       5.275  -0.130  22.841  0.00  0.00    +0.123 A 
ENDBRANCH  19  21
ENDBRANCH  15  17
ENDBRANCH  13  15
BRANCH  14  16
ATOM     16  C   UNL     1      -5.592   1.886  25.050  0.00  0.00    +0.140 C 
BRANCH  16   7
ATOM      6  O   UNL     1      -4.665  -0.563  23.834  0.00  0.00    -0.253 OA
ATOM      7  N   UNL     1      -4.773   0.877  25.655  0.00  0.00    -0.297 N 
ATOM      9  N   UNL     1      -3.577  -1.093  25.815  0.00  0.00    -0.297 N 
ATOM     18  C   UNL     1      -4.365  -0.287  24.995  0.00  0.00    +0.300 C 
ATOM     31  H   UNL     1      -4.462   1.022  26.611  0.00  0.00    +0.150 HD
ATOM     32  H   UNL     1      -3.446  -0.815  26.782  0.00  0.00    +0.150 HD
BRANCH   9  20
ATOM     20  C   UNL     1      -3.026  -2.353  25.376  0.00  0.00    +0.068 C 
ATOM     22  C   UNL     1      -1.555  -2.189  25.015  0.00  0.00    +0.027 C 
ATOM     23  C   UNL     1      -3.824  -2.906  24.201  0.00  0.00    +0.027 C 
ENDBRANCH   9  20
ENDBRANCH  16   7
ENDBRANCH  14  16
TORSDOF 8
ENDMDL
MODEL 8
REMARK VINA RESULT:      -0.7     16.033     18.000
REMARK  Name = 25390136
REMARK  10 active torsions:
REMARK  status: ('A' for Active; 'I' for Inactive)
REMARK    1  A    between atoms: O_3  and  C_11
REMARK    2  A    between atoms: O_4  and  C_12
REMARK    3  A    between atoms: N_7  and  C_16
REMARK    4  A    between atoms: N_9  and  C_20
REMARK    5  A    between atoms: C_13  and  C_15
REMARK    6  A    between atoms: C_14  and  C_16
REMARK    7  A    between atoms: C_15  and  C_17
REMARK    8  A    between atoms: C_19  and  C_21
REMARK    9  A    between atoms: C_20  and  C_22
REMARK   10  A    between atoms: C_20  and  C_23
REMARK                            x       y       z     vdW  Elec       q    Type
REMARK                         _______ _______ _______ _____ _____    ______ ____
ROOT
ATOM      2  O   UNL     1      -2.107   3.189  23.485  0.00  0.00    -0.366 OA
ATOM     11  C   UNL     1      -1.488   4.825  25.066  0.00  0.00    +0.175 C 
ATOM     12  C   UNL     1      -0.223   4.302  24.418  0.00  0.00    +0.176 C 
ATOM     13  C   UNL     1      -2.537   4.447  24.035  0.00  0.00    +0.159 C 
ATOM     14  C   UNL     1      -0.705   3.001  23.786  0.00  0.00    +0.167 C 
ENDROOT
BRANCH  11   3
ATOM      3  O   UNL     1      -1.459   6.216  25.308  0.00  0.00    -0.387 OA
ATOM     29  H   UNL     1      -1.512   6.663  24.446  0.00  0.00    +0.210 HD
ENDBRANCH  11   3
BRANCH  12   4
ATOM      4  O   UNL     1       0.196   5.176  23.371  0.00  0.00    -0.387 OA
ATOM     30  H   UNL     1       0.046   6.087  23.675  0.00  0.00    +0.210 HD
ENDBRANCH  12   4
BRANCH  13  15
ATOM     15  C   UNL     1      -3.931   4.301  24.618  0.00  0.00    +0.133 C 
BRANCH  15  17
ATOM      5  O   UNL     1      -5.338   2.641  25.715  0.00  0.00    -0.338 OA
ATOM      8  N   UNL     1      -3.695   1.769  24.470  0.00  0.00    -0.191 NA
ATOM     10  N   UNL     1      -5.462   1.250  25.826  0.00  0.00    -0.056 NA
ATOM     17  C   UNL     1      -4.275   2.860  24.898  0.00  0.00    +0.230 A 
ATOM     19  C   UNL     1      -4.457   0.806  25.065  0.00  0.00    +0.202 A 
BRANCH  19  21
ATOM      1  F   UNL     1      -3.419  -4.611  24.337  0.00  0.00    -0.205 F 
ATOM     21  C   UNL     1      -4.189  -0.590  24.877  0.00  0.00    +0.023 A 
ATOM     24  C   UNL     1      -3.465  -1.297  25.837  0.00  0.00    +0.014 A 
ATOM     25  C   UNL     1      -4.654  -1.242  23.735  0.00  0.00    +0.014 A 
ATOM     26  C   UNL     1      -3.205  -2.654  25.654  0.00  0.00    +0.039 A 
ATOM     27  C   UNL     1      -4.394  -2.601  23.552  0.00  0.00    +0.039 A 
ATOM     28  C   UNL     1      -3.669  -3.307  24.512  0.00  0.00    +0.123 A 
ENDBRANCH  19  21
ENDBRANCH  15  17
ENDBRANCH  13  15
BRANCH  14  16
ATOM     16  C   UNL     1      -0.585   1.804  24.719  0.00  0.00    +0.140 C 
BRANCH  16   7
ATOM      6  O   UNL     1      -0.661   2.811  27.423  0.00  0.00    -0.253 OA
ATOM      7  N   UNL     1       0.523   1.955  25.616  0.00  0.00    -0.297 N 
ATOM      9  N   UNL     1       1.633   2.492  27.568  0.00  0.00    -0.297 N 
ATOM     18  C   UNL     1       0.402   2.453  26.917  0.00  0.00    +0.300 C 
ATOM     31  H   UNL     1       1.442   1.671  25.292  0.00  0.00    +0.150 HD
ATOM     32  H   UNL     1       2.465   2.244  27.042  0.00  0.00    +0.150 HD
BRANCH   9  20
ATOM     20  C   UNL     1       1.787   2.965  28.923  0.00  0.00    +0.068 C 
ATOM     22  C   UNL     1       3.087   3.747  29.066  0.00  0.00    +0.027 C 
ATOM     23  C   UNL     1       1.732   1.802  29.905  0.00  0.00    +0.027 C 
ENDBRANCH   9  20
ENDBRANCH  16   7
ENDBRANCH  14  16
TORSDOF 8
ENDMDL
MODEL 9
REMARK VINA RESULT:      -0.5     15.045     16.893
REMARK  Name = 25390136
REMARK  10 active torsions:
REMARK  status: ('A' for Active; 'I' for Inactive)
REMARK    1  A    between atoms: O_3  and  C_11
REMARK    2  A    between atoms: O_4  and  C_12
REMARK    3  A    between atoms: N_7  and  C_16
REMARK    4  A    between atoms: N_9  and  C_20
REMARK    5  A    between atoms: C_13  and  C_15
REMARK    6  A    between atoms: C_14  and  C_16
REMARK    7  A    between atoms: C_15  and  C_17
REMARK    8  A    between atoms: C_19  and  C_21
REMARK    9  A    between atoms: C_20  and  C_22
REMARK   10  A    between atoms: C_20  and  C_23
REMARK                            x       y       z     vdW  Elec       q    Type
REMARK                         _______ _______ _______ _____ _____    ______ ____
ROOT
ATOM      2  O   UNL     1      -2.200   4.586  24.615  0.00  0.00    -0.366 OA
ATOM     11  C   UNL     1      -4.278   3.988  25.554  0.00  0.00    +0.175 C 
ATOM     12  C   UNL     1      -3.357   4.397  26.685  0.00  0.00    +0.176 C 
ATOM     13  C   UNL     1      -3.615   4.658  24.363  0.00  0.00    +0.159 C 
ATOM     14  C   UNL     1      -1.987   4.322  26.020  0.00  0.00    +0.167 C 
ENDROOT
BRANCH  11   3
ATOM      3  O   UNL     1      -5.610   4.422  25.733  0.00  0.00    -0.387 OA
ATOM     29  H   UNL     1      -5.620   5.387  25.619  0.00  0.00    +0.210 HD
ENDBRANCH  11   3
BRANCH  12   4
ATOM      4  O   UNL     1      -3.597   5.755  27.053  0.00  0.00    -0.387 OA
ATOM     30  H   UNL     1      -4.558   5.899  27.020  0.00  0.00    +0.210 HD
ENDBRANCH  12   4
BRANCH  13  15
ATOM     15  C   UNL     1      -3.933   3.986  23.040  0.00  0.00    +0.133 C 
BRANCH  15  17
ATOM      5  O   UNL     1      -2.799   2.079  22.031  0.00  0.00    -0.338 OA
ATOM      8  N   UNL     1      -3.915   1.593  23.910  0.00  0.00    -0.191 NA
ATOM     10  N   UNL     1      -2.607   0.710  22.254  0.00  0.00    -0.056 NA
ATOM     17  C   UNL     1      -3.578   2.521  23.052  0.00  0.00    +0.230 A 
ATOM     19  C   UNL     1      -3.295   0.498  23.379  0.00  0.00    +0.202 A 
BRANCH  19  21
ATOM      1  F   UNL     1      -3.638  -4.508  25.784  0.00  0.00    -0.205 F 
ATOM     21  C   UNL     1      -3.384  -0.792  24.000  0.00  0.00    +0.023 A 
ATOM     24  C   UNL     1      -4.005  -1.846  23.330  0.00  0.00    +0.014 A 
ATOM     25  C   UNL     1      -2.848  -0.993  25.271  0.00  0.00    +0.014 A 
ATOM     26  C   UNL     1      -4.091  -3.101  23.933  0.00  0.00    +0.039 A 
ATOM     27  C   UNL     1      -2.933  -2.248  25.874  0.00  0.00    +0.039 A 
ATOM     28  C   UNL     1      -3.555  -3.302  25.205  0.00  0.00    +0.123 A 
ENDBRANCH  19  21
ENDBRANCH  15  17
ENDBRANCH  13  15
BRANCH  14  16
ATOM     16  C   UNL     1      -1.339   2.950  26.143  0.00  0.00    +0.140 C 
BRANCH  16   7
ATOM      6  O   UNL     1      -0.186   0.461  25.246  0.00  0.00    -0.253 OA
ATOM      7  N   UNL     1      -0.295   2.781  25.175  0.00  0.00    -0.297 N 
ATOM      9  N   UNL     1       1.217   1.659  23.839  0.00  0.00    -0.297 N 
ATOM     18  C   UNL     1       0.211   1.534  24.794  0.00  0.00    +0.300 C 
ATOM     31  H   UNL     1       0.088   3.611  24.735  0.00  0.00    +0.150 HD
ATOM     32  H   UNL     1       1.526   2.591  23.582  0.00  0.00    +0.150 HD
BRANCH   9  20
ATOM     20  C   UNL     1       1.907   0.523  23.276  0.00  0.00    +0.068 C 
ATOM     22  C   UNL     1       3.286   0.935  22.776  0.00  0.00    +0.027 C 
ATOM     23  C   UNL     1       1.081  -0.105  22.160  0.00  0.00    +0.027 C 
ENDBRANCH   9  20
ENDBRANCH  16   7
ENDBRANCH  14  16
TORSDOF 8
ENDMDL
MODEL 10
REMARK VINA RESULT:      -0.3     15.380     17.791
REMARK  Name = 25390136
REMARK  10 active torsions:
REMARK  status: ('A' for Active; 'I' for Inactive)
REMARK    1  A    between atoms: O_3  and  C_11
REMARK    2  A    between atoms: O_4  and  C_12
REMARK    3  A    between atoms: N_7  and  C_16
REMARK    4  A    between atoms: N_9  and  C_20
REMARK    5  A    between atoms: C_13  and  C_15
REMARK    6  A    between atoms: C_14  and  C_16
REMARK    7  A    between atoms: C_15  and  C_17
REMARK    8  A    between atoms: C_19  and  C_21
REMARK    9  A    between atoms: C_20  and  C_22
REMARK   10  A    between atoms: C_20  and  C_23
REMARK                            x       y       z     vdW  Elec       q    Type
REMARK                         _______ _______ _______ _____ _____    ______ ____
ROOT
ATOM      2  O   UNL     1      -0.403   2.906  24.401  0.00  0.00    -0.366 OA
ATOM     11  C   UNL     1      -2.729   3.087  24.742  0.00  0.00    +0.175 C 
ATOM     12  C   UNL     1      -2.037   3.913  25.807  0.00  0.00    +0.176 C 
ATOM     13  C   UNL     1      -1.646   2.989  23.681  0.00  0.00    +0.159 C 
ATOM     14  C   UNL     1      -0.614   3.368  25.755  0.00  0.00    +0.167 C 
ENDROOT
BRANCH  11   3
ATOM      3  O   UNL     1      -3.905   3.690  24.244  0.00  0.00    -0.387 OA
ATOM     29  H   UNL     1      -3.709   4.630  24.092  0.00  0.00    +0.210 HD
ENDBRANCH  11   3
BRANCH  12   4
ATOM      4  O   UNL     1      -2.000   5.286  25.424  0.00  0.00    -0.387 OA
ATOM     30  H   UNL     1      -2.746   5.730  25.860  0.00  0.00    +0.210 HD
ENDBRANCH  12   4
BRANCH  13  15
ATOM     15  C   UNL     1      -1.796   1.779  22.778  0.00  0.00    +0.133 C 
BRANCH  15  17
ATOM      5  O   UNL     1      -0.609  -0.234  22.082  0.00  0.00    -0.338 OA
ATOM      8  N   UNL     1       0.670   1.261  23.150  0.00  0.00    -0.191 NA
ATOM     10  N   UNL     1       0.676  -0.788  22.134  0.00  0.00    -0.056 NA
ATOM     17  C   UNL     1      -0.524   0.973  22.701  0.00  0.00    +0.230 A 
ATOM     19  C   UNL     1       1.373   0.152  22.778  0.00  0.00    +0.202 A 
BRANCH  19  21
ATOM      1  F   UNL     1       6.798  -0.382  23.894  0.00  0.00    -0.205 F 
ATOM     21  C   UNL     1       2.772   0.015  23.066  0.00  0.00    +0.023 A 
ATOM     24  C   UNL     1       3.265  -1.188  23.572  0.00  0.00    +0.014 A 
ATOM     25  C   UNL     1       3.639   1.083  22.839  0.00  0.00    +0.014 A 
ATOM     26  C   UNL     1       4.624  -1.322  23.852  0.00  0.00    +0.039 A 
ATOM     27  C   UNL     1       4.999   0.949  23.118  0.00  0.00    +0.039 A 
ATOM     28  C   UNL     1       5.492  -0.253  23.625  0.00  0.00    +0.123 A 
ENDBRANCH  19  21
ENDBRANCH  15  17
ENDBRANCH  13  15
BRANCH  14  16
ATOM     16  C   UNL     1      -0.394   2.186  26.690  0.00  0.00    +0.140 C 
BRANCH  16   7
ATOM      6  O   UNL     1      -2.532   0.282  26.327  0.00  0.00    -0.253 OA
ATOM      7  N   UNL     1      -0.337   0.952  25.961  0.00  0.00    -0.297 N 
ATOM      9  N   UNL     1      -1.094  -1.041  25.074  0.00  0.00    -0.297 N 
ATOM     18  C   UNL     1      -1.423   0.081  25.832  0.00  0.00    +0.300 C 
ATOM     31  H   UNL     1       0.535   0.706  25.504  0.00  0.00    +0.150 HD
ATOM     32  H   UNL     1      -0.132  -1.153  24.771  0.00  0.00    +0.150 HD
BRANCH   9  20
ATOM     20  C   UNL     1      -2.037  -2.096  24.789  0.00  0.00    +0.068 C 
ATOM     22  C   UNL     1      -1.421  -3.112  23.834  0.00  0.00    +0.027 C 
ATOM     23  C   UNL     1      -3.330  -1.521  24.225  0.00  0.00    +0.027 C 
ENDBRANCH   9  20
ENDBRANCH  16   7
ENDBRANCH  14  16
TORSDOF 8
ENDMDL
