MODEL 1
REMARK VINA RESULT:       1.9      0.000      0.000
REMARK  Name = 11913177
REMARK  8 active torsions:
REMARK  status: ('A' for Active; 'I' for Inactive)
REMARK    1  A    between atoms: N_7  and  C_19
REMARK    2  A    between atoms: N_8  and  C_20
REMARK    3  A    between atoms: C_9  and  C_15
REMARK    4  A    between atoms: C_10  and  C_14
REMARK    5  A    between atoms: C_14  and  C_16
REMARK    6  A    between atoms: C_15  and  C_17
REMARK    7  A    between atoms: C_19  and  C_21
REMARK    8  A    between atoms: C_27  and  C_34
REMARK                            x       y       z     vdW  Elec       q    Type
REMARK                         _______ _______ _______ _____ _____    ______ ____
ROOT
ATOM      5  O   UNL     1      -0.211  -1.314  25.852  0.00  0.00    -0.252 OA
ATOM      6  N   UNL     1      -2.125  -1.394  24.560  0.00  0.00    -0.285 N 
ATOM      8  N   UNL     1      -0.020  -1.042  23.556  0.00  0.00    -0.269 N 
ATOM      9  C   UNL     1      -4.839  -0.393  24.485  0.00  0.00    +0.004 C 
ATOM     10  C   UNL     1      -3.899  -0.248  23.259  0.00  0.00    +0.010 C 
ATOM     11  C   UNL     1      -4.051  -0.505  25.803  0.00  0.00    +0.023 C 
ATOM     12  C   UNL     1      -2.851  -1.374  23.280  0.00  0.00    +0.113 C 
ATOM     13  C   UNL     1      -2.985  -1.598  25.726  0.00  0.00    +0.109 C 
ATOM     18  C   UNL     1      -0.732  -1.263  24.735  0.00  0.00    +0.306 C 
ATOM     38  H   UNL     1      -0.390  -1.418  22.690  0.00  0.00    +0.156 HD
ENDROOT
BRANCH   8  20
ATOM     20  C   UNL     1       1.190  -0.320  23.405  0.00  0.00    +0.035 A 
ATOM     23  C   UNL     1       2.412  -0.951  23.640  0.00  0.00    +0.035 A 
ATOM     24  C   UNL     1       1.160   1.020  23.021  0.00  0.00    +0.023 A 
ATOM     27  C   UNL     1       3.604  -0.242  23.491  0.00  0.00    +0.057 A 
ATOM     28  C   UNL     1       2.351   1.729  22.873  0.00  0.00    +0.002 A 
ATOM     32  C   UNL     1       3.573   1.100  23.107  0.00  0.00    +0.012 A 
BRANCH  27  34
ATOM      1  F   UNL     1       5.466  -0.599  24.949  0.00  0.00    -0.166 F 
ATOM      2  F   UNL     1       4.834  -2.278  23.733  0.00  0.00    -0.166 F 
ATOM      3  F   UNL     1       5.853  -0.594  22.810  0.00  0.00    -0.166 F 
ATOM     34  C   UNL     1       4.909  -0.914  23.743  0.00  0.00    +0.417 C 
ENDBRANCH  27  34
ENDBRANCH   8  20
BRANCH  10  14
ATOM     14  C   UNL     1      -3.213   1.119  23.156  0.00  0.00    +0.002 C 
ATOM     16  C   UNL     1      -2.417   1.236  21.873  0.00  0.00    +0.004 C 
ENDBRANCH  10  14
BRANCH   9  15
ATOM     15  C   UNL     1      -5.883   0.720  24.574  0.00  0.00    +0.099 C 
BRANCH  15  17
ATOM      4  O   UNL     1      -5.873   1.585  26.833  0.00  0.00    -0.276 OA
ATOM      7  N   UNL     1      -4.865   2.812  25.137  0.00  0.00    -0.311 N 
ATOM     17  C   UNL     1      -5.556   1.726  25.656  0.00  0.00    +0.214 C 
ATOM     37  H   UNL     1      -4.642   2.844  24.146  0.00  0.00    +0.149 HD
BRANCH   7  19
ATOM     19  C   UNL     1      -4.426   3.928  25.943  0.00  0.00    +0.140 C 
BRANCH  19  21
ATOM     21  C   UNL     1      -3.069   4.420  25.529  0.00  0.00    -0.023 A 
ATOM     22  C   UNL     1      -1.915   3.633  25.672  0.00  0.00    -0.013 A 
ATOM     25  C   UNL     1      -2.992   5.705  24.990  0.00  0.00    +0.006 A 
ATOM     26  C   UNL     1      -0.666   4.155  25.262  0.00  0.00    -0.018 A 
ATOM     29  C   UNL     1      -1.974   2.337  26.213  0.00  0.00    +0.009 A 
ATOM     30  C   UNL     1      -1.763   6.219  24.586  0.00  0.00    +0.001 A 
ATOM     31  C   UNL     1      -0.607   5.450  24.721  0.00  0.00    +0.008 A 
ATOM     33  C   UNL     1       0.489   3.367  25.404  0.00  0.00    +0.008 A 
ATOM     35  C   UNL     1      -0.817   1.569  26.347  0.00  0.00    +0.001 A 
ATOM     36  C   UNL     1       0.412   2.083  25.944  0.00  0.00    +0.001 A 
ENDBRANCH  19  21
ENDBRANCH   7  19
ENDBRANCH  15  17
ENDBRANCH   9  15
TORSDOF 7
ENDMDL
MODEL 2
REMARK VINA RESULT:       3.9      1.633      4.408
REMARK  Name = 11913177
REMARK  8 active torsions:
REMARK  status: ('A' for Active; 'I' for Inactive)
REMARK    1  A    between atoms: N_7  and  C_19
REMARK    2  A    between atoms: N_8  and  C_20
REMARK    3  A    between atoms: C_9  and  C_15
REMARK    4  A    between atoms: C_10  and  C_14
REMARK    5  A    between atoms: C_14  and  C_16
REMARK    6  A    between atoms: C_15  and  C_17
REMARK    7  A    between atoms: C_19  and  C_21
REMARK    8  A    between atoms: C_27  and  C_34
REMARK                            x       y       z     vdW  Elec       q    Type
REMARK                         _______ _______ _______ _____ _____    ______ ____
ROOT
ATOM      5  O   UNL     1      -0.667   0.488  21.903  0.00  0.00    -0.252 OA
ATOM      6  N   UNL     1      -1.115   2.483  22.981  0.00  0.00    -0.285 N 
ATOM      8  N   UNL     1       1.065   1.582  22.992  0.00  0.00    -0.269 N 
ATOM      9  C   UNL     1      -3.044   3.702  24.760  0.00  0.00    +0.004 C 
ATOM     10  C   UNL     1      -1.524   3.763  25.065  0.00  0.00    +0.010 C 
ATOM     11  C   UNL     1      -3.403   2.491  23.878  0.00  0.00    +0.023 C 
ATOM     12  C   UNL     1      -0.733   3.678  23.748  0.00  0.00    +0.113 C 
ATOM     13  C   UNL     1      -2.533   2.435  22.624  0.00  0.00    +0.109 C 
ATOM     18  C   UNL     1      -0.255   1.444  22.565  0.00  0.00    +0.306 C 
ATOM     38  H   UNL     1       1.431   2.515  23.137  0.00  0.00    +0.156 HD
ENDROOT
BRANCH   8  20
ATOM     20  C   UNL     1       1.991   0.545  23.271  0.00  0.00    +0.035 A 
ATOM     23  C   UNL     1       3.357   0.822  23.308  0.00  0.00    +0.035 A 
ATOM     24  C   UNL     1       1.535  -0.751  23.510  0.00  0.00    +0.023 A 
ATOM     27  C   UNL     1       4.269  -0.197  23.584  0.00  0.00    +0.057 A 
ATOM     28  C   UNL     1       2.446  -1.770  23.785  0.00  0.00    +0.002 A 
ATOM     32  C   UNL     1       3.813  -1.495  23.822  0.00  0.00    +0.012 A 
BRANCH  27  34
ATOM      1  F   UNL     1       6.385  -0.229  22.470  0.00  0.00    -0.166 F 
ATOM      2  F   UNL     1       6.016   1.416  23.834  0.00  0.00    -0.166 F 
ATOM      3  F   UNL     1       6.375  -0.582  24.615  0.00  0.00    -0.166 F 
ATOM     34  C   UNL     1       5.729   0.097  23.623  0.00  0.00    +0.417 C 
ENDBRANCH  27  34
ENDBRANCH   8  20
BRANCH  10  14
ATOM     14  C   UNL     1      -1.040   2.694  26.051  0.00  0.00    +0.002 C 
ATOM     16  C   UNL     1       0.464   2.747  26.221  0.00  0.00    +0.004 C 
ENDBRANCH  10  14
BRANCH   9  15
ATOM     15  C   UNL     1      -3.910   3.726  26.020  0.00  0.00    +0.099 C 
BRANCH  15  17
ATOM      4  O   UNL     1      -6.109   2.803  26.422  0.00  0.00    -0.276 OA
ATOM      7  N   UNL     1      -4.459   1.457  25.491  0.00  0.00    -0.311 N 
ATOM     17  C   UNL     1      -4.963   2.640  26.013  0.00  0.00    +0.214 C 
ATOM     37  H   UNL     1      -3.496   1.415  25.172  0.00  0.00    +0.149 HD
BRANCH   7  19
ATOM     19  C   UNL     1      -5.245   0.251  25.365  0.00  0.00    +0.140 C 
BRANCH  19  21
ATOM     21  C   UNL     1      -4.445  -0.884  24.795  0.00  0.00    -0.023 A 
ATOM     22  C   UNL     1      -3.105  -1.105  25.155  0.00  0.00    -0.013 A 
ATOM     25  C   UNL     1      -5.084  -1.724  23.882  0.00  0.00    +0.006 A 
ATOM     26  C   UNL     1      -2.405  -2.193  24.581  0.00  0.00    -0.018 A 
ATOM     29  C   UNL     1      -2.445  -0.270  26.071  0.00  0.00    +0.009 A 
ATOM     30  C   UNL     1      -4.397  -2.794  23.319  0.00  0.00    +0.001 A 
ATOM     31  C   UNL     1      -3.066  -3.028  23.665  0.00  0.00    +0.008 A 
ATOM     33  C   UNL     1      -1.066  -2.415  24.942  0.00  0.00    +0.008 A 
ATOM     35  C   UNL     1      -1.114  -0.506  26.417  0.00  0.00    +0.001 A 
ATOM     36  C   UNL     1      -0.426  -1.576  25.853  0.00  0.00    +0.001 A 
ENDBRANCH  19  21
ENDBRANCH   7  19
ENDBRANCH  15  17
ENDBRANCH   9  15
TORSDOF 7
ENDMDL
MODEL 3
REMARK VINA RESULT:       5.2      0.782      2.014
REMARK  Name = 11913177
REMARK  8 active torsions:
REMARK  status: ('A' for Active; 'I' for Inactive)
REMARK    1  A    between atoms: N_7  and  C_19
REMARK    2  A    between atoms: N_8  and  C_20
REMARK    3  A    between atoms: C_9  and  C_15
REMARK    4  A    between atoms: C_10  and  C_14
REMARK    5  A    between atoms: C_14  and  C_16
REMARK    6  A    between atoms: C_15  and  C_17
REMARK    7  A    between atoms: C_19  and  C_21
REMARK    8  A    between atoms: C_27  and  C_34
REMARK                            x       y       z     vdW  Elec       q    Type
REMARK                         _______ _______ _______ _____ _____    ______ ____
ROOT
ATOM      5  O   UNL     1      -0.181  -1.431  25.774  0.00  0.00    -0.252 OA
ATOM      6  N   UNL     1      -2.142  -1.293  24.559  0.00  0.00    -0.285 N 
ATOM      8  N   UNL     1      -0.059  -0.930  23.513  0.00  0.00    -0.269 N 
ATOM      9  C   UNL     1      -4.807  -0.173  24.695  0.00  0.00    +0.004 C 
ATOM     10  C   UNL     1      -3.904   0.057  23.454  0.00  0.00    +0.010 C 
ATOM     11  C   UNL     1      -3.978  -0.455  25.962  0.00  0.00    +0.023 C 
ATOM     12  C   UNL     1      -2.910  -1.109  23.318  0.00  0.00    +0.113 C 
ATOM     13  C   UNL     1      -2.969  -1.579  25.732  0.00  0.00    +0.109 C 
ATOM     18  C   UNL     1      -0.738  -1.242  24.690  0.00  0.00    +0.306 C 
ATOM     38  H   UNL     1      -0.477  -1.198  22.629  0.00  0.00    +0.156 HD
ENDROOT
BRANCH   8  20
ATOM     20  C   UNL     1       1.178  -0.250  23.388  0.00  0.00    +0.035 A 
ATOM     23  C   UNL     1       2.374  -0.933  23.610  0.00  0.00    +0.035 A 
ATOM     24  C   UNL     1       1.200   1.100  23.043  0.00  0.00    +0.023 A 
ATOM     27  C   UNL     1       3.592  -0.264  23.487  0.00  0.00    +0.057 A 
ATOM     28  C   UNL     1       2.417   1.769  22.920  0.00  0.00    +0.002 A 
ATOM     32  C   UNL     1       3.613   1.088  23.142  0.00  0.00    +0.012 A 
BRANCH  27  34
ATOM      1  F   UNL     1       5.841  -0.709  22.806  0.00  0.00    -0.166 F 
ATOM      2  F   UNL     1       5.438  -0.720  24.936  0.00  0.00    -0.166 F 
ATOM      3  F   UNL     1       4.718  -2.348  23.687  0.00  0.00    -0.166 F 
ATOM     34  C   UNL     1       4.871  -0.992  23.724  0.00  0.00    +0.417 C 
ENDBRANCH  27  34
ENDBRANCH   8  20
BRANCH  10  14
ATOM     14  C   UNL     1      -3.159   1.397  23.463  0.00  0.00    +0.002 C 
ATOM     16  C   UNL     1      -2.434   1.629  22.153  0.00  0.00    +0.004 C 
ENDBRANCH  10  14
BRANCH   9  15
ATOM     15  C   UNL     1      -5.793   0.969  24.939  0.00  0.00    +0.099 C 
BRANCH  15  17
ATOM      4  O   UNL     1      -5.148   3.210  24.296  0.00  0.00    -0.276 OA
ATOM      7  N   UNL     1      -4.398   2.342  26.317  0.00  0.00    -0.311 N 
ATOM     17  C   UNL     1      -5.095   2.300  25.118  0.00  0.00    +0.214 C 
ATOM     37  H   UNL     1      -4.413   1.540  26.940  0.00  0.00    +0.149 HD
BRANCH   7  19
ATOM     19  C   UNL     1      -3.637   3.492  26.748  0.00  0.00    +0.140 C 
BRANCH  19  21
ATOM     21  C   UNL     1      -2.206   3.419  26.297  0.00  0.00    -0.023 A 
ATOM     22  C   UNL     1      -1.675   4.315  25.355  0.00  0.00    -0.013 A 
ATOM     25  C   UNL     1      -1.410   2.416  26.852  0.00  0.00    +0.006 A 
ATOM     26  C   UNL     1      -0.318   4.193  24.972  0.00  0.00    -0.018 A 
ATOM     29  C   UNL     1      -2.461   5.331  24.785  0.00  0.00    +0.009 A 
ATOM     30  C   UNL     1      -0.076   2.295  26.476  0.00  0.00    +0.001 A 
ATOM     31  C   UNL     1       0.468   3.178  25.542  0.00  0.00    +0.008 A 
ATOM     33  C   UNL     1       0.214   5.090  24.031  0.00  0.00    +0.008 A 
ATOM     35  C   UNL     1      -1.916   6.213  23.852  0.00  0.00    +0.001 A 
ATOM     36  C   UNL     1      -0.581   6.093  23.475  0.00  0.00    +0.001 A 
ENDBRANCH  19  21
ENDBRANCH   7  19
ENDBRANCH  15  17
ENDBRANCH   9  15
TORSDOF 7
ENDMDL
