MODEL 1
REMARK VINA RESULT:       5.7      0.000      0.000
REMARK  Name = 11882023
REMARK  10 active torsions:
REMARK  status: ('A' for Active; 'I' for Inactive)
REMARK    1  A    between atoms: N_8  and  C_13
REMARK    2  A    between atoms: N_9  and  C_19
REMARK    3  A    between atoms: N_10  and  C_29
REMARK    4  A    between atoms: C_14  and  C_17
REMARK    5  A    between atoms: C_18  and  C_22
REMARK    6  A    between atoms: C_19  and  C_21
REMARK    7  A    between atoms: C_19  and  C_24
REMARK    8  A    between atoms: C_21  and  C_23
REMARK    9  A    between atoms: C_25  and  C_30
REMARK   10  A    between atoms: C_25  and  C_31
REMARK                            x       y       z     vdW  Elec       q    Type
REMARK                         _______ _______ _______ _____ _____    ______ ____
ROOT
ATOM      4  O   UNL     1      -4.262   0.349  26.776  0.00  0.00    -0.271 OA
ATOM      7  N   UNL     1      -3.207  -0.722  25.011  0.00  0.00    -0.285 N 
ATOM     13  C   UNL     1      -1.794  -1.906  23.505  0.00  0.00    +0.094 C 
ATOM     14  C   UNL     1      -2.245  -1.445  25.831  0.00  0.00    +0.164 C 
ATOM     15  C   UNL     1      -1.647  -2.503  24.907  0.00  0.00    +0.056 C 
ATOM     16  C   UNL     1      -3.078  -1.086  23.597  0.00  0.00    +0.131 C 
ATOM     18  C   UNL     1      -4.193   0.068  25.579  0.00  0.00    +0.240 C 
ENDROOT
BRANCH  13   8
ATOM      5  O   UNL     1       0.927  -2.312  24.302  0.00  0.00    -0.252 OA
ATOM      8  N   UNL     1      -0.661  -1.089  23.149  0.00  0.00    -0.295 N 
ATOM     10  N   UNL     1       1.529  -0.400  23.081  0.00  0.00    -0.267 N 
ATOM     20  C   UNL     1       0.644  -1.358  23.582  0.00  0.00    +0.304 C 
ATOM     41  H   UNL     1      -0.823  -0.246  22.608  0.00  0.00    +0.151 HD
ATOM     43  H   UNL     1       1.132   0.332  22.497  0.00  0.00    +0.156 HD
BRANCH  10  29
ATOM      1  F   UNL     1       2.929   1.973  22.659  0.00  0.00    -0.203 F 
ATOM      2  F   UNL     1       7.003  -0.088  23.896  0.00  0.00    -0.205 F 
ATOM     29  C   UNL     1       2.926  -0.318  23.287  0.00  0.00    +0.070 A 
ATOM     36  C   UNL     1       3.597   0.885  23.068  0.00  0.00    +0.147 A 
ATOM     37  C   UNL     1       3.632  -1.443  23.712  0.00  0.00    +0.029 A 
ATOM     38  C   UNL     1       4.975   0.962  23.273  0.00  0.00    +0.078 A 
ATOM     39  C   UNL     1       5.009  -1.366  23.918  0.00  0.00    +0.040 A 
ATOM     40  C   UNL     1       5.681  -0.163  23.698  0.00  0.00    +0.126 A 
ENDBRANCH  10  29
ENDBRANCH  13   8
BRANCH  14  17
ATOM      3  O   UNL     1      -0.317  -0.826  27.095  0.00  0.00    -0.274 OA
ATOM      9  N   UNL     1      -1.382   0.789  25.800  0.00  0.00    -0.302 N 
ATOM     17  C   UNL     1      -1.202  -0.484  26.315  0.00  0.00    +0.234 C 
ATOM     42  H   UNL     1      -2.137   0.955  25.142  0.00  0.00    +0.150 HD
BRANCH   9  19
ATOM     19  C   UNL     1      -0.524   1.905  26.130  0.00  0.00    +0.163 C 
BRANCH  19  24
ATOM      6  O   UNL     1       0.382   1.549  23.903  0.00  0.00    -0.274 OA
ATOM     12  N   UNL     1       0.569   3.636  24.845  0.00  0.00    -0.328 N 
ATOM     24  C   UNL     1       0.195   2.308  24.851  0.00  0.00    +0.231 C 
ATOM     45  H   UNL     1       0.385   4.259  25.625  0.00  0.00    +0.145 HD
ATOM     46  H   UNL     1       1.045   4.039  24.044  0.00  0.00    +0.145 HD
ENDBRANCH  19  24
BRANCH  19  21
ATOM     21  C   UNL     1      -1.308   3.091  26.702  0.00  0.00    +0.069 C 
BRANCH  21  23
ATOM     11  N   UNL     1      -4.327   4.486  25.138  0.00  0.00    -0.360 N 
ATOM     23  C   UNL     1      -2.455   3.516  25.831  0.00  0.00    -0.020 A 
ATOM     26  C   UNL     1      -2.673   3.144  24.475  0.00  0.00    +0.003 A 
ATOM     27  C   UNL     1      -3.489   4.341  26.210  0.00  0.00    +0.087 A 
ATOM     28  C   UNL     1      -3.854   3.765  24.064  0.00  0.00    +0.047 A 
ATOM     32  C   UNL     1      -1.977   2.335  23.555  0.00  0.00    +0.010 A 
ATOM     33  C   UNL     1      -4.376   3.619  22.774  0.00  0.00    +0.026 A 
ATOM     34  C   UNL     1      -2.487   2.179  22.262  0.00  0.00    +0.001 A 
ATOM     35  C   UNL     1      -3.668   2.811  21.879  0.00  0.00    +0.002 A 
ATOM     44  H   UNL     1      -5.171   5.043  25.133  0.00  0.00    +0.165 HD
ENDBRANCH  21  23
ENDBRANCH  19  21
ENDBRANCH   9  19
ENDBRANCH  14  17
BRANCH  18  22
ATOM     22  C   UNL     1      -5.223   0.602  24.667  0.00  0.00    +0.066 C 
ATOM     25  C   UNL     1      -6.201   1.451  25.027  0.00  0.00    -0.071 C 
ATOM     30  C   UNL     1      -6.295   1.921  26.456  0.00  0.00    +0.039 C 
ATOM     31  C   UNL     1      -7.267   2.017  24.128  0.00  0.00    +0.039 C 
ENDBRANCH  18  22
TORSDOF 8
ENDMDL
MODEL 2
REMARK VINA RESULT:       5.7      1.567      2.961
REMARK  Name = 11882023
REMARK  10 active torsions:
REMARK  status: ('A' for Active; 'I' for Inactive)
REMARK    1  A    between atoms: N_8  and  C_13
REMARK    2  A    between atoms: N_9  and  C_19
REMARK    3  A    between atoms: N_10  and  C_29
REMARK    4  A    between atoms: C_14  and  C_17
REMARK    5  A    between atoms: C_18  and  C_22
REMARK    6  A    between atoms: C_19  and  C_21
REMARK    7  A    between atoms: C_19  and  C_24
REMARK    8  A    between atoms: C_21  and  C_23
REMARK    9  A    between atoms: C_25  and  C_30
REMARK   10  A    between atoms: C_25  and  C_31
REMARK                            x       y       z     vdW  Elec       q    Type
REMARK                         _______ _______ _______ _____ _____    ______ ____
ROOT
ATOM      4  O   UNL     1      -5.749   0.679  25.116  0.00  0.00    -0.271 OA
ATOM      7  N   UNL     1      -3.960   0.985  23.674  0.00  0.00    -0.285 N 
ATOM     13  C   UNL     1      -2.049   0.853  22.261  0.00  0.00    +0.094 C 
ATOM     14  C   UNL     1      -3.747  -0.429  23.401  0.00  0.00    +0.164 C 
ATOM     15  C   UNL     1      -2.821  -0.467  22.188  0.00  0.00    +0.056 C 
ATOM     16  C   UNL     1      -3.051   1.820  22.883  0.00  0.00    +0.131 C 
ATOM     18  C   UNL     1      -5.010   1.419  24.466  0.00  0.00    +0.240 C 
ENDROOT
BRANCH  13   8
ATOM      5  O   UNL     1       0.564   0.133  21.334  0.00  0.00    -0.252 OA
ATOM      8  N   UNL     1      -0.854   0.731  23.059  0.00  0.00    -0.295 N 
ATOM     10  N   UNL     1       1.358   0.335  23.533  0.00  0.00    -0.267 N 
ATOM     20  C   UNL     1       0.390   0.373  22.526  0.00  0.00    +0.304 C 
ATOM     41  H   UNL     1      -0.930   0.852  24.064  0.00  0.00    +0.151 HD
ATOM     43  H   UNL     1       1.049   0.560  24.476  0.00  0.00    +0.156 HD
BRANCH  10  29
ATOM      1  F   UNL     1       3.221   2.230  22.692  0.00  0.00    -0.203 F 
ATOM      2  F   UNL     1       6.736  -0.915  23.049  0.00  0.00    -0.205 F 
ATOM     29  C   UNL     1       2.730   0.018  23.407  0.00  0.00    +0.070 A 
ATOM     36  C   UNL     1       3.638   0.990  22.984  0.00  0.00    +0.147 A 
ATOM     37  C   UNL     1       3.177  -1.268  23.708  0.00  0.00    +0.029 A 
ATOM     38  C   UNL     1       4.991   0.674  22.862  0.00  0.00    +0.078 A 
ATOM     39  C   UNL     1       4.529  -1.584  23.587  0.00  0.00    +0.040 A 
ATOM     40  C   UNL     1       5.437  -0.613  23.164  0.00  0.00    +0.126 A 
ENDBRANCH  10  29
ENDBRANCH  13   8
BRANCH  14  17
ATOM      3  O   UNL     1      -3.415  -2.193  24.973  0.00  0.00    -0.274 OA
ATOM      9  N   UNL     1      -2.192  -0.228  25.210  0.00  0.00    -0.302 N 
ATOM     17  C   UNL     1      -3.111  -1.064  24.599  0.00  0.00    +0.234 C 
ATOM     42  H   UNL     1      -2.001   0.682  24.801  0.00  0.00    +0.150 HD
BRANCH   9  19
ATOM     19  C   UNL     1      -1.456  -0.593  26.399  0.00  0.00    +0.163 C 
BRANCH  19  24
ATOM      6  O   UNL     1      -0.043  -1.731  24.783  0.00  0.00    -0.274 OA
ATOM     12  N   UNL     1       0.416  -1.991  27.019  0.00  0.00    -0.328 N 
ATOM     24  C   UNL     1      -0.315  -1.499  25.958  0.00  0.00    +0.231 C 
ATOM     45  H   UNL     1       0.195  -1.770  27.985  0.00  0.00    +0.145 HD
ATOM     46  H   UNL     1       1.215  -2.598  26.864  0.00  0.00    +0.145 HD
ENDBRANCH  19  24
BRANCH  19  21
ATOM     21  C   UNL     1      -0.912   0.630  27.146  0.00  0.00    +0.069 C 
BRANCH  21  23
ATOM     11  N   UNL     1       0.573   2.988  24.749  0.00  0.00    -0.360 N 
ATOM     23  C   UNL     1      -0.531   1.758  26.230  0.00  0.00    -0.020 A 
ATOM     26  C   UNL     1      -1.249   2.971  26.036  0.00  0.00    +0.003 A 
ATOM     27  C   UNL     1       0.584   1.798  25.425  0.00  0.00    +0.087 A 
ATOM     28  C   UNL     1      -0.535   3.725  25.102  0.00  0.00    +0.047 A 
ATOM     32  C   UNL     1      -2.441   3.502  26.566  0.00  0.00    +0.010 A 
ATOM     33  C   UNL     1      -0.955   4.988  24.670  0.00  0.00    +0.026 A 
ATOM     34  C   UNL     1      -2.873   4.764  26.144  0.00  0.00    +0.001 A 
ATOM     35  C   UNL     1      -2.141   5.494  25.210  0.00  0.00    +0.002 A 
ATOM     44  H   UNL     1       1.276   3.283  24.084  0.00  0.00    +0.165 HD
ENDBRANCH  21  23
ENDBRANCH  19  21
ENDBRANCH   9  19
ENDBRANCH  14  17
BRANCH  18  22
ATOM     22  C   UNL     1      -5.240   2.877  24.524  0.00  0.00    +0.066 C 
ATOM     25  C   UNL     1      -5.834   3.520  25.543  0.00  0.00    -0.071 C 
ATOM     30  C   UNL     1      -6.319   2.740  26.739  0.00  0.00    +0.039 C 
ATOM     31  C   UNL     1      -6.086   5.000  25.638  0.00  0.00    +0.039 C 
ENDBRANCH  18  22
TORSDOF 8
ENDMDL
MODEL 3
REMARK VINA RESULT:       5.8      2.638      5.926
REMARK  Name = 11882023
REMARK  10 active torsions:
REMARK  status: ('A' for Active; 'I' for Inactive)
REMARK    1  A    between atoms: N_8  and  C_13
REMARK    2  A    between atoms: N_9  and  C_19
REMARK    3  A    between atoms: N_10  and  C_29
REMARK    4  A    between atoms: C_14  and  C_17
REMARK    5  A    between atoms: C_18  and  C_22
REMARK    6  A    between atoms: C_19  and  C_21
REMARK    7  A    between atoms: C_19  and  C_24
REMARK    8  A    between atoms: C_21  and  C_23
REMARK    9  A    between atoms: C_25  and  C_30
REMARK   10  A    between atoms: C_25  and  C_31
REMARK                            x       y       z     vdW  Elec       q    Type
REMARK                         _______ _______ _______ _____ _____    ______ ____
ROOT
ATOM      4  O   UNL     1      -4.332  -0.434  23.816  0.00  0.00    -0.271 OA
ATOM      7  N   UNL     1      -3.550   1.709  24.226  0.00  0.00    -0.285 N 
ATOM     13  C   UNL     1      -2.459   3.823  24.301  0.00  0.00    +0.094 C 
ATOM     14  C   UNL     1      -2.836   1.849  22.964  0.00  0.00    +0.164 C 
ATOM     15  C   UNL     1      -2.514   3.337  22.851  0.00  0.00    +0.056 C 
ATOM     16  C   UNL     1      -3.482   2.944  25.013  0.00  0.00    +0.131 C 
ATOM     18  C   UNL     1      -4.307   0.584  24.508  0.00  0.00    +0.240 C 
ENDROOT
BRANCH  13   8
ATOM      5  O   UNL     1      -1.822   2.992  26.966  0.00  0.00    -0.252 OA
ATOM      8  N   UNL     1      -1.140   3.677  24.866  0.00  0.00    -0.295 N 
ATOM     10  N   UNL     1       0.457   3.215  26.450  0.00  0.00    -0.267 N 
ATOM     20  C   UNL     1      -0.914   3.263  26.184  0.00  0.00    +0.304 C 
ATOM     41  H   UNL     1      -0.340   3.944  24.301  0.00  0.00    +0.151 HD
ATOM     43  H   UNL     1       1.081   3.474  25.689  0.00  0.00    +0.156 HD
BRANCH  10  29
ATOM      1  F   UNL     1       2.860   4.382  27.245  0.00  0.00    -0.203 F 
ATOM      2  F   UNL     1       2.945   1.769  31.187  0.00  0.00    -0.205 F 
ATOM     29  C   UNL     1       1.095   2.847  27.657  0.00  0.00    +0.070 A 
ATOM     36  C   UNL     1       2.297   3.451  28.027  0.00  0.00    +0.147 A 
ATOM     37  C   UNL     1       0.519   1.879  28.479  0.00  0.00    +0.029 A 
ATOM     38  C   UNL     1       2.922   3.085  29.220  0.00  0.00    +0.078 A 
ATOM     39  C   UNL     1       1.143   1.514  29.671  0.00  0.00    +0.040 A 
ATOM     40  C   UNL     1       2.345   2.118  30.042  0.00  0.00    +0.126 A 
ENDBRANCH  10  29
ENDBRANCH  13   8
BRANCH  14  17
ATOM      3  O   UNL     1      -0.925   0.782  22.013  0.00  0.00    -0.274 OA
ATOM      9  N   UNL     1      -1.321   0.558  24.295  0.00  0.00    -0.302 N 
ATOM     17  C   UNL     1      -1.590   1.018  23.018  0.00  0.00    +0.234 C 
ATOM     42  H   UNL     1      -1.929   0.834  25.060  0.00  0.00    +0.150 HD
BRANCH   9  19
ATOM     19  C   UNL     1      -0.189  -0.284  24.612  0.00  0.00    +0.163 C 
BRANCH  19  24
ATOM      6  O   UNL     1      -1.915  -1.885  25.214  0.00  0.00    -0.274 OA
ATOM     12  N   UNL     1       0.241  -2.282  25.902  0.00  0.00    -0.328 N 
ATOM     24  C   UNL     1      -0.737  -1.540  25.272  0.00  0.00    +0.231 C 
ATOM     45  H   UNL     1       1.215  -1.998  25.921  0.00  0.00    +0.145 HD
ATOM     46  H   UNL     1       0.012  -3.152  26.371  0.00  0.00    +0.145 HD
ENDBRANCH  19  24
BRANCH  19  21
ATOM     21  C   UNL     1       0.632  -0.646  23.368  0.00  0.00    +0.069 C 
BRANCH  21  23
ATOM     11  N   UNL     1       3.343   1.800  22.943  0.00  0.00    -0.360 N 
ATOM     23  C   UNL     1       1.912   0.133  23.259  0.00  0.00    -0.020 A 
ATOM     26  C   UNL     1       3.228  -0.366  23.466  0.00  0.00    +0.003 A 
ATOM     27  C   UNL     1       2.016   1.467  22.939  0.00  0.00    +0.087 A 
ATOM     28  C   UNL     1       4.108   0.699  23.261  0.00  0.00    +0.047 A 
ATOM     32  C   UNL     1       3.757  -1.626  23.809  0.00  0.00    +0.010 A 
ATOM     33  C   UNL     1       5.495   0.568  23.383  0.00  0.00    +0.026 A 
ATOM     34  C   UNL     1       5.143  -1.772  23.933  0.00  0.00    +0.001 A 
ATOM     35  C   UNL     1       5.997  -0.692  23.723  0.00  0.00    +0.002 A 
ATOM     44  H   UNL     1       3.711   2.720  22.743  0.00  0.00    +0.165 HD
ENDBRANCH  21  23
ENDBRANCH  19  21
ENDBRANCH   9  19
ENDBRANCH  14  17
BRANCH  18  22
ATOM     22  C   UNL     1      -5.134   0.629  25.730  0.00  0.00    +0.066 C 
ATOM     25  C   UNL     1      -6.185   1.447  25.916  0.00  0.00    -0.071 C 
ATOM     30  C   UNL     1      -6.585   2.408  24.825  0.00  0.00    +0.039 C 
ATOM     31  C   UNL     1      -7.050   1.522  27.143  0.00  0.00    +0.039 C 
ENDBRANCH  18  22
TORSDOF 8
ENDMDL
MODEL 4
REMARK VINA RESULT:       6.6      1.264      1.385
REMARK  Name = 11882023
REMARK  10 active torsions:
REMARK  status: ('A' for Active; 'I' for Inactive)
REMARK    1  A    between atoms: N_8  and  C_13
REMARK    2  A    between atoms: N_9  and  C_19
REMARK    3  A    between atoms: N_10  and  C_29
REMARK    4  A    between atoms: C_14  and  C_17
REMARK    5  A    between atoms: C_18  and  C_22
REMARK    6  A    between atoms: C_19  and  C_21
REMARK    7  A    between atoms: C_19  and  C_24
REMARK    8  A    between atoms: C_21  and  C_23
REMARK    9  A    between atoms: C_25  and  C_30
REMARK   10  A    between atoms: C_25  and  C_31
REMARK                            x       y       z     vdW  Elec       q    Type
REMARK                         _______ _______ _______ _____ _____    ______ ____
ROOT
ATOM      4  O   UNL     1      -4.134   1.580  26.469  0.00  0.00    -0.271 OA
ATOM      7  N   UNL     1      -3.098  -0.167  25.354  0.00  0.00    -0.285 N 
ATOM     13  C   UNL     1      -1.685  -1.879  24.493  0.00  0.00    +0.094 C 
ATOM     14  C   UNL     1      -2.055  -0.379  26.348  0.00  0.00    +0.164 C 
ATOM     15  C   UNL     1      -1.436  -1.730  25.995  0.00  0.00    +0.056 C 
ATOM     16  C   UNL     1      -3.012  -1.158  24.276  0.00  0.00    +0.131 C 
ATOM     18  C   UNL     1      -4.104   0.765  25.547  0.00  0.00    +0.240 C 
ENDROOT
BRANCH  13   8
ATOM      5  O   UNL     1       1.094  -1.795  25.177  0.00  0.00    -0.252 OA
ATOM      8  N   UNL     1      -0.623  -1.295  23.713  0.00  0.00    -0.295 N 
ATOM     10  N   UNL     1       1.515  -0.661  23.166  0.00  0.00    -0.267 N 
ATOM     20  C   UNL     1       0.716  -1.296  24.120  0.00  0.00    +0.304 C 
ATOM     41  H   UNL     1      -0.864  -0.806  22.856  0.00  0.00    +0.151 HD
ATOM     43  H   UNL     1       1.044  -0.297  22.341  0.00  0.00    +0.156 HD
BRANCH  10  29
ATOM      1  F   UNL     1       2.640   1.831  22.621  0.00  0.00    -0.203 F 
ATOM      2  F   UNL     1       6.999   0.132  23.319  0.00  0.00    -0.205 F 
ATOM     29  C   UNL     1       2.914  -0.456  23.203  0.00  0.00    +0.070 A 
ATOM     36  C   UNL     1       3.446   0.805  22.926  0.00  0.00    +0.147 A 
ATOM     37  C   UNL     1       3.763  -1.516  23.519  0.00  0.00    +0.029 A 
ATOM     38  C   UNL     1       4.826   1.002  22.965  0.00  0.00    +0.078 A 
ATOM     39  C   UNL     1       5.142  -1.319  23.558  0.00  0.00    +0.040 A 
ATOM     40  C   UNL     1       5.674  -0.059  23.280  0.00  0.00    +0.126 A 
ENDBRANCH  10  29
ENDBRANCH  13   8
BRANCH  14  17
ATOM      3  O   UNL     1      -0.129   0.694  25.435  0.00  0.00    -0.274 OA
ATOM      9  N   UNL     1      -1.291   1.741  27.158  0.00  0.00    -0.302 N 
ATOM     17  C   UNL     1      -1.053   0.730  26.243  0.00  0.00    +0.234 C 
ATOM     42  H   UNL     1      -2.102   1.677  27.767  0.00  0.00    +0.150 HD
BRANCH   9  19
ATOM     19  C   UNL     1      -0.455   2.914  27.278  0.00  0.00    +0.163 C 
BRANCH  19  24
ATOM      6  O   UNL     1       1.926   2.437  27.219  0.00  0.00    -0.274 OA
ATOM     12  N   UNL     1       0.790   2.115  29.189  0.00  0.00    -0.328 N 
ATOM     24  C   UNL     1       0.876   2.456  27.855  0.00  0.00    +0.231 C 
ATOM     45  H   UNL     1      -0.080   2.160  29.710  0.00  0.00    +0.145 HD
ATOM     46  H   UNL     1       1.610   1.806  29.701  0.00  0.00    +0.145 HD
ENDBRANCH  19  24
BRANCH  19  21
ATOM     21  C   UNL     1      -0.244   3.616  25.932  0.00  0.00    +0.069 C 
BRANCH  21  23
ATOM     11  N   UNL     1      -3.481   4.810  24.663  0.00  0.00    -0.360 N 
ATOM     23  C   UNL     1      -1.528   3.906  25.209  0.00  0.00    -0.020 A 
ATOM     26  C   UNL     1      -2.007   3.257  24.037  0.00  0.00    +0.003 A 
ATOM     27  C   UNL     1      -2.456   4.856  25.570  0.00  0.00    +0.087 A 
ATOM     28  C   UNL     1      -3.233   3.842  23.715  0.00  0.00    +0.047 A 
ATOM     32  C   UNL     1      -1.512   2.224  23.216  0.00  0.00    +0.010 A 
ATOM     33  C   UNL     1      -3.993   3.446  22.609  0.00  0.00    +0.026 A 
ATOM     34  C   UNL     1      -2.262   1.817  22.107  0.00  0.00    +0.001 A 
ATOM     35  C   UNL     1      -3.482   2.419  21.809  0.00  0.00    +0.002 A 
ATOM     44  H   UNL     1      -4.300   5.402  24.684  0.00  0.00    +0.165 HD
ENDBRANCH  21  23
ENDBRANCH  19  21
ENDBRANCH   9  19
ENDBRANCH  14  17
BRANCH  18  22
ATOM     22  C   UNL     1      -5.207   0.765  24.566  0.00  0.00    +0.066 C 
ATOM     25  C   UNL     1      -6.276   1.579  24.613  0.00  0.00    -0.071 C 
ATOM     30  C   UNL     1      -6.403   2.582  25.732  0.00  0.00    +0.039 C 
ATOM     31  C   UNL     1      -7.418   1.609  23.635  0.00  0.00    +0.039 C 
ENDBRANCH  18  22
TORSDOF 8
ENDMDL
MODEL 5
REMARK VINA RESULT:       6.7      2.943      5.566
REMARK  Name = 11882023
REMARK  10 active torsions:
REMARK  status: ('A' for Active; 'I' for Inactive)
REMARK    1  A    between atoms: N_8  and  C_13
REMARK    2  A    between atoms: N_9  and  C_19
REMARK    3  A    between atoms: N_10  and  C_29
REMARK    4  A    between atoms: C_14  and  C_17
REMARK    5  A    between atoms: C_18  and  C_22
REMARK    6  A    between atoms: C_19  and  C_21
REMARK    7  A    between atoms: C_19  and  C_24
REMARK    8  A    between atoms: C_21  and  C_23
REMARK    9  A    between atoms: C_25  and  C_30
REMARK   10  A    between atoms: C_25  and  C_31
REMARK                            x       y       z     vdW  Elec       q    Type
REMARK                         _______ _______ _______ _____ _____    ______ ____
ROOT
ATOM      4  O   UNL     1      -3.089   0.230  23.238  0.00  0.00    -0.271 OA
ATOM      7  N   UNL     1      -2.334   2.293  23.977  0.00  0.00    -0.285 N 
ATOM     13  C   UNL     1      -1.194   4.323  24.473  0.00  0.00    +0.094 C 
ATOM     14  C   UNL     1      -1.303   2.446  22.960  0.00  0.00    +0.164 C 
ATOM     15  C   UNL     1      -0.885   3.913  23.032  0.00  0.00    +0.056 C 
ATOM     16  C   UNL     1      -2.414   3.480  24.832  0.00  0.00    +0.131 C 
ATOM     18  C   UNL     1      -3.196   1.209  23.976  0.00  0.00    +0.240 C 
ENDROOT
BRANCH  13   8
ATOM      5  O   UNL     1      -1.324   3.182  27.097  0.00  0.00    -0.252 OA
ATOM      8  N   UNL     1      -0.084   4.061  25.355  0.00  0.00    -0.295 N 
ATOM     10  N   UNL     1       1.011   3.363  27.249  0.00  0.00    -0.267 N 
ATOM     20  C   UNL     1      -0.233   3.498  26.628  0.00  0.00    +0.304 C 
ATOM     41  H   UNL     1       0.844   4.353  25.065  0.00  0.00    +0.151 HD
ATOM     43  H   UNL     1       1.823   3.677  26.723  0.00  0.00    +0.156 HD
BRANCH  10  29
ATOM      1  F   UNL     1       3.534   2.380  27.911  0.00  0.00    -0.203 F 
ATOM      2  F   UNL     1       2.088   1.322  32.289  0.00  0.00    -0.205 F 
ATOM     29  C   UNL     1       1.289   2.840  28.534  0.00  0.00    +0.070 A 
ATOM     36  C   UNL     1       2.563   2.357  28.834  0.00  0.00    +0.147 A 
ATOM     37  C   UNL     1       0.286   2.811  29.503  0.00  0.00    +0.029 A 
ATOM     38  C   UNL     1       2.832   1.843  30.103  0.00  0.00    +0.078 A 
ATOM     39  C   UNL     1       0.555   2.298  30.770  0.00  0.00    +0.040 A 
ATOM     40  C   UNL     1       1.829   1.813  31.071  0.00  0.00    +0.126 A 
ENDBRANCH  10  29
ENDBRANCH  13   8
BRANCH  14  17
ATOM      3  O   UNL     1       0.730   1.860  24.064  0.00  0.00    -0.274 OA
ATOM      9  N   UNL     1      -0.237   0.332  22.599  0.00  0.00    -0.302 N 
ATOM     17  C   UNL     1      -0.161   1.532  23.286  0.00  0.00    +0.234 C 
ATOM     42  H   UNL     1      -1.034   0.157  21.994  0.00  0.00    +0.150 HD
BRANCH   9  19
ATOM     19  C   UNL     1       0.754  -0.713  22.719  0.00  0.00    +0.163 C 
BRANCH  19  24
ATOM      6  O   UNL     1       2.315  -0.133  20.950  0.00  0.00    -0.274 OA
ATOM     12  N   UNL     1       2.890   0.345  23.122  0.00  0.00    -0.328 N 
ATOM     24  C   UNL     1       2.054  -0.164  22.150  0.00  0.00    +0.231 C 
ATOM     45  H   UNL     1       2.650   0.336  24.108  0.00  0.00    +0.145 HD
ATOM     46  H   UNL     1       3.785   0.756  22.876  0.00  0.00    +0.145 HD
ENDBRANCH  19  24
BRANCH  19  21
ATOM     21  C   UNL     1       0.952  -1.162  24.172  0.00  0.00    +0.069 C 
BRANCH  21  23
ATOM     11  N   UNL     1      -1.854  -0.769  26.513  0.00  0.00    -0.360 N 
ATOM     23  C   UNL     1      -0.326  -1.192  24.959  0.00  0.00    -0.020 A 
ATOM     26  C   UNL     1      -1.482  -1.970  24.670  0.00  0.00    +0.003 A 
ATOM     27  C   UNL     1      -0.586  -0.464  26.098  0.00  0.00    +0.087 A 
ATOM     28  C   UNL     1      -2.426  -1.686  25.659  0.00  0.00    +0.047 A 
ATOM     32  C   UNL     1      -1.817  -2.892  23.658  0.00  0.00    +0.010 A 
ATOM     33  C   UNL     1      -3.693  -2.279  25.688  0.00  0.00    +0.026 A 
ATOM     34  C   UNL     1      -3.081  -3.493  23.674  0.00  0.00    +0.001 A 
ATOM     35  C   UNL     1      -4.003  -3.190  24.674  0.00  0.00    +0.002 A 
ATOM     44  H   UNL     1      -2.308  -0.376  27.326  0.00  0.00    +0.165 HD
ENDBRANCH  21  23
ENDBRANCH  19  21
ENDBRANCH   9  19
ENDBRANCH  14  17
BRANCH  18  22
ATOM     22  C   UNL     1      -4.316   1.250  24.938  0.00  0.00    +0.066 C 
ATOM     25  C   UNL     1      -5.215   2.245  25.026  0.00  0.00    -0.071 C 
ATOM     30  C   UNL     1      -5.113   3.429  24.098  0.00  0.00    +0.039 C 
ATOM     31  C   UNL     1      -6.367   2.323  25.990  0.00  0.00    +0.039 C 
ENDBRANCH  18  22
TORSDOF 8
ENDMDL
MODEL 6
REMARK VINA RESULT:       7.9      2.675      6.548
REMARK  Name = 11882023
REMARK  10 active torsions:
REMARK  status: ('A' for Active; 'I' for Inactive)
REMARK    1  A    between atoms: N_8  and  C_13
REMARK    2  A    between atoms: N_9  and  C_19
REMARK    3  A    between atoms: N_10  and  C_29
REMARK    4  A    between atoms: C_14  and  C_17
REMARK    5  A    between atoms: C_18  and  C_22
REMARK    6  A    between atoms: C_19  and  C_21
REMARK    7  A    between atoms: C_19  and  C_24
REMARK    8  A    between atoms: C_21  and  C_23
REMARK    9  A    between atoms: C_25  and  C_30
REMARK   10  A    between atoms: C_25  and  C_31
REMARK                            x       y       z     vdW  Elec       q    Type
REMARK                         _______ _______ _______ _____ _____    ______ ____
ROOT
ATOM      4  O   UNL     1      -2.215   5.520  24.147  0.00  0.00    -0.271 OA
ATOM      7  N   UNL     1      -1.562   3.993  25.764  0.00  0.00    -0.285 N 
ATOM     13  C   UNL     1      -0.523   2.367  27.159  0.00  0.00    +0.094 C 
ATOM     14  C   UNL     1      -0.170   3.917  25.342  0.00  0.00    +0.164 C 
ATOM     15  C   UNL     1       0.558   3.219  26.489  0.00  0.00    +0.056 C 
ATOM     16  C   UNL     1      -1.796   3.186  26.965  0.00  0.00    +0.131 C 
ATOM     18  C   UNL     1      -2.455   4.860  25.159  0.00  0.00    +0.240 C 
ENDROOT
BRANCH  13   8
ATOM      5  O   UNL     1      -2.852   1.224  25.946  0.00  0.00    -0.252 OA
ATOM      8  N   UNL     1      -0.628   1.062  26.556  0.00  0.00    -0.295 N 
ATOM     10  N   UNL     1      -1.611  -0.713  25.480  0.00  0.00    -0.267 N 
ATOM     20  C   UNL     1      -1.809   0.576  25.982  0.00  0.00    +0.304 C 
ATOM     41  H   UNL     1       0.174   0.442  26.603  0.00  0.00    +0.151 HD
ATOM     43  H   UNL     1      -0.682  -1.111  25.591  0.00  0.00    +0.156 HD
BRANCH  10  29
ATOM      1  F   UNL     1      -1.117  -3.424  25.059  0.00  0.00    -0.203 F 
ATOM      2  F   UNL     1      -5.306  -3.963  22.928  0.00  0.00    -0.205 F 
ATOM     29  C   UNL     1      -2.551  -1.544  24.827  0.00  0.00    +0.070 A 
ATOM     36  C   UNL     1      -2.274  -2.898  24.634  0.00  0.00    +0.147 A 
ATOM     37  C   UNL     1      -3.758  -1.008  24.380  0.00  0.00    +0.029 A 
ATOM     38  C   UNL     1      -3.205  -3.714  23.991  0.00  0.00    +0.078 A 
ATOM     39  C   UNL     1      -4.689  -1.825  23.738  0.00  0.00    +0.040 A 
ATOM     40  C   UNL     1      -4.412  -3.178  23.543  0.00  0.00    +0.126 A 
ENDBRANCH  10  29
ENDBRANCH  13   8
BRANCH  14  17
ATOM      3  O   UNL     1       0.712   3.395  23.186  0.00  0.00    -0.274 OA
ATOM      9  N   UNL     1      -1.022   2.097  24.039  0.00  0.00    -0.302 N 
ATOM     17  C   UNL     1      -0.091   3.121  24.075  0.00  0.00    +0.234 C 
ATOM     42  H   UNL     1      -1.625   1.947  24.843  0.00  0.00    +0.150 HD
BRANCH   9  19
ATOM     19  C   UNL     1      -1.167   1.198  22.916  0.00  0.00    +0.163 C 
BRANCH  19  24
ATOM      6  O   UNL     1      -3.057   2.622  22.362  0.00  0.00    -0.274 OA
ATOM     12  N   UNL     1      -2.113   1.353  20.697  0.00  0.00    -0.328 N 
ATOM     24  C   UNL     1      -2.223   1.797  21.998  0.00  0.00    +0.231 C 
ATOM     45  H   UNL     1      -1.402   0.689  20.404  0.00  0.00    +0.145 HD
ATOM     46  H   UNL     1      -2.747   1.685  19.978  0.00  0.00    +0.145 HD
ENDBRANCH  19  24
BRANCH  19  21
ATOM     21  C   UNL     1       0.150   0.996  22.159  0.00  0.00    +0.069 C 
BRANCH  21  23
ATOM     11  N   UNL     1       1.847  -1.705  23.986  0.00  0.00    -0.360 N 
ATOM     23  C   UNL     1       1.083   0.038  22.843  0.00  0.00    -0.020 A 
ATOM     26  C   UNL     1       2.498   0.150  22.931  0.00  0.00    +0.003 A 
ATOM     27  C   UNL     1       0.712  -1.113  23.501  0.00  0.00    +0.087 A 
ATOM     28  C   UNL     1       2.954  -0.956  23.653  0.00  0.00    +0.047 A 
ATOM     32  C   UNL     1       3.440   1.089  22.465  0.00  0.00    +0.010 A 
ATOM     33  C   UNL     1       4.307  -1.171  23.932  0.00  0.00    +0.026 A 
ATOM     34  C   UNL     1       4.797   0.886  22.737  0.00  0.00    +0.001 A 
ATOM     35  C   UNL     1       5.223  -0.227  23.459  0.00  0.00    +0.002 A 
ATOM     44  H   UNL     1       1.871  -2.569  24.510  0.00  0.00    +0.165 HD
ENDBRANCH  21  23
ENDBRANCH  19  21
ENDBRANCH   9  19
ENDBRANCH  14  17
BRANCH  18  22
ATOM     22  C   UNL     1      -3.786   4.989  25.787  0.00  0.00    +0.066 C 
ATOM     25  C   UNL     1      -4.849   4.222  25.494  0.00  0.00    -0.071 C 
ATOM     30  C   UNL     1      -4.726   3.137  24.454  0.00  0.00    +0.039 C 
ATOM     31  C   UNL     1      -6.218   4.322  26.111  0.00  0.00    +0.039 C 
ENDBRANCH  18  22
TORSDOF 8
ENDMDL
MODEL 7
REMARK VINA RESULT:       8.2      2.125      4.768
REMARK  Name = 11882023
REMARK  10 active torsions:
REMARK  status: ('A' for Active; 'I' for Inactive)
REMARK    1  A    between atoms: N_8  and  C_13
REMARK    2  A    between atoms: N_9  and  C_19
REMARK    3  A    between atoms: N_10  and  C_29
REMARK    4  A    between atoms: C_14  and  C_17
REMARK    5  A    between atoms: C_18  and  C_22
REMARK    6  A    between atoms: C_19  and  C_21
REMARK    7  A    between atoms: C_19  and  C_24
REMARK    8  A    between atoms: C_21  and  C_23
REMARK    9  A    between atoms: C_25  and  C_30
REMARK   10  A    between atoms: C_25  and  C_31
REMARK                            x       y       z     vdW  Elec       q    Type
REMARK                         _______ _______ _______ _____ _____    ______ ____
ROOT
ATOM      4  O   UNL     1      -6.297   4.471  25.396  0.00  0.00    -0.271 OA
ATOM      7  N   UNL     1      -4.078   4.083  25.940  0.00  0.00    -0.285 N 
ATOM     13  C   UNL     1      -1.709   3.922  26.118  0.00  0.00    +0.094 C 
ATOM     14  C   UNL     1      -3.528   5.094  25.047  0.00  0.00    +0.164 C 
ATOM     15  C   UNL     1      -2.076   5.267  25.486  0.00  0.00    +0.056 C 
ATOM     16  C   UNL     1      -3.022   3.446  26.733  0.00  0.00    +0.131 C 
ATOM     18  C   UNL     1      -5.444   3.913  26.087  0.00  0.00    +0.240 C 
ENDROOT
BRANCH  13   8
ATOM      5  O   UNL     1       0.933   2.824  26.006  0.00  0.00    -0.252 OA
ATOM      8  N   UNL     1      -1.205   2.990  25.141  0.00  0.00    -0.295 N 
ATOM     10  N   UNL     1       0.309   1.617  24.092  0.00  0.00    -0.267 N 
ATOM     20  C   UNL     1       0.107   2.499  25.157  0.00  0.00    +0.304 C 
ATOM     41  H   UNL     1      -1.808   2.723  24.370  0.00  0.00    +0.151 HD
ATOM     43  H   UNL     1      -0.483   1.456  23.474  0.00  0.00    +0.156 HD
BRANCH  10  29
ATOM      1  F   UNL     1       0.437  -1.164  24.233  0.00  0.00    -0.203 F 
ATOM      2  F   UNL     1       4.939  -1.134  22.781  0.00  0.00    -0.205 F 
ATOM     29  C   UNL     1       1.489   0.913  23.760  0.00  0.00    +0.070 A 
ATOM     36  C   UNL     1       1.520  -0.480  23.840  0.00  0.00    +0.147 A 
ATOM     37  C   UNL     1       2.623   1.613  23.349  0.00  0.00    +0.029 A 
ATOM     38  C   UNL     1       2.686  -1.171  23.510  0.00  0.00    +0.078 A 
ATOM     39  C   UNL     1       3.788   0.923  23.019  0.00  0.00    +0.040 A 
ATOM     40  C   UNL     1       3.820  -0.470  23.100  0.00  0.00    +0.126 A 
ENDBRANCH  10  29
ENDBRANCH  13   8
BRANCH  14  17
ATOM      3  O   UNL     1      -3.754   5.363  22.687  0.00  0.00    -0.274 OA
ATOM      9  N   UNL     1      -3.564   3.215  23.563  0.00  0.00    -0.302 N 
ATOM     17  C   UNL     1      -3.622   4.596  23.637  0.00  0.00    +0.234 C 
ATOM     42  H   UNL     1      -3.430   2.678  24.415  0.00  0.00    +0.150 HD
BRANCH   9  19
ATOM     19  C   UNL     1      -3.656   2.485  22.319  0.00  0.00    +0.163 C 
BRANCH  19  24
ATOM      6  O   UNL     1      -1.281   2.989  22.224  0.00  0.00    -0.274 OA
ATOM     12  N   UNL     1      -2.170   1.585  20.638  0.00  0.00    -0.328 N 
ATOM     24  C   UNL     1      -2.251   2.412  21.739  0.00  0.00    +0.231 C 
ATOM     45  H   UNL     1      -2.976   1.094  20.263  0.00  0.00    +0.145 HD
ATOM     46  H   UNL     1      -1.286   1.436  20.162  0.00  0.00    +0.145 HD
ENDBRANCH  19  24
BRANCH  19  21
ATOM     21  C   UNL     1      -4.230   1.077  22.513  0.00  0.00    +0.069 C 
BRANCH  21  23
ATOM     11  N   UNL     1      -2.639  -0.014  25.642  0.00  0.00    -0.360 N 
ATOM     23  C   UNL     1      -3.664   0.369  23.711  0.00  0.00    -0.020 A 
ATOM     26  C   UNL     1      -3.724  -1.028  23.977  0.00  0.00    +0.003 A 
ATOM     27  C   UNL     1      -2.992   0.965  24.753  0.00  0.00    +0.087 A 
ATOM     28  C   UNL     1      -3.074  -1.242  25.194  0.00  0.00    +0.047 A 
ATOM     32  C   UNL     1      -4.270  -2.134  23.296  0.00  0.00    +0.010 A 
ATOM     33  C   UNL     1      -2.942  -2.511  25.767  0.00  0.00    +0.026 A 
ATOM     34  C   UNL     1      -4.146  -3.410  23.858  0.00  0.00    +0.001 A 
ATOM     35  C   UNL     1      -3.492  -3.594  25.074  0.00  0.00    +0.002 A 
ATOM     44  H   UNL     1      -2.135   0.140  26.504  0.00  0.00    +0.165 HD
ENDBRANCH  21  23
ENDBRANCH  19  21
ENDBRANCH   9  19
ENDBRANCH  14  17
BRANCH  18  22
ATOM     22  C   UNL     1      -5.889   2.992  27.152  0.00  0.00    +0.066 C 
ATOM     25  C   UNL     1      -6.378   1.758  26.945  0.00  0.00    -0.071 C 
ATOM     30  C   UNL     1      -6.503   1.230  25.538  0.00  0.00    +0.039 C 
ATOM     31  C   UNL     1      -6.840   0.793  28.002  0.00  0.00    +0.039 C 
ENDBRANCH  18  22
TORSDOF 8
ENDMDL
MODEL 8
REMARK VINA RESULT:       8.6      2.449      6.234
REMARK  Name = 11882023
REMARK  10 active torsions:
REMARK  status: ('A' for Active; 'I' for Inactive)
REMARK    1  A    between atoms: N_8  and  C_13
REMARK    2  A    between atoms: N_9  and  C_19
REMARK    3  A    between atoms: N_10  and  C_29
REMARK    4  A    between atoms: C_14  and  C_17
REMARK    5  A    between atoms: C_18  and  C_22
REMARK    6  A    between atoms: C_19  and  C_21
REMARK    7  A    between atoms: C_19  and  C_24
REMARK    8  A    between atoms: C_21  and  C_23
REMARK    9  A    between atoms: C_25  and  C_30
REMARK   10  A    between atoms: C_25  and  C_31
REMARK                            x       y       z     vdW  Elec       q    Type
REMARK                         _______ _______ _______ _____ _____    ______ ____
ROOT
ATOM      4  O   UNL     1      -2.573   5.747  23.572  0.00  0.00    -0.271 OA
ATOM      7  N   UNL     1      -4.122   4.403  24.652  0.00  0.00    -0.285 N 
ATOM     13  C   UNL     1      -5.432   3.062  26.119  0.00  0.00    +0.094 C 
ATOM     14  C   UNL     1      -3.641   4.677  25.999  0.00  0.00    +0.164 C 
ATOM     15  C   UNL     1      -4.739   4.162  26.927  0.00  0.00    +0.056 C 
ATOM     16  C   UNL     1      -5.311   3.547  24.677  0.00  0.00    +0.131 C 
ATOM     18  C   UNL     1      -3.577   5.035  23.546  0.00  0.00    +0.240 C 
ENDROOT
BRANCH  13   8
ATOM      5  O   UNL     1      -4.803   1.147  24.084  0.00  0.00    -0.252 OA
ATOM      8  N   UNL     1      -4.800   1.779  26.308  0.00  0.00    -0.295 N 
ATOM     10  N   UNL     1      -3.915  -0.261  25.738  0.00  0.00    -0.267 N 
ATOM     20  C   UNL     1      -4.527   0.898  25.255  0.00  0.00    +0.304 C 
ATOM     41  H   UNL     1      -4.599   1.474  27.255  0.00  0.00    +0.151 HD
ATOM     43  H   UNL     1      -3.756  -0.313  26.742  0.00  0.00    +0.156 HD
BRANCH  10  29
ATOM      1  F   UNL     1      -1.375  -1.353  26.095  0.00  0.00    -0.203 F 
ATOM      2  F   UNL     1      -2.234  -4.679  22.842  0.00  0.00    -0.205 F 
ATOM     29  C   UNL     1      -3.482  -1.387  25.000  0.00  0.00    +0.070 A 
ATOM     36  C   UNL     1      -2.205  -1.911  25.202  0.00  0.00    +0.147 A 
ATOM     37  C   UNL     1      -4.337  -1.976  24.068  0.00  0.00    +0.029 A 
ATOM     38  C   UNL     1      -1.783  -3.022  24.472  0.00  0.00    +0.078 A 
ATOM     39  C   UNL     1      -3.916  -3.087  23.339  0.00  0.00    +0.040 A 
ATOM     40  C   UNL     1      -2.638  -3.611  23.541  0.00  0.00    +0.126 A 
ENDBRANCH  10  29
ENDBRANCH  13   8
BRANCH  14  17
ATOM      3  O   UNL     1      -2.080   3.406  27.281  0.00  0.00    -0.274 OA
ATOM      9  N   UNL     1      -1.539   3.976  25.091  0.00  0.00    -0.302 N 
ATOM     17  C   UNL     1      -2.352   3.943  26.211  0.00  0.00    +0.234 C 
ATOM     42  H   UNL     1      -1.875   4.432  24.248  0.00  0.00    +0.150 HD
BRANCH   9  19
ATOM     19  C   UNL     1      -0.231   3.362  25.043  0.00  0.00    +0.163 C 
BRANCH  19  24
ATOM      6  O   UNL     1      -1.036   1.213  25.842  0.00  0.00    -0.274 OA
ATOM     12  N   UNL     1       0.694   2.225  26.965  0.00  0.00    -0.328 N 
ATOM     24  C   UNL     1      -0.267   2.162  25.977  0.00  0.00    +0.231 C 
ATOM     45  H   UNL     1       1.340   3.004  27.049  0.00  0.00    +0.145 HD
ATOM     46  H   UNL     1       0.789   1.480  27.648  0.00  0.00    +0.145 HD
ENDBRANCH  19  24
BRANCH  19  21
ATOM     21  C   UNL     1       0.156   2.928  23.625  0.00  0.00    +0.069 C 
BRANCH  21  23
ATOM     11  N   UNL     1       0.683  -0.710  23.571  0.00  0.00    -0.360 N 
ATOM     23  C   UNL     1       0.646   1.510  23.555  0.00  0.00    -0.020 A 
ATOM     26  C   UNL     1       1.985   1.085  23.330  0.00  0.00    +0.003 A 
ATOM     27  C   UNL     1      -0.131   0.383  23.700  0.00  0.00    +0.087 A 
ATOM     28  C   UNL     1       1.981  -0.311  23.345  0.00  0.00    +0.047 A 
ATOM     32  C   UNL     1       3.204   1.758  23.115  0.00  0.00    +0.010 A 
ATOM     33  C   UNL     1       3.140  -1.072  23.154  0.00  0.00    +0.026 A 
ATOM     34  C   UNL     1       4.371   1.010  22.923  0.00  0.00    +0.001 A 
ATOM     35  C   UNL     1       4.338  -0.383  22.942  0.00  0.00    +0.002 A 
ATOM     44  H   UNL     1       0.376  -1.671  23.631  0.00  0.00    +0.165 HD
ENDBRANCH  21  23
ENDBRANCH  19  21
ENDBRANCH   9  19
ENDBRANCH  14  17
BRANCH  18  22
ATOM     22  C   UNL     1      -4.262   4.825  22.255  0.00  0.00    +0.066 C 
ATOM     25  C   UNL     1      -4.022   3.802  21.417  0.00  0.00    -0.071 C 
ATOM     30  C   UNL     1      -2.984   2.769  21.775  0.00  0.00    +0.039 C 
ATOM     31  C   UNL     1      -4.698   3.555  20.096  0.00  0.00    +0.039 C 
ENDBRANCH  18  22
TORSDOF 8
ENDMDL
MODEL 9
REMARK VINA RESULT:       8.7      1.537      2.708
REMARK  Name = 11882023
REMARK  10 active torsions:
REMARK  status: ('A' for Active; 'I' for Inactive)
REMARK    1  A    between atoms: N_8  and  C_13
REMARK    2  A    between atoms: N_9  and  C_19
REMARK    3  A    between atoms: N_10  and  C_29
REMARK    4  A    between atoms: C_14  and  C_17
REMARK    5  A    between atoms: C_18  and  C_22
REMARK    6  A    between atoms: C_19  and  C_21
REMARK    7  A    between atoms: C_19  and  C_24
REMARK    8  A    between atoms: C_21  and  C_23
REMARK    9  A    between atoms: C_25  and  C_30
REMARK   10  A    between atoms: C_25  and  C_31
REMARK                            x       y       z     vdW  Elec       q    Type
REMARK                         _______ _______ _______ _____ _____    ______ ____
ROOT
ATOM      4  O   UNL     1      -4.775   0.283  24.491  0.00  0.00    -0.271 OA
ATOM      7  N   UNL     1      -2.851  -0.998  24.664  0.00  0.00    -0.285 N 
ATOM     13  C   UNL     1      -0.710  -1.955  25.074  0.00  0.00    +0.094 C 
ATOM     14  C   UNL     1      -2.247  -0.213  25.731  0.00  0.00    +0.164 C 
ATOM     15  C   UNL     1      -1.103  -1.075  26.262  0.00  0.00    +0.056 C 
ATOM     16  C   UNL     1      -2.027  -2.163  24.331  0.00  0.00    +0.131 C 
ATOM     18  C   UNL     1      -4.118  -0.712  24.184  0.00  0.00    +0.240 C 
ENDROOT
BRANCH  13   8
ATOM      5  O   UNL     1       2.134  -2.119  25.369  0.00  0.00    -0.252 OA
ATOM      8  N   UNL     1       0.280  -1.320  24.241  0.00  0.00    -0.295 N 
ATOM     10  N   UNL     1       2.370  -0.727  23.494  0.00  0.00    -0.267 N 
ATOM     20  C   UNL     1       1.658  -1.452  24.454  0.00  0.00    +0.304 C 
ATOM     41  H   UNL     1      -0.035  -0.700  23.502  0.00  0.00    +0.151 HD
ATOM     43  H   UNL     1       1.822  -0.223  22.800  0.00  0.00    +0.156 HD
BRANCH  10  29
ATOM      1  F   UNL     1       3.554   1.653  22.656  0.00  0.00    -0.203 F 
ATOM      2  F   UNL     1       7.869  -0.255  22.990  0.00  0.00    -0.205 F 
ATOM     29  C   UNL     1       3.772  -0.604  23.363  0.00  0.00    +0.070 A 
ATOM     36  C   UNL     1       4.334   0.602  22.942  0.00  0.00    +0.147 A 
ATOM     37  C   UNL     1       4.595  -1.691  23.658  0.00  0.00    +0.029 A 
ATOM     38  C   UNL     1       5.719   0.718  22.815  0.00  0.00    +0.078 A 
ATOM     39  C   UNL     1       5.978  -1.574  23.532  0.00  0.00    +0.040 A 
ATOM     40  C   UNL     1       6.541  -0.369  23.110  0.00  0.00    +0.126 A 
ENDBRANCH  10  29
ENDBRANCH  13   8
BRANCH  14  17
ATOM      3  O   UNL     1      -1.692   1.273  23.948  0.00  0.00    -0.274 OA
ATOM      9  N   UNL     1      -1.342   1.966  26.141  0.00  0.00    -0.302 N 
ATOM     17  C   UNL     1      -1.743   1.077  25.159  0.00  0.00    +0.234 C 
ATOM     42  H   UNL     1      -1.450   1.707  27.118  0.00  0.00    +0.150 HD
BRANCH   9  19
ATOM     19  C   UNL     1      -0.796   3.273  25.852  0.00  0.00    +0.163 C 
BRANCH  19  24
ATOM      6  O   UNL     1       0.026   3.921  23.659  0.00  0.00    -0.274 OA
ATOM     12  N   UNL     1       0.915   2.053  24.657  0.00  0.00    -0.328 N 
ATOM     24  C   UNL     1       0.058   3.133  24.601  0.00  0.00    +0.231 C 
ATOM     45  H   UNL     1       0.950   1.424  25.453  0.00  0.00    +0.145 HD
ATOM     46  H   UNL     1       1.552   1.853  23.892  0.00  0.00    +0.145 HD
ENDBRANCH  19  24
BRANCH  19  21
ATOM     21  C   UNL     1      -1.890   4.326  25.640  0.00  0.00    +0.069 C 
BRANCH  21  23
ATOM     11  N   UNL     1      -4.406   3.228  23.195  0.00  0.00    -0.360 N 
ATOM     23  C   UNL     1      -3.071   3.803  24.873  0.00  0.00    -0.020 A 
ATOM     26  C   UNL     1      -4.262   3.251  25.421  0.00  0.00    +0.003 A 
ATOM     27  C   UNL     1      -3.189   3.775  23.502  0.00  0.00    +0.087 A 
ATOM     28  C   UNL     1      -5.083   2.898  24.348  0.00  0.00    +0.047 A 
ATOM     32  C   UNL     1      -4.722   3.017  26.732  0.00  0.00    +0.010 A 
ATOM     33  C   UNL     1      -6.345   2.320  24.520  0.00  0.00    +0.026 A 
ATOM     34  C   UNL     1      -5.983   2.440  26.920  0.00  0.00    +0.001 A 
ATOM     35  C   UNL     1      -6.780   2.097  25.830  0.00  0.00    +0.002 A 
ATOM     44  H   UNL     1      -4.756   3.083  22.258  0.00  0.00    +0.165 HD
ENDBRANCH  21  23
ENDBRANCH  19  21
ENDBRANCH   9  19
ENDBRANCH  14  17
BRANCH  18  22
ATOM     22  C   UNL     1      -4.704  -1.681  23.237  0.00  0.00    +0.066 C 
ATOM     25  C   UNL     1      -4.693  -3.015  23.399  0.00  0.00    -0.071 C 
ATOM     30  C   UNL     1      -4.044  -3.614  24.620  0.00  0.00    +0.039 C 
ATOM     31  C   UNL     1      -5.278  -4.032  22.458  0.00  0.00    +0.039 C 
ENDBRANCH  18  22
TORSDOF 8
ENDMDL
MODEL 10
REMARK VINA RESULT:       8.9      2.934      5.508
REMARK  Name = 11882023
REMARK  10 active torsions:
REMARK  status: ('A' for Active; 'I' for Inactive)
REMARK    1  A    between atoms: N_8  and  C_13
REMARK    2  A    between atoms: N_9  and  C_19
REMARK    3  A    between atoms: N_10  and  C_29
REMARK    4  A    between atoms: C_14  and  C_17
REMARK    5  A    between atoms: C_18  and  C_22
REMARK    6  A    between atoms: C_19  and  C_21
REMARK    7  A    between atoms: C_19  and  C_24
REMARK    8  A    between atoms: C_21  and  C_23
REMARK    9  A    between atoms: C_25  and  C_30
REMARK   10  A    between atoms: C_25  and  C_31
REMARK                            x       y       z     vdW  Elec       q    Type
REMARK                         _______ _______ _______ _____ _____    ______ ____
ROOT
ATOM      4  O   UNL     1      -5.609   1.447  23.497  0.00  0.00    -0.271 OA
ATOM      7  N   UNL     1      -4.327   3.221  24.260  0.00  0.00    -0.285 N 
ATOM     13  C   UNL     1      -2.764   4.970  24.666  0.00  0.00    +0.094 C 
ATOM     14  C   UNL     1      -3.641   3.462  22.998  0.00  0.00    +0.164 C 
ATOM     15  C   UNL     1      -2.979   4.828  23.158  0.00  0.00    +0.056 C 
ATOM     16  C   UNL     1      -3.943   4.213  25.269  0.00  0.00    +0.131 C 
ATOM     18  C   UNL     1      -5.320   2.263  24.373  0.00  0.00    +0.240 C 
ENDROOT
BRANCH  13   8
ATOM      5  O   UNL     1      -2.071   4.074  27.297  0.00  0.00    -0.252 OA
ATOM      8  N   UNL     1      -1.500   4.414  25.082  0.00  0.00    -0.295 N 
ATOM     10  N   UNL     1       0.062   3.504  26.499  0.00  0.00    -0.267 N 
ATOM     20  C   UNL     1      -1.241   3.998  26.394  0.00  0.00    +0.304 C 
ATOM     41  H   UNL     1      -0.742   4.377  24.408  0.00  0.00    +0.151 HD
ATOM     43  H   UNL     1       0.625   3.512  25.652  0.00  0.00    +0.156 HD
BRANCH  10  29
ATOM      1  F   UNL     1       2.593   4.381  27.271  0.00  0.00    -0.203 F 
ATOM      2  F   UNL     1       2.570   1.485  31.011  0.00  0.00    -0.205 F 
ATOM     29  C   UNL     1       0.705   2.990  27.648  0.00  0.00    +0.070 A 
ATOM     36  C   UNL     1       1.972   3.451  28.009  0.00  0.00    +0.147 A 
ATOM     37  C   UNL     1       0.069   2.021  28.425  0.00  0.00    +0.029 A 
ATOM     38  C   UNL     1       2.602   2.941  29.144  0.00  0.00    +0.078 A 
ATOM     39  C   UNL     1       0.698   1.512  29.559  0.00  0.00    +0.040 A 
ATOM     40  C   UNL     1       1.965   1.972  29.920  0.00  0.00    +0.126 A 
ENDBRANCH  10  29
ENDBRANCH  13   8
BRANCH  14  17
ATOM      3  O   UNL     1      -2.620   1.690  21.768  0.00  0.00    -0.274 OA
ATOM      9  N   UNL     1      -1.756   2.259  23.853  0.00  0.00    -0.302 N 
ATOM     17  C   UNL     1      -2.627   2.380  22.784  0.00  0.00    +0.234 C 
ATOM     42  H   UNL     1      -1.840   2.900  24.636  0.00  0.00    +0.150 HD
BRANCH   9  19
ATOM     19  C   UNL     1      -0.699   1.274  23.905  0.00  0.00    +0.163 C 
BRANCH  19  24
ATOM      6  O   UNL     1       0.718   3.240  23.725  0.00  0.00    -0.274 OA
ATOM     12  N   UNL     1       1.687   1.167  23.531  0.00  0.00    -0.328 N 
ATOM     24  C   UNL     1       0.613   2.016  23.699  0.00  0.00    +0.231 C 
ATOM     45  H   UNL     1       1.590   0.156  23.537  0.00  0.00    +0.145 HD
ATOM     46  H   UNL     1       2.624   1.532  23.398  0.00  0.00    +0.145 HD
ENDBRANCH  19  24
BRANCH  19  21
ATOM     21  C   UNL     1      -0.680   0.511  25.234  0.00  0.00    +0.069 C 
BRANCH  21  23
ATOM     11  N   UNL     1      -0.977  -3.152  25.144  0.00  0.00    -0.360 N 
ATOM     23  C   UNL     1      -1.063  -0.935  25.090  0.00  0.00    -0.020 A 
ATOM     26  C   UNL     1      -2.295  -1.440  24.589  0.00  0.00    +0.003 A 
ATOM     27  C   UNL     1      -0.274  -2.012  25.423  0.00  0.00    +0.087 A 
ATOM     28  C   UNL     1      -2.216  -2.833  24.633  0.00  0.00    +0.047 A 
ATOM     32  C   UNL     1      -3.474  -0.843  24.100  0.00  0.00    +0.010 A 
ATOM     33  C   UNL     1      -3.260  -3.663  24.212  0.00  0.00    +0.026 A 
ATOM     34  C   UNL     1      -4.527  -1.661  23.675  0.00  0.00    +0.001 A 
ATOM     35  C   UNL     1      -4.420  -3.049  23.731  0.00  0.00    +0.002 A 
ATOM     44  H   UNL     1      -0.639  -4.093  25.293  0.00  0.00    +0.165 HD
ENDBRANCH  21  23
ENDBRANCH  19  21
ENDBRANCH   9  19
ENDBRANCH  14  17
BRANCH  18  22
ATOM     22  C   UNL     1      -6.074   2.232  25.642  0.00  0.00    +0.066 C 
ATOM     25  C   UNL     1      -5.950   1.283  26.586  0.00  0.00    -0.071 C 
ATOM     30  C   UNL     1      -4.985   0.144  26.377  0.00  0.00    +0.039 C 
ATOM     31  C   UNL     1      -6.698   1.219  27.889  0.00  0.00    +0.039 C 
ENDBRANCH  18  22
TORSDOF 8
ENDMDL
