MODEL 1
REMARK VINA RESULT:      16.6      0.000      0.000
REMARK  Name = 7050335
REMARK  11 active torsions:
REMARK  status: ('A' for Active; 'I' for Inactive)
REMARK    1  A    between atoms: S_1  and  C_30
REMARK    2  A    between atoms: S_1  and  C_34
REMARK    3  A    between atoms: O_5  and  C_23
REMARK    4  A    between atoms: O_5  and  C_31
REMARK    5  A    between atoms: O_6  and  C_24
REMARK    6  A    between atoms: O_6  and  C_32
REMARK    7  A    between atoms: O_7  and  C_26
REMARK    8  A    between atoms: O_7  and  C_33
REMARK    9  A    between atoms: N_9  and  C_18
REMARK   10  A    between atoms: N_10  and  C_12
REMARK   11  A    between atoms: C_19  and  C_22
REMARK                            x       y       z     vdW  Elec       q    Type
REMARK                         _______ _______ _______ _____ _____    ______ ____
ROOT
ATOM      2  O   UNL     1      -1.711   2.713  23.521  0.00  0.00    -0.273 OA
ATOM      3  O   UNL     1      -3.360  -0.559  26.373  0.00  0.00    -0.252 OA
ATOM      8  N   UNL     1      -1.402  -0.313  25.154  0.00  0.00    -0.273 N 
ATOM      9  N   UNL     1      -2.898   1.351  25.051  0.00  0.00    -0.192 N 
ATOM     11  C   UNL     1      -0.793   0.619  24.245  0.00  0.00    +0.166 C 
ATOM     12  C   UNL     1       0.189  -1.378  23.028  0.00  0.00    +0.077 C 
ATOM     13  C   UNL     1      -0.541  -0.031  22.888  0.00  0.00    +0.054 C 
ATOM     14  C   UNL     1      -0.516  -2.296  24.042  0.00  0.00    +0.041 C 
ATOM     15  C   UNL     1      -0.767  -1.599  25.381  0.00  0.00    +0.112 C 
ATOM     16  C   UNL     1      -1.856   1.703  24.200  0.00  0.00    +0.248 C 
ATOM     17  C   UNL     1      -2.645   0.105  25.633  0.00  0.00    +0.316 C 
ENDROOT
BRANCH   9  18
ATOM     18  C   UNL     1      -4.072   2.137  25.283  0.00  0.00    +0.052 A 
ATOM     20  C   UNL     1      -5.151   1.591  25.978  0.00  0.00    +0.069 A 
ATOM     21  C   UNL     1      -4.136   3.449  24.813  0.00  0.00    +0.069 A 
ATOM     23  C   UNL     1      -5.280   4.215  25.040  0.00  0.00    +0.125 A 
ATOM     24  C   UNL     1      -6.295   2.357  26.205  0.00  0.00    +0.125 A 
ATOM     25  C   UNL     1      -6.359   3.669  25.735  0.00  0.00    +0.091 A 
BRANCH  23   5
ATOM      5  O   UNL     1      -5.343   5.495  24.582  0.00  0.00    -0.495 OA
ATOM     31  C   UNL     1      -4.402   5.874  23.580  0.00  0.00    +0.277 C 
ENDBRANCH  23   5
BRANCH  24   6
ATOM      6  O   UNL     1      -7.347   1.825  26.884  0.00  0.00    -0.495 OA
ATOM     32  C   UNL     1      -7.044   0.959  27.976  0.00  0.00    +0.277 C 
ENDBRANCH  24   6
ENDBRANCH   9  18
BRANCH  12  10
ATOM      4  O   UNL     1       2.240  -0.242  21.372  0.00  0.00    -0.270 OA
ATOM     10  N   UNL     1       1.577  -1.187  23.382  0.00  0.00    -0.308 N 
ATOM     19  C   UNL     1       2.496  -0.627  22.509  0.00  0.00    +0.248 C 
ATOM     35  H   UNL     1       1.869  -1.504  24.300  0.00  0.00    +0.149 HD
BRANCH  19  22
ATOM     22  C   UNL     1       3.890  -0.524  23.015  0.00  0.00    +0.078 A 
ATOM     26  C   UNL     1       4.542   0.708  23.066  0.00  0.00    +0.133 A 
ATOM     27  C   UNL     1       4.544  -1.679  23.442  0.00  0.00    +0.018 A 
ATOM     28  C   UNL     1       5.851   0.784  23.544  0.00  0.00    +0.061 A 
ATOM     29  C   UNL     1       5.852  -1.603  23.920  0.00  0.00    +0.015 A 
ATOM     30  C   UNL     1       6.505  -0.371  23.971  0.00  0.00    +0.011 A 
BRANCH  30   1
ATOM      1  S   UNL     1       8.177  -0.275  24.581  0.00  0.00    -0.128 S 
ATOM     34  C   UNL     1       9.117  -0.035  23.046  0.00  0.00    +0.090 C 
ENDBRANCH  30   1
BRANCH  26   7
ATOM      7  O   UNL     1       3.920   1.848  22.654  0.00  0.00    -0.494 OA
ATOM     33  C   UNL     1       2.608   2.088  23.158  0.00  0.00    +0.277 C 
ENDBRANCH  26   7
ENDBRANCH  19  22
ENDBRANCH  12  10
TORSDOF 7
ENDMDL
MODEL 2
REMARK VINA RESULT:      16.6      0.046      2.235
REMARK  Name = 7050335
REMARK  11 active torsions:
REMARK  status: ('A' for Active; 'I' for Inactive)
REMARK    1  A    between atoms: S_1  and  C_30
REMARK    2  A    between atoms: S_1  and  C_34
REMARK    3  A    between atoms: O_5  and  C_23
REMARK    4  A    between atoms: O_5  and  C_31
REMARK    5  A    between atoms: O_6  and  C_24
REMARK    6  A    between atoms: O_6  and  C_32
REMARK    7  A    between atoms: O_7  and  C_26
REMARK    8  A    between atoms: O_7  and  C_33
REMARK    9  A    between atoms: N_9  and  C_18
REMARK   10  A    between atoms: N_10  and  C_12
REMARK   11  A    between atoms: C_19  and  C_22
REMARK                            x       y       z     vdW  Elec       q    Type
REMARK                         _______ _______ _______ _____ _____    ______ ____
ROOT
ATOM      2  O   UNL     1      -1.699   2.722  23.530  0.00  0.00    -0.273 OA
ATOM      3  O   UNL     1      -3.358  -0.551  26.375  0.00  0.00    -0.252 OA
ATOM      8  N   UNL     1      -1.398  -0.308  25.158  0.00  0.00    -0.273 N 
ATOM      9  N   UNL     1      -2.890   1.360  25.057  0.00  0.00    -0.192 N 
ATOM     11  C   UNL     1      -0.787   0.624  24.251  0.00  0.00    +0.166 C 
ATOM     12  C   UNL     1       0.191  -1.373  23.032  0.00  0.00    +0.077 C 
ATOM     13  C   UNL     1      -0.535  -0.024  22.893  0.00  0.00    +0.054 C 
ATOM     14  C   UNL     1      -0.516  -2.291  24.043  0.00  0.00    +0.041 C 
ATOM     15  C   UNL     1      -0.767  -1.596  25.383  0.00  0.00    +0.112 C 
ATOM     16  C   UNL     1      -1.846   1.711  24.208  0.00  0.00    +0.248 C 
ATOM     17  C   UNL     1      -2.641   0.112  25.637  0.00  0.00    +0.316 C 
ENDROOT
BRANCH   9  18
ATOM     18  C   UNL     1      -4.062   2.148  25.289  0.00  0.00    +0.052 A 
ATOM     20  C   UNL     1      -4.121   3.463  24.829  0.00  0.00    +0.069 A 
ATOM     21  C   UNL     1      -5.147   1.600  25.976  0.00  0.00    +0.069 A 
ATOM     23  C   UNL     1      -6.289   2.368  26.201  0.00  0.00    +0.125 A 
ATOM     24  C   UNL     1      -5.263   4.232  25.054  0.00  0.00    +0.125 A 
ATOM     25  C   UNL     1      -6.348   3.684  25.741  0.00  0.00    +0.091 A 
BRANCH  23   5
ATOM      5  O   UNL     1      -7.347   1.834  26.870  0.00  0.00    -0.495 OA
ATOM     31  C   UNL     1      -7.053   0.983  27.977  0.00  0.00    +0.277 C 
ENDBRANCH  23   5
BRANCH  24   6
ATOM      6  O   UNL     1      -5.321   5.515  24.605  0.00  0.00    -0.495 OA
ATOM     32  C   UNL     1      -4.406   5.883  23.574  0.00  0.00    +0.277 C 
ENDBRANCH  24   6
ENDBRANCH   9  18
BRANCH  12  10
ATOM      4  O   UNL     1       2.254  -0.269  21.368  0.00  0.00    -0.270 OA
ATOM     10  N   UNL     1       1.580  -1.187  23.387  0.00  0.00    -0.308 N 
ATOM     19  C   UNL     1       2.505  -0.642  22.510  0.00  0.00    +0.248 C 
ATOM     35  H   UNL     1       1.867  -1.494  24.310  0.00  0.00    +0.149 HD
BRANCH  19  22
ATOM     22  C   UNL     1       3.897  -0.541  23.018  0.00  0.00    +0.078 A 
ATOM     26  C   UNL     1       4.575   0.678  23.009  0.00  0.00    +0.133 A 
ATOM     27  C   UNL     1       4.526  -1.686  23.509  0.00  0.00    +0.018 A 
ATOM     28  C   UNL     1       5.882   0.751  23.491  0.00  0.00    +0.061 A 
ATOM     29  C   UNL     1       5.832  -1.612  23.991  0.00  0.00    +0.015 A 
ATOM     30  C   UNL     1       6.511  -0.392  23.982  0.00  0.00    +0.011 A 
BRANCH  30   1
ATOM      1  S   UNL     1       8.181  -0.299  24.596  0.00  0.00    -0.128 S 
ATOM     34  C   UNL     1       9.119  -0.002  23.071  0.00  0.00    +0.090 C 
ENDBRANCH  30   1
BRANCH  26   7
ATOM      7  O   UNL     1       3.979   1.807  22.534  0.00  0.00    -0.494 OA
ATOM     33  C   UNL     1       2.711   2.152  23.088  0.00  0.00    +0.277 C 
ENDBRANCH  26   7
ENDBRANCH  19  22
ENDBRANCH  12  10
TORSDOF 7
ENDMDL
MODEL 3
REMARK VINA RESULT:      18.6      0.801      1.455
REMARK  Name = 7050335
REMARK  11 active torsions:
REMARK  status: ('A' for Active; 'I' for Inactive)
REMARK    1  A    between atoms: S_1  and  C_30
REMARK    2  A    between atoms: S_1  and  C_34
REMARK    3  A    between atoms: O_5  and  C_23
REMARK    4  A    between atoms: O_5  and  C_31
REMARK    5  A    between atoms: O_6  and  C_24
REMARK    6  A    between atoms: O_6  and  C_32
REMARK    7  A    between atoms: O_7  and  C_26
REMARK    8  A    between atoms: O_7  and  C_33
REMARK    9  A    between atoms: N_9  and  C_18
REMARK   10  A    between atoms: N_10  and  C_12
REMARK   11  A    between atoms: C_19  and  C_22
REMARK                            x       y       z     vdW  Elec       q    Type
REMARK                         _______ _______ _______ _____ _____    ______ ____
ROOT
ATOM      2  O   UNL     1      -1.720   2.886  23.518  0.00  0.00    -0.273 OA
ATOM      3  O   UNL     1      -3.161  -0.535  26.307  0.00  0.00    -0.252 OA
ATOM      8  N   UNL     1      -1.225  -0.148  25.088  0.00  0.00    -0.273 N 
ATOM      9  N   UNL     1      -2.818   1.426  25.024  0.00  0.00    -0.192 N 
ATOM     11  C   UNL     1      -0.677   0.836  24.196  0.00  0.00    +0.166 C 
ATOM     12  C   UNL     1       0.417  -1.074  22.936  0.00  0.00    +0.077 C 
ATOM     13  C   UNL     1      -0.392   0.230  22.826  0.00  0.00    +0.054 C 
ATOM     14  C   UNL     1      -0.228  -2.053  23.933  0.00  0.00    +0.041 C 
ATOM     15  C   UNL     1      -0.515  -1.399  25.287  0.00  0.00    +0.112 C 
ATOM     16  C   UNL     1      -1.802   1.856  24.177  0.00  0.00    +0.248 C 
ATOM     17  C   UNL     1      -2.490   0.185  25.579  0.00  0.00    +0.316 C 
ENDROOT
BRANCH   9  18
ATOM     18  C   UNL     1      -4.035   2.136  25.275  0.00  0.00    +0.052 A 
ATOM     20  C   UNL     1      -5.096   1.496  25.915  0.00  0.00    +0.069 A 
ATOM     21  C   UNL     1      -4.159   3.468  24.879  0.00  0.00    +0.069 A 
ATOM     23  C   UNL     1      -5.345   4.160  25.124  0.00  0.00    +0.125 A 
ATOM     24  C   UNL     1      -6.283   2.189  26.160  0.00  0.00    +0.125 A 
ATOM     25  C   UNL     1      -6.407   3.521  25.765  0.00  0.00    +0.091 A 
BRANCH  23   5
ATOM      5  O   UNL     1      -5.467   5.460  24.739  0.00  0.00    -0.495 OA
ATOM     31  C   UNL     1      -4.649   5.895  23.654  0.00  0.00    +0.277 C 
ENDBRANCH  23   5
BRANCH  24   6
ATOM      6  O   UNL     1      -7.318   1.565  26.785  0.00  0.00    -0.495 OA
ATOM     32  C   UNL     1      -7.036   0.929  28.031  0.00  0.00    +0.277 C 
ENDBRANCH  24   6
ENDBRANCH   9  18
BRANCH  12  10
ATOM      4  O   UNL     1       2.444   0.028  21.229  0.00  0.00    -0.270 OA
ATOM     10  N   UNL     1       1.792  -0.809  23.290  0.00  0.00    -0.308 N 
ATOM     19  C   UNL     1       2.701  -0.273  22.391  0.00  0.00    +0.248 C 
ATOM     35  H   UNL     1       2.085  -1.054  24.230  0.00  0.00    +0.149 HD
BRANCH  19  22
ATOM     22  C   UNL     1       4.083  -0.084  22.902  0.00  0.00    +0.078 A 
ATOM     26  C   UNL     1       4.789  -1.148  23.464  0.00  0.00    +0.133 A 
ATOM     27  C   UNL     1       4.674   1.177  22.813  0.00  0.00    +0.018 A 
ATOM     28  C   UNL     1       6.086  -0.950  23.938  0.00  0.00    +0.061 A 
ATOM     29  C   UNL     1       5.971   1.374  23.287  0.00  0.00    +0.015 A 
ATOM     30  C   UNL     1       6.677   0.310  23.849  0.00  0.00    +0.011 A 
BRANCH  30   1
ATOM      1  S   UNL     1       8.333   0.563  24.455  0.00  0.00    -0.128 S 
ATOM     34  C   UNL     1       9.332   0.017  23.040  0.00  0.00    +0.090 C 
ENDBRANCH  30   1
BRANCH  26   7
ATOM      7  O   UNL     1       4.230  -2.387  23.560  0.00  0.00    -0.494 OA
ATOM     33  C   UNL     1       3.400  -2.637  24.691  0.00  0.00    +0.277 C 
ENDBRANCH  26   7
ENDBRANCH  19  22
ENDBRANCH  12  10
TORSDOF 7
ENDMDL
MODEL 4
REMARK VINA RESULT:      18.9      0.808      2.693
REMARK  Name = 7050335
REMARK  11 active torsions:
REMARK  status: ('A' for Active; 'I' for Inactive)
REMARK    1  A    between atoms: S_1  and  C_30
REMARK    2  A    between atoms: S_1  and  C_34
REMARK    3  A    between atoms: O_5  and  C_23
REMARK    4  A    between atoms: O_5  and  C_31
REMARK    5  A    between atoms: O_6  and  C_24
REMARK    6  A    between atoms: O_6  and  C_32
REMARK    7  A    between atoms: O_7  and  C_26
REMARK    8  A    between atoms: O_7  and  C_33
REMARK    9  A    between atoms: N_9  and  C_18
REMARK   10  A    between atoms: N_10  and  C_12
REMARK   11  A    between atoms: C_19  and  C_22
REMARK                            x       y       z     vdW  Elec       q    Type
REMARK                         _______ _______ _______ _____ _____    ______ ____
ROOT
ATOM      2  O   UNL     1      -1.760   3.041  23.553  0.00  0.00    -0.273 OA
ATOM      3  O   UNL     1      -3.203  -0.438  26.268  0.00  0.00    -0.252 OA
ATOM      8  N   UNL     1      -1.266  -0.026  25.059  0.00  0.00    -0.273 N 
ATOM      9  N   UNL     1      -2.859   1.549  25.027  0.00  0.00    -0.192 N 
ATOM     11  C   UNL     1      -0.717   0.977  24.189  0.00  0.00    +0.166 C 
ATOM     12  C   UNL     1       0.377  -0.906  22.889  0.00  0.00    +0.077 C 
ATOM     13  C   UNL     1      -0.431   0.400  22.806  0.00  0.00    +0.054 C 
ATOM     14  C   UNL     1      -0.268  -1.905  23.865  0.00  0.00    +0.041 C 
ATOM     15  C   UNL     1      -0.556  -1.280  25.232  0.00  0.00    +0.112 C 
ATOM     16  C   UNL     1      -1.842   1.998  24.190  0.00  0.00    +0.248 C 
ATOM     17  C   UNL     1      -2.531   0.297  25.556  0.00  0.00    +0.316 C 
ENDROOT
BRANCH   9  18
ATOM     18  C   UNL     1      -4.077   2.254  25.291  0.00  0.00    +0.052 A 
ATOM     20  C   UNL     1      -4.223   3.575  24.870  0.00  0.00    +0.069 A 
ATOM     21  C   UNL     1      -5.117   1.618  25.970  0.00  0.00    +0.069 A 
ATOM     23  C   UNL     1      -6.303   2.304  26.228  0.00  0.00    +0.125 A 
ATOM     24  C   UNL     1      -5.411   4.262  25.128  0.00  0.00    +0.125 A 
ATOM     25  C   UNL     1      -6.451   3.626  25.807  0.00  0.00    +0.091 A 
BRANCH  23   5
ATOM      5  O   UNL     1      -7.318   1.684  26.890  0.00  0.00    -0.495 OA
ATOM     31  C   UNL     1      -6.958   0.807  27.956  0.00  0.00    +0.277 C 
ENDBRANCH  23   5
BRANCH  24   6
ATOM      6  O   UNL     1      -5.555   5.551  24.717  0.00  0.00    -0.495 OA
ATOM     32  C   UNL     1      -4.684   6.003  23.681  0.00  0.00    +0.277 C 
ENDBRANCH  24   6
ENDBRANCH   9  18
BRANCH  12  10
ATOM      4  O   UNL     1       2.453   0.055  21.155  0.00  0.00    -0.270 OA
ATOM     10  N   UNL     1       1.753  -0.648  23.250  0.00  0.00    -0.308 N 
ATOM     19  C   UNL     1       2.686  -0.183  22.337  0.00  0.00    +0.248 C 
ATOM     35  H   UNL     1       2.026  -0.844  24.207  0.00  0.00    +0.149 HD
BRANCH  19  22
ATOM     22  C   UNL     1       4.064   0.007  22.858  0.00  0.00    +0.078 A 
ATOM     26  C   UNL     1       4.788  -1.067  23.375  0.00  0.00    +0.133 A 
ATOM     27  C   UNL     1       4.633   1.281  22.825  0.00  0.00    +0.018 A 
ATOM     28  C   UNL     1       6.080  -0.868  23.860  0.00  0.00    +0.061 A 
ATOM     29  C   UNL     1       5.925   1.480  23.310  0.00  0.00    +0.015 A 
ATOM     30  C   UNL     1       6.649   0.405  23.827  0.00  0.00    +0.011 A 
BRANCH  30   1
ATOM      1  S   UNL     1       8.300   0.661  24.447  0.00  0.00    -0.128 S 
ATOM     34  C   UNL     1       9.310   0.003  23.090  0.00  0.00    +0.090 C 
ENDBRANCH  30   1
BRANCH  26   7
ATOM      7  O   UNL     1       4.250  -2.318  23.416  0.00  0.00    -0.494 OA
ATOM     33  C   UNL     1       4.047  -2.895  24.705  0.00  0.00    +0.277 C 
ENDBRANCH  26   7
ENDBRANCH  19  22
ENDBRANCH  12  10
TORSDOF 7
ENDMDL
