MODEL 1
REMARK VINA RESULT:      -0.8      0.000      0.000
REMARK  Name = 45361016
REMARK  10 active torsions:
REMARK  status: ('A' for Active; 'I' for Inactive)
REMARK    1  A    between atoms: O_4  and  C_26
REMARK    2  A    between atoms: O_4  and  C_29
REMARK    3  A    between atoms: N_5  and  C_16
REMARK    4  A    between atoms: N_6  and  C_18
REMARK    5  A    between atoms: N_8  and  C_27
REMARK    6  A    between atoms: C_13  and  C_17
REMARK    7  A    between atoms: C_16  and  C_20
REMARK    8  A    between atoms: C_17  and  C_19
REMARK    9  A    between atoms: C_19  and  C_21
REMARK   10  A    between atoms: C_27  and  C_28
REMARK                            x       y       z     vdW  Elec       q    Type
REMARK                         _______ _______ _______ _____ _____    ______ ____
ROOT
ATOM      2  O   UNL     1      -0.697   1.964  23.676  0.00  0.00    -0.274 OA
ATOM      5  N   UNL     1       0.277  -0.547  23.872  0.00  0.00    -0.286 NA
ATOM      6  N   UNL     1      -3.019  -0.568  25.462  0.00  0.00    -0.296 NA
ATOM      7  N   UNL     1      -2.855   1.313  23.281  0.00  0.00    -0.312 N 
ATOM      9  C   UNL     1      -1.880  -1.209  24.767  0.00  0.00    +0.084 C 
ATOM     10  C   UNL     1      -1.172  -0.422  23.625  0.00  0.00    +0.161 C 
ATOM     11  C   UNL     1      -0.701  -1.560  25.693  0.00  0.00    +0.036 C 
ATOM     12  C   UNL     1       0.465  -1.704  24.739  0.00  0.00    +0.087 C 
ATOM     13  C   UNL     1      -4.199  -0.301  24.594  0.00  0.00    +0.074 C 
ATOM     14  C   UNL     1      -1.523   1.061  23.548  0.00  0.00    +0.232 C 
ATOM     15  C   UNL     1      -3.865   0.276  23.205  0.00  0.00    +0.123 C 
ATOM     18  C   UNL     1      -3.421  -1.352  26.642  0.00  0.00    +0.105 C 
ATOM     33  H   UNL     1      -3.152   2.280  23.194  0.00  0.00    +0.149 HD
ENDROOT
BRANCH   5  16
ATOM     16  C   UNL     1       1.065  -0.643  22.650  0.00  0.00    +0.120 C 
BRANCH  16  20
ATOM     20  C   UNL     1       2.523  -0.372  22.900  0.00  0.00    -0.033 A 
ATOM     22  C   UNL     1       3.075   0.860  22.548  0.00  0.00    +0.008 A 
ATOM     23  C   UNL     1       3.325  -1.352  23.486  0.00  0.00    +0.008 A 
ATOM     24  C   UNL     1       4.427   1.111  22.781  0.00  0.00    +0.046 A 
ATOM     25  C   UNL     1       4.677  -1.101  23.718  0.00  0.00    +0.046 A 
ATOM     26  C   UNL     1       5.228   0.130  23.366  0.00  0.00    +0.120 A 
BRANCH  26   4
ATOM      4  O   UNL     1       6.547   0.376  23.594  0.00  0.00    -0.495 OA
ATOM     29  C   UNL     1       7.487  -0.509  22.986  0.00  0.00    +0.277 C 
ENDBRANCH  26   4
ENDBRANCH  16  20
ENDBRANCH   5  16
BRANCH  13  17
ATOM     17  C   UNL     1      -5.167   0.684  25.285  0.00  0.00    +0.029 C 
BRANCH  17  19
ATOM     19  C   UNL     1      -5.531   1.824  24.352  0.00  0.00    +0.097 C 
BRANCH  19  21
ATOM      3  O   UNL     1      -4.388   3.885  23.802  0.00  0.00    -0.276 OA
ATOM      8  N   UNL     1      -4.441   3.179  26.013  0.00  0.00    -0.311 N 
ATOM     21  C   UNL     1      -4.729   3.075  24.659  0.00  0.00    +0.213 C 
ATOM     34  H   UNL     1      -4.781   2.466  26.653  0.00  0.00    +0.149 HD
BRANCH   8  27
ATOM     27  C   UNL     1      -3.687   4.282  26.558  0.00  0.00    +0.146 C 
BRANCH  27  28
ATOM      1  S   UNL     1      -1.162   3.143  26.312  0.00  0.00    -0.100 S 
ATOM     28  C   UNL     1      -2.308   4.367  25.962  0.00  0.00    +0.007 A 
ATOM     30  C   UNL     1      -1.791   5.335  25.129  0.00  0.00    +0.013 A 
ATOM     31  C   UNL     1      -0.437   5.069  24.773  0.00  0.00    +0.008 A 
ATOM     32  C   UNL     1       0.029   3.907  25.347  0.00  0.00    +0.045 A 
ENDBRANCH  27  28
ENDBRANCH   8  27
ENDBRANCH  19  21
ENDBRANCH  17  19
ENDBRANCH  13  17
TORSDOF 8
ENDMDL
MODEL 2
REMARK VINA RESULT:       0.8      2.113      2.635
REMARK  Name = 45361016
REMARK  10 active torsions:
REMARK  status: ('A' for Active; 'I' for Inactive)
REMARK    1  A    between atoms: O_4  and  C_26
REMARK    2  A    between atoms: O_4  and  C_29
REMARK    3  A    between atoms: N_5  and  C_16
REMARK    4  A    between atoms: N_6  and  C_18
REMARK    5  A    between atoms: N_8  and  C_27
REMARK    6  A    between atoms: C_13  and  C_17
REMARK    7  A    between atoms: C_16  and  C_20
REMARK    8  A    between atoms: C_17  and  C_19
REMARK    9  A    between atoms: C_19  and  C_21
REMARK   10  A    between atoms: C_27  and  C_28
REMARK                            x       y       z     vdW  Elec       q    Type
REMARK                         _______ _______ _______ _____ _____    ______ ____
ROOT
ATOM      2  O   UNL     1       0.539   2.334  23.901  0.00  0.00    -0.274 OA
ATOM      5  N   UNL     1       0.169  -0.333  23.692  0.00  0.00    -0.286 NA
ATOM      6  N   UNL     1      -2.985   1.076  24.899  0.00  0.00    -0.296 NA
ATOM      7  N   UNL     1      -1.556   2.887  23.165  0.00  0.00    -0.312 N 
ATOM      9  C   UNL     1      -2.171   0.050  24.211  0.00  0.00    +0.084 C 
ATOM     10  C   UNL     1      -0.978   0.520  23.327  0.00  0.00    +0.161 C 
ATOM     11  C   UNL     1      -1.489  -0.949  25.165  0.00  0.00    +0.036 C 
ATOM     12  C   UNL     1      -0.370  -1.529  24.326  0.00  0.00    +0.087 C 
ATOM     13  C   UNL     1      -3.717   1.996  23.985  0.00  0.00    +0.074 C 
ATOM     14  C   UNL     1      -0.573   1.980  23.512  0.00  0.00    +0.232 C 
ATOM     15  C   UNL     1      -2.900   2.501  22.780  0.00  0.00    +0.123 C 
ATOM     18  C   UNL     1      -3.918   0.453  25.852  0.00  0.00    +0.105 C 
ATOM     33  H   UNL     1      -1.344   3.876  23.242  0.00  0.00    +0.149 HD
ENDROOT
BRANCH   5  16
ATOM     16  C   UNL     1       1.034  -0.652  22.563  0.00  0.00    +0.120 C 
BRANCH  16  20
ATOM     20  C   UNL     1       2.483  -0.400  22.878  0.00  0.00    -0.033 A 
ATOM     22  C   UNL     1       3.081   0.803  22.503  0.00  0.00    +0.008 A 
ATOM     23  C   UNL     1       3.231  -1.371  23.545  0.00  0.00    +0.008 A 
ATOM     24  C   UNL     1       4.424   1.036  22.795  0.00  0.00    +0.046 A 
ATOM     25  C   UNL     1       4.575  -1.139  23.837  0.00  0.00    +0.046 A 
ATOM     26  C   UNL     1       5.171   0.065  23.462  0.00  0.00    +0.120 A 
BRANCH  26   4
ATOM      4  O   UNL     1       6.483   0.292  23.748  0.00  0.00    -0.495 OA
ATOM     29  C   UNL     1       7.446  -0.485  23.039  0.00  0.00    +0.277 C 
ENDBRANCH  26   4
ENDBRANCH  16  20
ENDBRANCH   5  16
BRANCH  13  17
ATOM     17  C   UNL     1      -4.222   3.235  24.755  0.00  0.00    +0.029 C 
BRANCH  17  19
ATOM     19  C   UNL     1      -3.535   3.347  26.103  0.00  0.00    +0.097 C 
BRANCH  19  21
ATOM      3  O   UNL     1      -1.735   4.805  25.399  0.00  0.00    -0.276 OA
ATOM      8  N   UNL     1      -1.222   2.846  26.533  0.00  0.00    -0.311 N 
ATOM     21  C   UNL     1      -2.084   3.770  25.959  0.00  0.00    +0.213 C 
ATOM     34  H   UNL     1      -1.604   2.022  26.991  0.00  0.00    +0.149 HD
BRANCH   8  27
ATOM     27  C   UNL     1       0.210   3.020  26.526  0.00  0.00    +0.146 C 
BRANCH  27  28
ATOM      1  S   UNL     1       2.498   2.976  28.108  0.00  0.00    -0.100 S 
ATOM     28  C   UNL     1       0.810   2.788  27.887  0.00  0.00    +0.007 A 
ATOM     30  C   UNL     1       0.174   2.426  29.054  0.00  0.00    +0.013 A 
ATOM     31  C   UNL     1       1.084   2.300  30.144  0.00  0.00    +0.008 A 
ATOM     32  C   UNL     1       2.380   2.573  29.767  0.00  0.00    +0.045 A 
ENDBRANCH  27  28
ENDBRANCH   8  27
ENDBRANCH  19  21
ENDBRANCH  17  19
ENDBRANCH  13  17
TORSDOF 8
ENDMDL
MODEL 3
REMARK VINA RESULT:       1.3      2.200      7.019
REMARK  Name = 45361016
REMARK  10 active torsions:
REMARK  status: ('A' for Active; 'I' for Inactive)
REMARK    1  A    between atoms: O_4  and  C_26
REMARK    2  A    between atoms: O_4  and  C_29
REMARK    3  A    between atoms: N_5  and  C_16
REMARK    4  A    between atoms: N_6  and  C_18
REMARK    5  A    between atoms: N_8  and  C_27
REMARK    6  A    between atoms: C_13  and  C_17
REMARK    7  A    between atoms: C_16  and  C_20
REMARK    8  A    between atoms: C_17  and  C_19
REMARK    9  A    between atoms: C_19  and  C_21
REMARK   10  A    between atoms: C_27  and  C_28
REMARK                            x       y       z     vdW  Elec       q    Type
REMARK                         _______ _______ _______ _____ _____    ______ ____
ROOT
ATOM      2  O   UNL     1      -3.024   1.814  22.641  0.00  0.00    -0.274 OA
ATOM      5  N   UNL     1      -4.931   0.854  24.296  0.00  0.00    -0.286 NA
ATOM      6  N   UNL     1      -2.151  -1.523  24.400  0.00  0.00    -0.296 NA
ATOM      7  N   UNL     1      -1.270   1.191  23.972  0.00  0.00    -0.312 N 
ATOM      9  C   UNL     1      -3.349  -0.862  24.963  0.00  0.00    +0.084 C 
ATOM     10  C   UNL     1      -3.532   0.666  24.726  0.00  0.00    +0.161 C 
ATOM     11  C   UNL     1      -4.680  -1.430  24.436  0.00  0.00    +0.036 C 
ATOM     12  C   UNL     1      -5.673  -0.324  24.726  0.00  0.00    +0.087 C 
ATOM     13  C   UNL     1      -0.859  -1.041  24.964  0.00  0.00    +0.074 C 
ATOM     14  C   UNL     1      -2.615   1.270  23.666  0.00  0.00    +0.232 C 
ATOM     15  C   UNL     1      -0.753   0.488  25.129  0.00  0.00    +0.123 C 
ATOM     18  C   UNL     1      -2.250  -2.986  24.530  0.00  0.00    +0.105 C 
ATOM     33  H   UNL     1      -0.606   1.595  23.319  0.00  0.00    +0.149 HD
ENDROOT
BRANCH   5  16
ATOM     16  C   UNL     1      -5.526   2.089  24.791  0.00  0.00    +0.120 C 
BRANCH  16  20
ATOM     20  C   UNL     1      -4.505   3.185  24.935  0.00  0.00    -0.033 A 
ATOM     22  C   UNL     1      -3.761   3.297  26.109  0.00  0.00    +0.008 A 
ATOM     23  C   UNL     1      -4.303   4.091  23.893  0.00  0.00    +0.008 A 
ATOM     24  C   UNL     1      -2.815   4.313  26.242  0.00  0.00    +0.046 A 
ATOM     25  C   UNL     1      -3.357   5.107  24.026  0.00  0.00    +0.046 A 
ATOM     26  C   UNL     1      -2.613   5.218  25.200  0.00  0.00    +0.120 A 
BRANCH  26   4
ATOM      4  O   UNL     1      -1.689   6.209  25.329  0.00  0.00    -0.495 OA
ATOM     29  C   UNL     1      -0.390   5.959  24.796  0.00  0.00    +0.277 C 
ENDBRANCH  26   4
ENDBRANCH  16  20
ENDBRANCH   5  16
BRANCH  13  17
ATOM     17  C   UNL     1       0.321  -1.495  24.078  0.00  0.00    +0.029 C 
BRANCH  17  19
ATOM     19  C   UNL     1       0.126  -1.034  22.646  0.00  0.00    +0.097 C 
BRANCH  19  21
ATOM      3  O   UNL     1       1.746  -0.496  20.930  0.00  0.00    -0.276 OA
ATOM      8  N   UNL     1       2.033   0.368  23.066  0.00  0.00    -0.311 N 
ATOM     21  C   UNL     1       1.377  -0.375  22.095  0.00  0.00    +0.213 C 
ATOM     34  H   UNL     1       1.643   0.424  24.003  0.00  0.00    +0.149 HD
BRANCH   8  27
ATOM     27  C   UNL     1       3.251   1.091  22.791  0.00  0.00    +0.146 C 
BRANCH  27  28
ATOM      1  S   UNL     1       4.339  -1.281  23.753  0.00  0.00    -0.100 S 
ATOM     28  C   UNL     1       4.462   0.372  23.323  0.00  0.00    +0.007 A 
ATOM     30  C   UNL     1       5.731   0.866  23.531  0.00  0.00    +0.013 A 
ATOM     31  C   UNL     1       6.614  -0.124  24.050  0.00  0.00    +0.008 A 
ATOM     32  C   UNL     1       5.986  -1.338  24.218  0.00  0.00    +0.045 A 
ENDBRANCH  27  28
ENDBRANCH   8  27
ENDBRANCH  19  21
ENDBRANCH  17  19
ENDBRANCH  13  17
TORSDOF 8
ENDMDL
MODEL 4
REMARK VINA RESULT:       2.4      1.780      3.907
REMARK  Name = 45361016
REMARK  10 active torsions:
REMARK  status: ('A' for Active; 'I' for Inactive)
REMARK    1  A    between atoms: O_4  and  C_26
REMARK    2  A    between atoms: O_4  and  C_29
REMARK    3  A    between atoms: N_5  and  C_16
REMARK    4  A    between atoms: N_6  and  C_18
REMARK    5  A    between atoms: N_8  and  C_27
REMARK    6  A    between atoms: C_13  and  C_17
REMARK    7  A    between atoms: C_16  and  C_20
REMARK    8  A    between atoms: C_17  and  C_19
REMARK    9  A    between atoms: C_19  and  C_21
REMARK   10  A    between atoms: C_27  and  C_28
REMARK                            x       y       z     vdW  Elec       q    Type
REMARK                         _______ _______ _______ _____ _____    ______ ____
ROOT
ATOM      2  O   UNL     1      -1.249  -0.096  26.459  0.00  0.00    -0.274 OA
ATOM      5  N   UNL     1      -0.423  -0.679  23.955  0.00  0.00    -0.286 NA
ATOM      6  N   UNL     1      -1.649   2.768  23.885  0.00  0.00    -0.296 NA
ATOM      7  N   UNL     1      -0.483   2.060  26.428  0.00  0.00    -0.312 N 
ATOM      9  C   UNL     1      -0.819   1.648  23.388  0.00  0.00    +0.084 C 
ATOM     10  C   UNL     1      -0.163   0.693  24.429  0.00  0.00    +0.161 C 
ATOM     11  C   UNL     1      -1.580   0.661  22.483  0.00  0.00    +0.036 C 
ATOM     12  C   UNL     1      -0.728  -0.590  22.532  0.00  0.00    +0.087 C 
ATOM     13  C   UNL     1      -0.905   3.776  24.691  0.00  0.00    +0.074 C 
ATOM     14  C   UNL     1      -0.700   0.822  25.852  0.00  0.00    +0.232 C 
ATOM     15  C   UNL     1       0.086   3.185  25.713  0.00  0.00    +0.123 C 
ATOM     18  C   UNL     1      -2.359   3.426  22.775  0.00  0.00    +0.105 C 
ATOM     33  H   UNL     1      -0.796   2.206  27.382  0.00  0.00    +0.149 HD
ENDROOT
BRANCH   5  16
ATOM     16  C   UNL     1       0.674  -1.600  24.224  0.00  0.00    +0.120 C 
BRANCH  16  20
ATOM     20  C   UNL     1       2.003  -1.026  23.812  0.00  0.00    -0.033 A 
ATOM     22  C   UNL     1       2.055   0.167  23.091  0.00  0.00    +0.008 A 
ATOM     23  C   UNL     1       3.183  -1.686  24.151  0.00  0.00    +0.008 A 
ATOM     24  C   UNL     1       3.285   0.699  22.709  0.00  0.00    +0.046 A 
ATOM     25  C   UNL     1       4.415  -1.155  23.769  0.00  0.00    +0.046 A 
ATOM     26  C   UNL     1       4.466   0.038  23.048  0.00  0.00    +0.120 A 
BRANCH  26   4
ATOM      4  O   UNL     1       5.668   0.557  22.677  0.00  0.00    -0.495 OA
ATOM     29  C   UNL     1       6.834  -0.184  23.032  0.00  0.00    +0.277 C 
ENDBRANCH  26   4
ENDBRANCH  16  20
ENDBRANCH   5  16
BRANCH  13  17
ATOM     17  C   UNL     1      -1.887   4.680  25.466  0.00  0.00    +0.029 C 
BRANCH  17  19
ATOM     19  C   UNL     1      -2.754   3.856  26.400  0.00  0.00    +0.097 C 
BRANCH  19  21
ATOM      3  O   UNL     1      -4.882   3.908  25.248  0.00  0.00    -0.276 OA
ATOM      8  N   UNL     1      -3.812   1.870  25.552  0.00  0.00    -0.311 N 
ATOM     21  C   UNL     1      -3.938   3.248  25.672  0.00  0.00    +0.213 C 
ATOM     34  H   UNL     1      -2.984   1.409  25.920  0.00  0.00    +0.149 HD
BRANCH   8  27
ATOM     27  C   UNL     1      -4.811   1.059  24.899  0.00  0.00    +0.146 C 
BRANCH  27  28
ATOM      1  S   UNL     1      -3.627  -1.179  26.050  0.00  0.00    -0.100 S 
ATOM     28  C   UNL     1      -4.354  -0.365  24.730  0.00  0.00    +0.007 A 
ATOM     30  C   UNL     1      -4.432  -1.164  23.611  0.00  0.00    +0.013 A 
ATOM     31  C   UNL     1      -3.890  -2.462  23.839  0.00  0.00    +0.008 A 
ATOM     32  C   UNL     1      -3.417  -2.604  25.125  0.00  0.00    +0.045 A 
ENDBRANCH  27  28
ENDBRANCH   8  27
ENDBRANCH  19  21
ENDBRANCH  17  19
ENDBRANCH  13  17
TORSDOF 8
ENDMDL
