MODEL 1
REMARK VINA RESULT:      -2.8      0.000      0.000
REMARK  Name = 45783589
REMARK  7 active torsions:
REMARK  status: ('A' for Active; 'I' for Inactive)
REMARK    1  A    between atoms: O_1  and  C_11
REMARK    2  A    between atoms: O_1  and  C_23
REMARK    3  A    between atoms: N_3  and  C_12
REMARK    4  A    between atoms: C_7  and  C_18
REMARK    5  A    between atoms: C_12  and  C_19
REMARK    6  A    between atoms: C_20  and  C_24
REMARK    7  A    between atoms: C_27  and  C_31
REMARK                            x       y       z     vdW  Elec       q    Type
REMARK                         _______ _______ _______ _____ _____    ______ ____
ROOT
ATOM      2  O   UNL     1      15.185  -9.950  28.484  0.00  0.00    -0.336 OA
ATOM      4  N   UNL     1      16.131  -7.922  28.582  0.00  0.00    -0.190 NA
ATOM      5  N   UNL     1      15.381  -9.548  27.158  0.00  0.00    -0.056 NA
ATOM     18  C   UNL     1      15.653  -8.937  29.258  0.00  0.00    +0.245 A 
ATOM     20  C   UNL     1      15.943  -8.343  27.298  0.00  0.00    +0.204 A 
ENDROOT
BRANCH  20  24
ATOM      6  N   UNL     1      16.762  -5.338  25.267  0.00  0.00    -0.221 NA
ATOM     23  C   UNL     1      17.045  -5.935  24.088  0.00  0.00    +0.215 A 
ATOM     24  C   UNL     1      16.326  -7.536  26.178  0.00  0.00    +0.041 A 
ATOM     28  C   UNL     1      16.993  -7.304  23.878  0.00  0.00    +0.068 A 
ATOM     29  C   UNL     1      16.626  -8.112  24.949  0.00  0.00    +0.018 A 
ATOM     30  C   UNL     1      16.408  -6.157  26.284  0.00  0.00    +0.126 A 
BRANCH  23   1
ATOM      1  O   UNL     1      17.404  -5.118  23.050  0.00  0.00    -0.473 OA
BRANCH   1  11
ATOM     11  C   UNL     1      16.716  -3.875  22.946  0.00  0.00    +0.175 C 
ATOM     13  C   UNL     1      17.344  -3.032  21.837  0.00  0.00    +0.044 C 
ATOM     14  C   UNL     1      16.754  -3.154  24.292  0.00  0.00    +0.044 C 
ATOM     15  C   UNL     1      16.703  -1.651  21.752  0.00  0.00    +0.004 C 
ATOM     16  C   UNL     1      16.113  -1.772  24.207  0.00  0.00    +0.004 C 
ATOM     17  C   UNL     1      16.739  -0.930  23.097  0.00  0.00    +0.000 C 
ENDBRANCH   1  11
ENDBRANCH  23   1
ENDBRANCH  20  24
BRANCH  18   7
ATOM      3  N   UNL     1      14.690 -10.270  31.126  0.00  0.00    -0.287 NA
ATOM      7  C   UNL     1      15.553  -9.130  30.757  0.00  0.00    +0.146 C 
ATOM      8  C   UNL     1      16.912  -9.441  31.409  0.00  0.00    +0.030 C 
ATOM      9  C   UNL     1      16.698 -10.741  32.171  0.00  0.00    +0.017 C 
ATOM     10  C   UNL     1      15.200 -10.781  32.398  0.00  0.00    +0.085 C 
BRANCH   3  12
ATOM     12  C   UNL     1      13.277  -9.918  31.204  0.00  0.00    +0.120 C 
BRANCH  12  19
ATOM     19  C   UNL     1      13.079  -8.454  31.497  0.00  0.00    -0.033 A 
ATOM     21  C   UNL     1      12.204  -7.699  30.716  0.00  0.00    +0.005 A 
ATOM     22  C   UNL     1      13.772  -7.853  32.547  0.00  0.00    +0.005 A 
ATOM     25  C   UNL     1      12.023  -6.342  30.986  0.00  0.00    +0.003 A 
ATOM     26  C   UNL     1      13.591  -6.496  32.817  0.00  0.00    +0.003 A 
ATOM     27  C   UNL     1      12.716  -5.741  32.036  0.00  0.00    -0.050 A 
ATOM     31  C   UNL     1      12.523  -4.290  32.323  0.00  0.00    +0.044 C 
ENDBRANCH  12  19
ENDBRANCH   3  12
ENDBRANCH  18   7
TORSDOF 6
ENDMDL
MODEL 2
REMARK VINA RESULT:      -2.2      1.578      2.469
REMARK  Name = 45783589
REMARK  7 active torsions:
REMARK  status: ('A' for Active; 'I' for Inactive)
REMARK    1  A    between atoms: O_1  and  C_11
REMARK    2  A    between atoms: O_1  and  C_23
REMARK    3  A    between atoms: N_3  and  C_12
REMARK    4  A    between atoms: C_7  and  C_18
REMARK    5  A    between atoms: C_12  and  C_19
REMARK    6  A    between atoms: C_20  and  C_24
REMARK    7  A    between atoms: C_27  and  C_31
REMARK                            x       y       z     vdW  Elec       q    Type
REMARK                         _______ _______ _______ _____ _____    ______ ____
ROOT
ATOM      2  O   UNL     1      14.534  -8.715  29.141  0.00  0.00    -0.336 OA
ATOM      4  N   UNL     1      16.450  -7.580  28.893  0.00  0.00    -0.190 NA
ATOM      5  N   UNL     1      14.545  -8.253  27.820  0.00  0.00    -0.056 NA
ATOM     18  C   UNL     1      15.691  -8.275  29.702  0.00  0.00    +0.245 A 
ATOM     20  C   UNL     1      15.705  -7.593  27.750  0.00  0.00    +0.204 A 
ENDROOT
BRANCH  20  24
ATOM      6  N   UNL     1      16.583  -4.874  25.372  0.00  0.00    -0.221 NA
ATOM     23  C   UNL     1      16.977  -5.619  24.314  0.00  0.00    +0.215 A 
ATOM     24  C   UNL     1      16.148  -6.937  26.556  0.00  0.00    +0.041 A 
ATOM     28  C   UNL     1      16.986  -7.004  24.301  0.00  0.00    +0.068 A 
ATOM     29  C   UNL     1      16.562  -7.668  25.448  0.00  0.00    +0.018 A 
ATOM     30  C   UNL     1      16.177  -5.555  26.467  0.00  0.00    +0.126 A 
BRANCH  23   1
ATOM      1  O   UNL     1      17.389  -4.942  23.198  0.00  0.00    -0.473 OA
BRANCH   1  11
ATOM     11  C   UNL     1      17.405  -3.520  23.281  0.00  0.00    +0.175 C 
ATOM     13  C   UNL     1      17.397  -3.092  24.748  0.00  0.00    +0.044 C 
ATOM     14  C   UNL     1      16.209  -2.949  22.521  0.00  0.00    +0.044 C 
ATOM     15  C   UNL     1      17.315  -1.575  24.888  0.00  0.00    +0.004 C 
ATOM     16  C   UNL     1      16.126  -1.433  22.661  0.00  0.00    +0.004 C 
ATOM     17  C   UNL     1      16.121  -1.004  24.127  0.00  0.00    +0.000 C 
ENDBRANCH   1  11
ENDBRANCH  23   1
ENDBRANCH  20  24
BRANCH  18   7
ATOM      3  N   UNL     1      14.793  -9.403  31.731  0.00  0.00    -0.287 NA
ATOM      7  C   UNL     1      15.922  -8.648  31.152  0.00  0.00    +0.146 C 
ATOM      8  C   UNL     1      17.144  -9.565  31.343  0.00  0.00    +0.030 C 
ATOM      9  C   UNL     1      16.615 -10.781  32.091  0.00  0.00    +0.017 C 
ATOM     10  C   UNL     1      15.361 -10.267  32.767  0.00  0.00    +0.085 C 
BRANCH   3  12
ATOM     12  C   UNL     1      13.737  -8.544  32.253  0.00  0.00    +0.120 C 
BRANCH  12  19
ATOM     19  C   UNL     1      12.369  -9.121  31.999  0.00  0.00    -0.033 A 
ATOM     21  C   UNL     1      11.273  -8.667  32.733  0.00  0.00    +0.005 A 
ATOM     22  C   UNL     1      12.198 -10.111  31.031  0.00  0.00    +0.005 A 
ATOM     25  C   UNL     1      10.007  -9.203  32.499  0.00  0.00    +0.003 A 
ATOM     26  C   UNL     1      10.932 -10.647  30.797  0.00  0.00    +0.003 A 
ATOM     27  C   UNL     1       9.835 -10.193  31.531  0.00  0.00    -0.050 A 
ATOM     31  C   UNL     1       8.482 -10.766  31.282  0.00  0.00    +0.044 C 
ENDBRANCH  12  19
ENDBRANCH   3  12
ENDBRANCH  18   7
TORSDOF 6
ENDMDL
MODEL 3
REMARK VINA RESULT:      -1.5     25.330     26.690
REMARK  Name = 45783589
REMARK  7 active torsions:
REMARK  status: ('A' for Active; 'I' for Inactive)
REMARK    1  A    between atoms: O_1  and  C_11
REMARK    2  A    between atoms: O_1  and  C_23
REMARK    3  A    between atoms: N_3  and  C_12
REMARK    4  A    between atoms: C_7  and  C_18
REMARK    5  A    between atoms: C_12  and  C_19
REMARK    6  A    between atoms: C_20  and  C_24
REMARK    7  A    between atoms: C_27  and  C_31
REMARK                            x       y       z     vdW  Elec       q    Type
REMARK                         _______ _______ _______ _____ _____    ______ ____
ROOT
ATOM      2  O   UNL     1      -7.209 -10.455  12.452  0.00  0.00    -0.336 OA
ATOM      4  N   UNL     1      -6.173  -9.776  10.586  0.00  0.00    -0.190 NA
ATOM      5  N   UNL     1      -5.841 -10.448  12.748  0.00  0.00    -0.056 NA
ATOM     18  C   UNL     1      -7.317 -10.047  11.161  0.00  0.00    +0.245 A 
ATOM     20  C   UNL     1      -5.296 -10.037  11.598  0.00  0.00    +0.204 A 
ENDROOT
BRANCH  20  24
ATOM      6  N   UNL     1      -1.642 -10.336  12.216  0.00  0.00    -0.221 NA
ATOM     23  C   UNL     1      -1.178  -9.614  11.170  0.00  0.00    +0.215 A 
ATOM     24  C   UNL     1      -3.882  -9.878  11.429  0.00  0.00    +0.041 A 
ATOM     28  C   UNL     1      -1.989  -9.005  10.227  0.00  0.00    +0.068 A 
ATOM     29  C   UNL     1      -3.367  -9.144  10.366  0.00  0.00    +0.018 A 
ATOM     30  C   UNL     1      -2.986 -10.448  12.318  0.00  0.00    +0.126 A 
BRANCH  23   1
ATOM      1  O   UNL     1       0.181  -9.493  11.056  0.00  0.00    -0.473 OA
BRANCH   1  11
ATOM     11  C   UNL     1       0.804  -8.495  11.859  0.00  0.00    +0.175 C 
ATOM     13  C   UNL     1      -0.185  -7.362  12.128  0.00  0.00    +0.044 C 
ATOM     14  C   UNL     1       2.065  -7.988  11.159  0.00  0.00    +0.044 C 
ATOM     15  C   UNL     1       0.468  -6.222  12.904  0.00  0.00    +0.004 C 
ATOM     16  C   UNL     1       2.717  -6.848  11.935  0.00  0.00    +0.004 C 
ATOM     17  C   UNL     1       1.729  -5.716  12.207  0.00  0.00    +0.000 C 
ENDBRANCH   1  11
ENDBRANCH  23   1
ENDBRANCH  20  24
BRANCH  18   7
ATOM      3  N   UNL     1      -9.687  -9.392  11.547  0.00  0.00    -0.287 NA
ATOM      7  C   UNL     1      -8.719  -9.968  10.592  0.00  0.00    +0.146 C 
ATOM      8  C   UNL     1      -8.808  -9.064   9.350  0.00  0.00    +0.030 C 
ATOM      9  C   UNL     1      -9.893  -8.047   9.676  0.00  0.00    +0.017 C 
ATOM     10  C   UNL     1     -10.719  -8.736  10.743  0.00  0.00    +0.085 C 
BRANCH   3  12
ATOM     12  C   UNL     1     -10.250 -10.378  12.461  0.00  0.00    +0.120 C 
BRANCH  12  19
ATOM     19  C   UNL     1     -10.286  -9.871  13.878  0.00  0.00    -0.033 A 
ATOM     21  C   UNL     1     -10.381 -10.773  14.939  0.00  0.00    +0.005 A 
ATOM     22  C   UNL     1     -10.227  -8.501  14.132  0.00  0.00    +0.005 A 
ATOM     25  C   UNL     1     -10.417 -10.304  16.252  0.00  0.00    +0.003 A 
ATOM     26  C   UNL     1     -10.264  -8.032  15.445  0.00  0.00    +0.003 A 
ATOM     27  C   UNL     1     -10.358  -8.933  16.505  0.00  0.00    -0.050 A 
ATOM     31  C   UNL     1     -10.398  -8.432  17.909  0.00  0.00    +0.044 C 
ENDBRANCH  12  19
ENDBRANCH   3  12
ENDBRANCH  18   7
TORSDOF 6
ENDMDL
MODEL 4
REMARK VINA RESULT:      -0.6     17.118     19.251
REMARK  Name = 45783589
REMARK  7 active torsions:
REMARK  status: ('A' for Active; 'I' for Inactive)
REMARK    1  A    between atoms: O_1  and  C_11
REMARK    2  A    between atoms: O_1  and  C_23
REMARK    3  A    between atoms: N_3  and  C_12
REMARK    4  A    between atoms: C_7  and  C_18
REMARK    5  A    between atoms: C_12  and  C_19
REMARK    6  A    between atoms: C_20  and  C_24
REMARK    7  A    between atoms: C_27  and  C_31
REMARK                            x       y       z     vdW  Elec       q    Type
REMARK                         _______ _______ _______ _____ _____    ______ ____
ROOT
ATOM      2  O   UNL     1      -2.361   2.867  25.638  0.00  0.00    -0.336 OA
ATOM      4  N   UNL     1      -2.375   1.884  23.625  0.00  0.00    -0.190 NA
ATOM      5  N   UNL     1      -1.054   2.418  25.415  0.00  0.00    -0.056 NA
ATOM     18  C   UNL     1      -3.073   2.513  24.536  0.00  0.00    +0.245 A 
ATOM     20  C   UNL     1      -1.142   1.849  24.208  0.00  0.00    +0.204 A 
ENDROOT
BRANCH  20  24
ATOM      6  N   UNL     1       2.356   1.230  23.112  0.00  0.00    -0.221 NA
ATOM     23  C   UNL     1       2.161   0.128  22.352  0.00  0.00    +0.215 A 
ATOM     24  C   UNL     1      -0.021   1.238  23.560  0.00  0.00    +0.041 A 
ATOM     28  C   UNL     1       0.927  -0.468  22.152  0.00  0.00    +0.068 A 
ATOM     29  C   UNL     1      -0.180   0.104  22.771  0.00  0.00    +0.018 A 
ATOM     30  C   UNL     1       1.256   1.758  23.696  0.00  0.00    +0.126 A 
BRANCH  23   1
ATOM      1  O   UNL     1       3.266  -0.415  21.754  0.00  0.00    -0.473 OA
BRANCH   1  11
ATOM     11  C   UNL     1       4.465  -0.439  22.523  0.00  0.00    +0.175 C 
ATOM     13  C   UNL     1       4.338  -1.477  23.638  0.00  0.00    +0.044 C 
ATOM     14  C   UNL     1       4.743   0.956  23.082  0.00  0.00    +0.044 C 
ATOM     15  C   UNL     1       5.560  -1.471  24.550  0.00  0.00    +0.004 C 
ATOM     16  C   UNL     1       5.965   0.961  23.995  0.00  0.00    +0.004 C 
ATOM     17  C   UNL     1       5.840  -0.077  25.107  0.00  0.00    +0.000 C 
ENDBRANCH   1  11
ENDBRANCH  23   1
ENDBRANCH  20  24
BRANCH  18   7
ATOM      3  N   UNL     1      -5.315   2.176  25.563  0.00  0.00    -0.287 NA
ATOM      7  C   UNL     1      -4.540   2.892  24.531  0.00  0.00    +0.146 C 
ATOM      8  C   UNL     1      -4.771   4.384  24.833  0.00  0.00    +0.030 C 
ATOM      9  C   UNL     1      -5.735   4.406  26.010  0.00  0.00    +0.017 C 
ATOM     10  C   UNL     1      -6.422   3.058  25.935  0.00  0.00    +0.085 C 
BRANCH   3  12
ATOM     12  C   UNL     1      -5.783   0.867  25.125  0.00  0.00    +0.120 C 
BRANCH  12  19
ATOM     19  C   UNL     1      -4.652  -0.120  25.003  0.00  0.00    -0.033 A 
ATOM     21  C   UNL     1      -3.755  -0.286  26.059  0.00  0.00    +0.005 A 
ATOM     22  C   UNL     1      -4.499  -0.867  23.835  0.00  0.00    +0.005 A 
ATOM     25  C   UNL     1      -2.706  -1.198  25.946  0.00  0.00    +0.003 A 
ATOM     26  C   UNL     1      -3.450  -1.778  23.722  0.00  0.00    +0.003 A 
ATOM     27  C   UNL     1      -2.553  -1.945  24.778  0.00  0.00    -0.050 A 
ATOM     31  C   UNL     1      -1.430  -2.919  24.656  0.00  0.00    +0.044 C 
ENDBRANCH  12  19
ENDBRANCH   3  12
ENDBRANCH  18   7
TORSDOF 6
ENDMDL
MODEL 5
REMARK VINA RESULT:       0.9     22.617     24.095
REMARK  Name = 45783589
REMARK  7 active torsions:
REMARK  status: ('A' for Active; 'I' for Inactive)
REMARK    1  A    between atoms: O_1  and  C_11
REMARK    2  A    between atoms: O_1  and  C_23
REMARK    3  A    between atoms: N_3  and  C_12
REMARK    4  A    between atoms: C_7  and  C_18
REMARK    5  A    between atoms: C_12  and  C_19
REMARK    6  A    between atoms: C_20  and  C_24
REMARK    7  A    between atoms: C_27  and  C_31
REMARK                            x       y       z     vdW  Elec       q    Type
REMARK                         _______ _______ _______ _____ _____    ______ ____
ROOT
ATOM      2  O   UNL     1      -3.473 -10.778  12.730  0.00  0.00    -0.336 OA
ATOM      4  N   UNL     1      -2.945  -9.311  11.122  0.00  0.00    -0.190 NA
ATOM      5  N   UNL     1      -2.149 -10.393  12.974  0.00  0.00    -0.056 NA
ATOM     18  C   UNL     1      -3.865 -10.095  11.624  0.00  0.00    +0.245 A 
ATOM     20  C   UNL     1      -1.909  -9.527  11.984  0.00  0.00    +0.204 A 
ENDROOT
BRANCH  20  24
ATOM      6  N   UNL     1       1.408  -8.602  10.583  0.00  0.00    -0.221 NA
ATOM     23  C   UNL     1       1.766  -7.646  11.469  0.00  0.00    +0.215 A 
ATOM     24  C   UNL     1      -0.649  -8.864  11.827  0.00  0.00    +0.041 A 
ATOM     28  C   UNL     1       0.985  -7.249  12.541  0.00  0.00    +0.068 A 
ATOM     29  C   UNL     1      -0.245  -7.875  12.717  0.00  0.00    +0.018 A 
ATOM     30  C   UNL     1       0.206  -9.189  10.787  0.00  0.00    +0.126 A 
BRANCH  23   1
ATOM      1  O   UNL     1       2.982  -7.045  11.274  0.00  0.00    -0.473 OA
BRANCH   1  11
ATOM     11  C   UNL     1       3.810  -6.888  12.422  0.00  0.00    +0.175 C 
ATOM     13  C   UNL     1       4.076  -5.403  12.664  0.00  0.00    +0.044 C 
ATOM     14  C   UNL     1       5.109  -7.668  12.227  0.00  0.00    +0.044 C 
ATOM     15  C   UNL     1       5.039  -5.188  13.827  0.00  0.00    +0.004 C 
ATOM     16  C   UNL     1       6.073  -7.454  13.389  0.00  0.00    +0.004 C 
ATOM     17  C   UNL     1       6.337  -5.970  13.633  0.00  0.00    +0.000 C 
ENDBRANCH   1  11
ENDBRANCH  23   1
ENDBRANCH  20  24
BRANCH  18   7
ATOM      3  N   UNL     1      -6.295  -9.831  12.093  0.00  0.00    -0.287 NA
ATOM      7  C   UNL     1      -5.282 -10.340  11.147  0.00  0.00    +0.146 C 
ATOM      8  C   UNL     1      -5.594  -9.628   9.818  0.00  0.00    +0.030 C 
ATOM      9  C   UNL     1      -6.833  -8.789  10.099  0.00  0.00    +0.017 C 
ATOM     10  C   UNL     1      -7.467  -9.475  11.292  0.00  0.00    +0.085 C 
BRANCH   3  12
ATOM     12  C   UNL     1      -6.622 -10.781  13.149  0.00  0.00    +0.120 C 
BRANCH  12  19
ATOM     19  C   UNL     1      -7.407 -10.135  14.260  0.00  0.00    -0.033 A 
ATOM     21  C   UNL     1      -6.822  -9.956  15.515  0.00  0.00    +0.005 A 
ATOM     22  C   UNL     1      -8.719  -9.717  14.037  0.00  0.00    +0.005 A 
ATOM     25  C   UNL     1      -7.549  -9.360  16.544  0.00  0.00    +0.003 A 
ATOM     26  C   UNL     1      -9.446  -9.121  15.067  0.00  0.00    +0.003 A 
ATOM     27  C   UNL     1      -8.861  -8.942  16.321  0.00  0.00    -0.050 A 
ATOM     31  C   UNL     1      -9.639  -8.305  17.423  0.00  0.00    +0.044 C 
ENDBRANCH  12  19
ENDBRANCH   3  12
ENDBRANCH  18   7
TORSDOF 6
ENDMDL
