MODEL 1
REMARK VINA RESULT:      -2.8      0.000      0.000
REMARK  Name = 75536263
REMARK  7 active torsions:
REMARK  status: ('A' for Active; 'I' for Inactive)
REMARK    1  A    between atoms: O_3  and  C_9
REMARK    2  A    between atoms: N_6  and  C_13
REMARK    3  A    between atoms: N_6  and  C_14
REMARK    4  A    between atoms: C_8  and  C_13
REMARK    5  A    between atoms: C_10  and  C_15
REMARK    6  A    between atoms: C_15  and  C_20
REMARK    7  A    between atoms: C_22  and  C_23
REMARK                            x       y       z     vdW  Elec       q    Type
REMARK                         _______ _______ _______ _____ _____    ______ ____
ROOT
ATOM      2  O   UNL     1      -4.117   2.266  23.842  0.00  0.00    -0.369 OA
ATOM      8  C   UNL     1      -4.819   3.000  24.853  0.00  0.00    +0.161 C 
ATOM      9  C   UNL     1      -5.879   2.129  25.540  0.00  0.00    +0.145 C 
ATOM     10  C   UNL     1      -3.501   1.055  24.286  0.00  0.00    +0.125 C 
ATOM     11  C   UNL     1      -5.318   0.785  25.998  0.00  0.00    +0.036 C 
ATOM     12  C   UNL     1      -4.543   0.105  24.874  0.00  0.00    +0.034 C 
ENDROOT
BRANCH   9   3
ATOM      3  O   UNL     1      -6.934   1.867  24.612  0.00  0.00    -0.389 OA
ATOM     30  H   UNL     1      -7.056   2.666  24.072  0.00  0.00    +0.210 HD
ENDBRANCH   9   3
BRANCH   8  13
ATOM     13  C   UNL     1      -3.849   3.647  25.838  0.00  0.00    +0.115 C 
BRANCH  13   6
ATOM      6  N   UNL     1      -2.968   4.584  25.158  0.00  0.00    -0.311 NA
ATOM     29  H   UNL     1      -3.160   4.548  24.156  0.00  0.00    +0.122 HD
BRANCH   6  14
ATOM      4  O   UNL     1       0.534   2.270  25.303  0.00  0.00    -0.380 OA
ATOM     14  C   UNL     1      -1.565   4.240  25.382  0.00  0.00    +0.058 C 
ATOM     16  C   UNL     1      -1.451   3.119  26.420  0.00  0.00    +0.047 C 
ATOM     17  C   UNL     1      -0.885   3.815  24.076  0.00  0.00    +0.047 C 
ATOM     18  C   UNL     1       0.001   2.676  26.565  0.00  0.00    +0.161 C 
ATOM     19  C   UNL     1       0.535   3.333  24.350  0.00  0.00    +0.161 C 
ENDBRANCH   6  14
ENDBRANCH  13   6
ENDBRANCH   8  13
BRANCH  10  15
ATOM     15  C   UNL     1      -2.809   0.425  23.083  0.00  0.00    +0.090 C 
BRANCH  15  20
ATOM      5  O   UNL     1       0.264  -0.946  24.376  0.00  0.00    -0.354 OA
ATOM      7  N   UNL     1      -1.122  -0.836  24.356  0.00  0.00    -0.083 NA
ATOM     20  C   UNL     1      -1.384   0.052  23.393  0.00  0.00    +0.087 A 
ATOM     21  C   UNL     1      -0.216   0.531  22.777  0.00  0.00    +0.076 A 
ATOM     22  C   UNL     1       0.791  -0.127  23.431  0.00  0.00    +0.167 A 
BRANCH  22  23
ATOM      1  F   UNL     1       6.341  -0.150  23.046  0.00  0.00    -0.205 F 
ATOM     23  C   UNL     1       2.222  -0.134  23.331  0.00  0.00    +0.020 A 
ATOM     24  C   UNL     1       2.946  -1.246  23.758  0.00  0.00    +0.014 A 
ATOM     25  C   UNL     1       2.889   0.974  22.807  0.00  0.00    +0.014 A 
ATOM     26  C   UNL     1       4.337  -1.252  23.662  0.00  0.00    +0.039 A 
ATOM     27  C   UNL     1       4.281   0.968  22.711  0.00  0.00    +0.039 A 
ATOM     28  C   UNL     1       5.005  -0.145  23.138  0.00  0.00    +0.123 A 
ENDBRANCH  22  23
ENDBRANCH  15  20
ENDBRANCH  10  15
TORSDOF 7
ENDMDL
MODEL 2
REMARK VINA RESULT:      -1.9      1.890      3.860
REMARK  Name = 75536263
REMARK  7 active torsions:
REMARK  status: ('A' for Active; 'I' for Inactive)
REMARK    1  A    between atoms: O_3  and  C_9
REMARK    2  A    between atoms: N_6  and  C_13
REMARK    3  A    between atoms: N_6  and  C_14
REMARK    4  A    between atoms: C_8  and  C_13
REMARK    5  A    between atoms: C_10  and  C_15
REMARK    6  A    between atoms: C_15  and  C_20
REMARK    7  A    between atoms: C_22  and  C_23
REMARK                            x       y       z     vdW  Elec       q    Type
REMARK                         _______ _______ _______ _____ _____    ______ ____
ROOT
ATOM      2  O   UNL     1      -3.865   2.223  25.839  0.00  0.00    -0.369 OA
ATOM      8  C   UNL     1      -5.028   1.475  25.463  0.00  0.00    +0.161 C 
ATOM      9  C   UNL     1      -6.316   2.233  25.813  0.00  0.00    +0.145 C 
ATOM     10  C   UNL     1      -3.786   3.542  25.294  0.00  0.00    +0.125 C 
ATOM     11  C   UNL     1      -6.294   3.675  25.315  0.00  0.00    +0.036 C 
ATOM     12  C   UNL     1      -4.998   4.372  25.717  0.00  0.00    +0.034 C 
ENDROOT
BRANCH   9   3
ATOM      3  O   UNL     1      -6.460   2.264  27.234  0.00  0.00    -0.389 OA
ATOM     30  H   UNL     1      -5.606   2.536  27.611  0.00  0.00    +0.210 HD
ENDBRANCH   9   3
BRANCH   8  13
ATOM     13  C   UNL     1      -4.962   1.056  23.996  0.00  0.00    +0.115 C 
BRANCH  13   6
ATOM      6  N   UNL     1      -3.582   0.901  23.563  0.00  0.00    -0.311 NA
ATOM     29  H   UNL     1      -3.509   1.191  22.588  0.00  0.00    +0.122 HD
BRANCH   6  14
ATOM      4  O   UNL     1      -2.934  -2.885  25.262  0.00  0.00    -0.380 OA
ATOM     14  C   UNL     1      -3.153  -0.491  23.675  0.00  0.00    +0.058 C 
ATOM     16  C   UNL     1      -2.121  -0.642  24.797  0.00  0.00    +0.047 C 
ATOM     17  C   UNL     1      -4.345  -1.418  23.933  0.00  0.00    +0.047 C 
ATOM     18  C   UNL     1      -1.763  -2.111  24.996  0.00  0.00    +0.161 C 
ATOM     19  C   UNL     1      -3.865  -2.844  24.180  0.00  0.00    +0.161 C 
ENDBRANCH   6  14
ENDBRANCH  13   6
ENDBRANCH   8  13
BRANCH  10  15
ATOM     15  C   UNL     1      -2.494   4.171  25.800  0.00  0.00    +0.090 C 
BRANCH  15  20
ATOM      5  O   UNL     1       0.476   2.128  25.812  0.00  0.00    -0.354 OA
ATOM      7  N   UNL     1      -0.515   2.861  26.454  0.00  0.00    -0.083 NA
ATOM     20  C   UNL     1      -1.295   3.322  25.472  0.00  0.00    +0.087 A 
ATOM     21  C   UNL     1      -0.850   2.916  24.202  0.00  0.00    +0.076 A 
ATOM     22  C   UNL     1       0.265   2.168  24.472  0.00  0.00    +0.167 A 
BRANCH  22  23
ATOM      1  F   UNL     1       3.945  -0.616  21.364  0.00  0.00    -0.205 F 
ATOM     23  C   UNL     1       1.214   1.450  23.672  0.00  0.00    +0.020 A 
ATOM     24  C   UNL     1       2.524   1.916  23.556  0.00  0.00    +0.014 A 
ATOM     25  C   UNL     1       0.827   0.286  23.008  0.00  0.00    +0.014 A 
ATOM     26  C   UNL     1       3.446   1.218  22.777  0.00  0.00    +0.039 A 
ATOM     27  C   UNL     1       1.749  -0.412  22.228  0.00  0.00    +0.039 A 
ATOM     28  C   UNL     1       3.059   0.055  22.114  0.00  0.00    +0.123 A 
ENDBRANCH  22  23
ENDBRANCH  15  20
ENDBRANCH  10  15
TORSDOF 7
ENDMDL
MODEL 3
REMARK VINA RESULT:       0.2      3.376      7.514
REMARK  Name = 75536263
REMARK  7 active torsions:
REMARK  status: ('A' for Active; 'I' for Inactive)
REMARK    1  A    between atoms: O_3  and  C_9
REMARK    2  A    between atoms: N_6  and  C_13
REMARK    3  A    between atoms: N_6  and  C_14
REMARK    4  A    between atoms: C_8  and  C_13
REMARK    5  A    between atoms: C_10  and  C_15
REMARK    6  A    between atoms: C_15  and  C_20
REMARK    7  A    between atoms: C_22  and  C_23
REMARK                            x       y       z     vdW  Elec       q    Type
REMARK                         _______ _______ _______ _____ _____    ______ ____
ROOT
ATOM      2  O   UNL     1       0.484   0.963  23.258  0.00  0.00    -0.369 OA
ATOM      8  C   UNL     1       0.618  -0.440  22.996  0.00  0.00    +0.161 C 
ATOM      9  C   UNL     1       1.823  -0.726  22.091  0.00  0.00    +0.145 C 
ATOM     10  C   UNL     1       1.639   1.591  23.817  0.00  0.00    +0.125 C 
ATOM     11  C   UNL     1       3.095  -0.043  22.585  0.00  0.00    +0.036 C 
ATOM     12  C   UNL     1       2.842   1.431  22.888  0.00  0.00    +0.034 C 
ENDROOT
BRANCH   9   3
ATOM      3  O   UNL     1       1.543  -0.230  20.780  0.00  0.00    -0.389 OA
ATOM     30  H   UNL     1       0.721   0.287  20.830  0.00  0.00    +0.210 HD
ENDBRANCH   9   3
BRANCH   8  13
ATOM     13  C   UNL     1       0.644  -1.242  24.295  0.00  0.00    +0.115 C 
BRANCH  13   6
ATOM      6  N   UNL     1      -0.229  -0.642  25.293  0.00  0.00    -0.311 NA
ATOM     29  H   UNL     1       0.283  -0.563  26.172  0.00  0.00    +0.122 HD
BRANCH   6  14
ATOM      4  O   UNL     1      -4.140  -2.093  24.810  0.00  0.00    -0.380 OA
ATOM     14  C   UNL     1      -1.418  -1.463  25.510  0.00  0.00    +0.058 C 
ATOM     16  C   UNL     1      -2.600  -0.586  25.934  0.00  0.00    +0.047 C 
ATOM     17  C   UNL     1      -1.780  -2.254  24.248  0.00  0.00    +0.047 C 
ATOM     18  C   UNL     1      -3.870  -1.422  26.042  0.00  0.00    +0.161 C 
ATOM     19  C   UNL     1      -3.096  -2.998  24.448  0.00  0.00    +0.161 C 
ENDBRANCH   6  14
ENDBRANCH  13   6
ENDBRANCH   8  13
BRANCH  10  15
ATOM     15  C   UNL     1       1.306   3.064  24.024  0.00  0.00    +0.090 C 
BRANCH  15  20
ATOM      5  O   UNL     1      -1.919   4.268  25.094  0.00  0.00    -0.354 OA
ATOM      7  N   UNL     1      -0.552   4.423  24.895  0.00  0.00    -0.083 NA
ATOM     20  C   UNL     1      -0.145   3.262  24.376  0.00  0.00    +0.087 A 
ATOM     21  C   UNL     1      -1.199   2.345  24.226  0.00  0.00    +0.076 A 
ATOM     22  C   UNL     1      -2.292   3.026  24.692  0.00  0.00    +0.167 A 
BRANCH  22  23
ATOM      1  F   UNL     1      -7.695   1.828  25.255  0.00  0.00    -0.205 F 
ATOM     23  C   UNL     1      -3.684   2.718  24.836  0.00  0.00    +0.020 A 
ATOM     24  C   UNL     1      -4.508   3.549  25.596  0.00  0.00    +0.014 A 
ATOM     25  C   UNL     1      -4.216   1.587  24.217  0.00  0.00    +0.014 A 
ATOM     26  C   UNL     1      -5.862   3.248  25.738  0.00  0.00    +0.039 A 
ATOM     27  C   UNL     1      -5.571   1.286  24.359  0.00  0.00    +0.039 A 
ATOM     28  C   UNL     1      -6.394   2.118  25.119  0.00  0.00    +0.123 A 
ENDBRANCH  22  23
ENDBRANCH  15  20
ENDBRANCH  10  15
TORSDOF 7
ENDMDL
MODEL 4
REMARK VINA RESULT:       0.6      1.742      3.235
REMARK  Name = 75536263
REMARK  7 active torsions:
REMARK  status: ('A' for Active; 'I' for Inactive)
REMARK    1  A    between atoms: O_3  and  C_9
REMARK    2  A    between atoms: N_6  and  C_13
REMARK    3  A    between atoms: N_6  and  C_14
REMARK    4  A    between atoms: C_8  and  C_13
REMARK    5  A    between atoms: C_10  and  C_15
REMARK    6  A    between atoms: C_15  and  C_20
REMARK    7  A    between atoms: C_22  and  C_23
REMARK                            x       y       z     vdW  Elec       q    Type
REMARK                         _______ _______ _______ _____ _____    ______ ____
ROOT
ATOM      2  O   UNL     1      -3.631   1.823  25.580  0.00  0.00    -0.369 OA
ATOM      8  C   UNL     1      -4.890   1.137  25.618  0.00  0.00    +0.161 C 
ATOM      9  C   UNL     1      -6.063   2.117  25.477  0.00  0.00    +0.145 C 
ATOM     10  C   UNL     1      -3.416   2.638  24.426  0.00  0.00    +0.125 C 
ATOM     11  C   UNL     1      -5.887   3.068  24.296  0.00  0.00    +0.036 C 
ATOM     12  C   UNL     1      -4.502   3.707  24.311  0.00  0.00    +0.034 C 
ENDROOT
BRANCH   9   3
ATOM      3  O   UNL     1      -6.148   2.908  26.665  0.00  0.00    -0.389 OA
ATOM     30  H   UNL     1      -5.260   2.940  27.061  0.00  0.00    +0.210 HD
ENDBRANCH   9   3
BRANCH   8  13
ATOM     13  C   UNL     1      -4.931   0.006  24.593  0.00  0.00    +0.115 C 
BRANCH  13   6
ATOM      6  N   UNL     1      -3.622  -0.196  23.991  0.00  0.00    -0.311 NA
ATOM     29  H   UNL     1      -3.745  -0.613  23.068  0.00  0.00    +0.122 HD
BRANCH   6  14
ATOM      4  O   UNL     1      -0.261  -2.355  25.286  0.00  0.00    -0.380 OA
ATOM     14  C   UNL     1      -2.804  -1.090  24.808  0.00  0.00    +0.058 C 
ATOM     16  C   UNL     1      -2.301  -2.268  23.968  0.00  0.00    +0.047 C 
ATOM     17  C   UNL     1      -1.616  -0.342  25.424  0.00  0.00    +0.047 C 
ATOM     18  C   UNL     1      -1.348  -3.134  24.784  0.00  0.00    +0.161 C 
ATOM     19  C   UNL     1      -0.701  -1.314  26.160  0.00  0.00    +0.161 C 
ENDBRANCH   6  14
ENDBRANCH  13   6
ENDBRANCH   8  13
BRANCH  10  15
ATOM     15  C   UNL     1      -2.038   3.275  24.565  0.00  0.00    +0.090 C 
BRANCH  15  20
ATOM      5  O   UNL     1      -0.037   0.845  22.809  0.00  0.00    -0.354 OA
ATOM      7  N   UNL     1      -1.242   1.485  23.075  0.00  0.00    -0.083 NA
ATOM     20  C   UNL     1      -0.955   2.382  24.022  0.00  0.00    +0.087 A 
ATOM     21  C   UNL     1       0.402   2.355  24.390  0.00  0.00    +0.076 A 
ATOM     22  C   UNL     1       0.934   1.372  23.598  0.00  0.00    +0.167 A 
BRANCH  22  23
ATOM      1  F   UNL     1       6.011  -0.811  22.966  0.00  0.00    -0.205 F 
ATOM     23  C   UNL     1       2.242   0.809  23.435  0.00  0.00    +0.020 A 
ATOM     24  C   UNL     1       2.449  -0.552  23.658  0.00  0.00    +0.014 A 
ATOM     25  C   UNL     1       3.309   1.623  23.053  0.00  0.00    +0.014 A 
ATOM     26  C   UNL     1       3.722  -1.099  23.500  0.00  0.00    +0.039 A 
ATOM     27  C   UNL     1       4.582   1.076  22.895  0.00  0.00    +0.039 A 
ATOM     28  C   UNL     1       4.788  -0.286  23.118  0.00  0.00    +0.123 A 
ENDBRANCH  22  23
ENDBRANCH  15  20
ENDBRANCH  10  15
TORSDOF 7
ENDMDL
