MODEL 1
REMARK VINA RESULT:       2.0      0.000      0.000
REMARK  Name = 11884086
REMARK  8 active torsions:
REMARK  status: ('A' for Active; 'I' for Inactive)
REMARK    1  A    between atoms: O_3  and  C_12
REMARK    2  A    between atoms: O_3  and  C_16
REMARK    3  A    between atoms: N_7  and  C_11
REMARK    4  A    between atoms: N_8  and  C_18
REMARK    5  A    between atoms: C_15  and  C_17
REMARK    6  A    between atoms: C_20  and  C_21
REMARK    7  A    between atoms: C_20  and  C_28
REMARK    8  A    between atoms: C_20  and  C_29
REMARK                            x       y       z     vdW  Elec       q    Type
REMARK                         _______ _______ _______ _____ _____    ______ ____
ROOT
ATOM      1  O   UNL     1      -0.812   1.571  24.940  0.00  0.00    -0.368 OA
ATOM      2  O   UNL     1      -0.435   4.251  23.498  0.00  0.00    -0.368 OA
ATOM      9  C   UNL     1       0.510   3.368  24.137  0.00  0.00    +0.173 C 
ATOM     10  C   UNL     1      -0.181   2.793  25.357  0.00  0.00    +0.192 C 
ATOM     11  C   UNL     1       0.767   2.162  23.264  0.00  0.00    +0.130 C 
ATOM     12  C   UNL     1      -1.195   3.861  25.691  0.00  0.00    +0.235 C 
ATOM     13  C   UNL     1      -0.416   1.269  23.593  0.00  0.00    +0.185 C 
ATOM     14  C   UNL     1      -1.606   4.350  24.321  0.00  0.00    +0.207 C 
ENDROOT
BRANCH  11   7
ATOM      4  O   UNL     1       1.977   0.041  21.851  0.00  0.00    -0.267 OA
ATOM      7  N   UNL     1       2.016   1.526  23.604  0.00  0.00    -0.301 N 
ATOM     15  C   UNL     1       2.548   0.479  22.851  0.00  0.00    +0.280 C 
ATOM     30  H   UNL     1       2.548   1.887  24.392  0.00  0.00    +0.150 HD
BRANCH  15  17
ATOM      6  O   UNL     1       3.873  -1.336  23.646  0.00  0.00    -0.458 OA
ATOM     17  C   UNL     1       3.845  -0.043  23.306  0.00  0.00    +0.189 A 
ATOM     19  C   UNL     1       5.030   0.580  23.436  0.00  0.00    +0.054 A 
ATOM     24  C   UNL     1       5.910  -0.422  23.910  0.00  0.00    +0.042 A 
ATOM     25  C   UNL     1       5.158  -1.569  24.022  0.00  0.00    +0.196 A 
ENDBRANCH  15  17
ENDBRANCH  11   7
BRANCH  12   3
ATOM      3  O   UNL     1      -2.292   3.381  26.435  0.00  0.00    -0.442 OA
BRANCH   3  16
ATOM      5  O   UNL     1      -4.191   2.731  25.340  0.00  0.00    -0.226 OA
ATOM      8  N   UNL     1      -2.488   1.211  25.855  0.00  0.00    -0.251 N 
ATOM     16  C   UNL     1      -3.102   2.447  25.822  0.00  0.00    +0.405 C 
ATOM     31  H   UNL     1      -1.575   1.174  26.304  0.00  0.00    +0.158 HD
BRANCH   8  18
ATOM     18  C   UNL     1      -2.970  -0.015  25.343  0.00  0.00    +0.036 A 
ATOM     21  C   UNL     1      -3.916  -2.419  24.337  0.00  0.00    -0.045 A 
ATOM     22  C   UNL     1      -2.499  -1.206  25.873  0.00  0.00    +0.024 A 
ATOM     23  C   UNL     1      -3.905  -0.003  24.320  0.00  0.00    +0.024 A 
ATOM     26  C   UNL     1      -2.976  -2.416  25.367  0.00  0.00    +0.006 A 
ATOM     27  C   UNL     1      -4.381  -1.212  23.813  0.00  0.00    +0.006 A 
BRANCH  21  20
ATOM     20  C   UNL     1      -4.426  -3.711  23.796  0.00  0.00    +0.013 C 
ATOM     28  C   UNL     1      -5.653  -3.525  22.883  0.00  0.00    +0.012 C 
ATOM     29  C   UNL     1      -3.337  -4.509  23.052  0.00  0.00    +0.012 C 
ENDBRANCH  21  20
ENDBRANCH   8  18
ENDBRANCH   3  16
ENDBRANCH  12   3
TORSDOF 6
ENDMDL
MODEL 2
REMARK VINA RESULT:       2.2      2.188      5.613
REMARK  Name = 11884086
REMARK  8 active torsions:
REMARK  status: ('A' for Active; 'I' for Inactive)
REMARK    1  A    between atoms: O_3  and  C_12
REMARK    2  A    between atoms: O_3  and  C_16
REMARK    3  A    between atoms: N_7  and  C_11
REMARK    4  A    between atoms: N_8  and  C_18
REMARK    5  A    between atoms: C_15  and  C_17
REMARK    6  A    between atoms: C_20  and  C_21
REMARK    7  A    between atoms: C_20  and  C_28
REMARK    8  A    between atoms: C_20  and  C_29
REMARK                            x       y       z     vdW  Elec       q    Type
REMARK                         _______ _______ _______ _____ _____    ______ ____
ROOT
ATOM      1  O   UNL     1      -2.619  -0.617  25.498  0.00  0.00    -0.368 OA
ATOM      2  O   UNL     1      -2.502  -3.525  24.529  0.00  0.00    -0.368 OA
ATOM      9  C   UNL     1      -1.697  -2.374  24.198  0.00  0.00    +0.173 C 
ATOM     10  C   UNL     1      -2.629  -1.179  24.174  0.00  0.00    +0.192 C 
ATOM     11  C   UNL     1      -0.742  -2.066  25.328  0.00  0.00    +0.130 C 
ATOM     12  C   UNL     1      -3.960  -1.810  23.844  0.00  0.00    +0.235 C 
ATOM     13  C   UNL     1      -1.619  -1.281  26.287  0.00  0.00    +0.185 C 
ATOM     14  C   UNL     1      -3.880  -3.128  24.579  0.00  0.00    +0.207 C 
ENDROOT
BRANCH  11   7
ATOM      4  O   UNL     1      -0.433  -0.998  22.735  0.00  0.00    -0.267 OA
ATOM      7  N   UNL     1       0.374  -1.275  24.868  0.00  0.00    -0.301 N 
ATOM     15  C   UNL     1       0.451  -0.783  23.566  0.00  0.00    +0.280 C 
ATOM     30  H   UNL     1       1.103  -1.029  25.533  0.00  0.00    +0.150 HD
BRANCH  15  17
ATOM      6  O   UNL     1       2.681  -0.615  22.739  0.00  0.00    -0.458 OA
ATOM     17  C   UNL     1       1.634   0.035  23.259  0.00  0.00    +0.189 A 
ATOM     19  C   UNL     1       1.837   1.355  23.417  0.00  0.00    +0.054 A 
ATOM     24  C   UNL     1       3.155   1.572  22.949  0.00  0.00    +0.042 A 
ATOM     25  C   UNL     1       3.625   0.343  22.548  0.00  0.00    +0.196 A 
ENDBRANCH  15  17
ENDBRANCH  11   7
BRANCH  12   3
ATOM      3  O   UNL     1      -5.065  -1.037  24.256  0.00  0.00    -0.442 OA
BRANCH   3  16
ATOM      5  O   UNL     1      -5.399   0.635  25.779  0.00  0.00    -0.226 OA
ATOM      8  N   UNL     1      -3.772   0.804  24.106  0.00  0.00    -0.251 N 
ATOM     16  C   UNL     1      -4.793   0.197  24.810  0.00  0.00    +0.405 C 
ATOM     31  H   UNL     1      -3.390   0.277  23.323  0.00  0.00    +0.158 HD
BRANCH   8  18
ATOM     18  C   UNL     1      -3.188   2.070  24.337  0.00  0.00    +0.036 A 
ATOM     21  C   UNL     1      -2.043   4.554  24.791  0.00  0.00    -0.045 A 
ATOM     22  C   UNL     1      -1.808   2.181  24.402  0.00  0.00    +0.024 A 
ATOM     23  C   UNL     1      -4.007   3.177  24.496  0.00  0.00    +0.024 A 
ATOM     26  C   UNL     1      -1.232   3.431  24.630  0.00  0.00    +0.006 A 
ATOM     27  C   UNL     1      -3.431   4.426  24.724  0.00  0.00    +0.006 A 
BRANCH  21  20
ATOM     20  C   UNL     1      -1.429   5.890  25.035  0.00  0.00    +0.013 C 
ATOM     28  C   UNL     1       0.047   5.949  24.595  0.00  0.00    +0.012 C 
ATOM     29  C   UNL     1      -2.219   7.032  24.369  0.00  0.00    +0.012 C 
ENDBRANCH  21  20
ENDBRANCH   8  18
ENDBRANCH   3  16
ENDBRANCH  12   3
TORSDOF 6
ENDMDL
MODEL 3
REMARK VINA RESULT:       2.2      1.673      2.541
REMARK  Name = 11884086
REMARK  8 active torsions:
REMARK  status: ('A' for Active; 'I' for Inactive)
REMARK    1  A    between atoms: O_3  and  C_12
REMARK    2  A    between atoms: O_3  and  C_16
REMARK    3  A    between atoms: N_7  and  C_11
REMARK    4  A    between atoms: N_8  and  C_18
REMARK    5  A    between atoms: C_15  and  C_17
REMARK    6  A    between atoms: C_20  and  C_21
REMARK    7  A    between atoms: C_20  and  C_28
REMARK    8  A    between atoms: C_20  and  C_29
REMARK                            x       y       z     vdW  Elec       q    Type
REMARK                         _______ _______ _______ _____ _____    ______ ____
ROOT
ATOM      1  O   UNL     1      -3.268   3.340  24.006  0.00  0.00    -0.368 OA
ATOM      2  O   UNL     1      -1.819   5.360  25.802  0.00  0.00    -0.368 OA
ATOM      9  C   UNL     1      -1.405   4.084  25.271  0.00  0.00    +0.173 C 
ATOM     10  C   UNL     1      -2.626   3.186  25.283  0.00  0.00    +0.192 C 
ATOM     11  C   UNL     1      -1.067   4.217  23.805  0.00  0.00    +0.130 C 
ATOM     12  C   UNL     1      -3.453   3.776  26.399  0.00  0.00    +0.235 C 
ATOM     13  C   UNL     1      -2.435   4.139  23.150  0.00  0.00    +0.185 C 
ATOM     14  C   UNL     1      -3.176   5.255  26.256  0.00  0.00    +0.207 C 
ENDROOT
BRANCH  11   7
ATOM      4  O   UNL     1       0.388   2.475  25.481  0.00  0.00    -0.267 OA
ATOM      7  N   UNL     1      -0.213   3.141  23.365  0.00  0.00    -0.301 N 
ATOM     15  C   UNL     1       0.475   2.323  24.261  0.00  0.00    +0.280 C 
ATOM     30  H   UNL     1      -0.150   2.944  22.370  0.00  0.00    +0.150 HD
BRANCH  15  17
ATOM      6  O   UNL     1       2.556   1.545  23.397  0.00  0.00    -0.458 OA
ATOM     17  C   UNL     1       1.279   1.248  23.661  0.00  0.00    +0.189 A 
ATOM     19  C   UNL     1       0.934  -0.009  23.329  0.00  0.00    +0.054 A 
ATOM     24  C   UNL     1       2.116  -0.576  22.796  0.00  0.00    +0.042 A 
ATOM     25  C   UNL     1       3.074   0.410  22.859  0.00  0.00    +0.196 A 
ENDBRANCH  15  17
ENDBRANCH  11   7
BRANCH  12   3
ATOM      3  O   UNL     1      -4.828   3.481  26.297  0.00  0.00    -0.442 OA
BRANCH   3  16
ATOM      5  O   UNL     1      -6.295   2.009  25.342  0.00  0.00    -0.226 OA
ATOM      8  N   UNL     1      -4.056   1.442  25.722  0.00  0.00    -0.251 N 
ATOM     16  C   UNL     1      -5.166   2.264  25.741  0.00  0.00    +0.405 C 
ATOM     31  H   UNL     1      -3.198   1.836  26.101  0.00  0.00    +0.158 HD
BRANCH   8  18
ATOM     18  C   UNL     1      -3.963   0.116  25.241  0.00  0.00    +0.036 A 
ATOM     21  C   UNL     1      -3.780  -2.484  24.295  0.00  0.00    -0.045 A 
ATOM     22  C   UNL     1      -3.459  -0.874  26.068  0.00  0.00    +0.024 A 
ATOM     23  C   UNL     1      -4.377  -0.168  23.949  0.00  0.00    +0.024 A 
ATOM     26  C   UNL     1      -3.367  -2.183  25.593  0.00  0.00    +0.006 A 
ATOM     27  C   UNL     1      -4.286  -1.476  23.473  0.00  0.00    +0.006 A 
BRANCH  21  20
ATOM     20  C   UNL     1      -3.683  -3.882  23.786  0.00  0.00    +0.013 C 
ATOM     28  C   UNL     1      -4.742  -4.194  22.713  0.00  0.00    +0.012 C 
ATOM     29  C   UNL     1      -2.278  -4.215  23.247  0.00  0.00    +0.012 C 
ENDBRANCH  21  20
ENDBRANCH   8  18
ENDBRANCH   3  16
ENDBRANCH  12   3
TORSDOF 6
ENDMDL
MODEL 4
REMARK VINA RESULT:       2.7      2.544      6.319
REMARK  Name = 11884086
REMARK  8 active torsions:
REMARK  status: ('A' for Active; 'I' for Inactive)
REMARK    1  A    between atoms: O_3  and  C_12
REMARK    2  A    between atoms: O_3  and  C_16
REMARK    3  A    between atoms: N_7  and  C_11
REMARK    4  A    between atoms: N_8  and  C_18
REMARK    5  A    between atoms: C_15  and  C_17
REMARK    6  A    between atoms: C_20  and  C_21
REMARK    7  A    between atoms: C_20  and  C_28
REMARK    8  A    between atoms: C_20  and  C_29
REMARK                            x       y       z     vdW  Elec       q    Type
REMARK                         _______ _______ _______ _____ _____    ______ ____
ROOT
ATOM      1  O   UNL     1      -3.794   2.848  26.253  0.00  0.00    -0.368 OA
ATOM      2  O   UNL     1      -6.448   3.980  25.213  0.00  0.00    -0.368 OA
ATOM      9  C   UNL     1      -5.687   2.817  24.825  0.00  0.00    +0.173 C 
ATOM     10  C   UNL     1      -4.223   3.195  24.925  0.00  0.00    +0.192 C 
ATOM     11  C   UNL     1      -5.850   1.723  25.855  0.00  0.00    +0.130 C 
ATOM     12  C   UNL     1      -4.259   4.691  24.723  0.00  0.00    +0.235 C 
ATOM     13  C   UNL     1      -4.845   2.129  26.917  0.00  0.00    +0.185 C 
ATOM     14  C   UNL     1      -5.545   5.077  25.415  0.00  0.00    +0.207 C 
ENDROOT
BRANCH  11   7
ATOM      4  O   UNL     1      -3.274   0.584  25.687  0.00  0.00    -0.267 OA
ATOM      7  N   UNL     1      -5.534   0.430  25.299  0.00  0.00    -0.301 N 
ATOM     15  C   UNL     1      -4.230  -0.062  25.253  0.00  0.00    +0.280 C 
ATOM     30  H   UNL     1      -6.296  -0.160  24.975  0.00  0.00    +0.150 HD
BRANCH  15  17
ATOM      6  O   UNL     1      -3.317  -2.260  25.391  0.00  0.00    -0.458 OA
ATOM     17  C   UNL     1      -4.073  -1.410  24.687  0.00  0.00    +0.189 A 
ATOM     19  C   UNL     1      -4.576  -1.938  23.556  0.00  0.00    +0.054 A 
ATOM     24  C   UNL     1      -4.089  -3.267  23.535  0.00  0.00    +0.042 A 
ATOM     25  C   UNL     1      -3.329  -3.413  24.672  0.00  0.00    +0.196 A 
ENDBRANCH  15  17
ENDBRANCH  11   7
BRANCH  12   3
ATOM      3  O   UNL     1      -3.142   5.358  25.266  0.00  0.00    -0.442 OA
BRANCH   3  16
ATOM      5  O   UNL     1      -0.868   5.499  25.067  0.00  0.00    -0.226 OA
ATOM      8  N   UNL     1      -2.030   3.539  24.532  0.00  0.00    -0.251 N 
ATOM     16  C   UNL     1      -1.898   4.846  24.958  0.00  0.00    +0.405 C 
ATOM     31  H   UNL     1      -2.976   3.167  24.510  0.00  0.00    +0.158 HD
BRANCH   8  18
ATOM     18  C   UNL     1      -1.010   2.650  24.122  0.00  0.00    +0.036 A 
ATOM     21  C   UNL     1       0.989   0.908  23.314  0.00  0.00    -0.045 A 
ATOM     22  C   UNL     1       0.302   2.905  24.488  0.00  0.00    +0.024 A 
ATOM     23  C   UNL     1      -1.342   1.542  23.359  0.00  0.00    +0.024 A 
ATOM     26  C   UNL     1       1.308   2.027  24.083  0.00  0.00    +0.006 A 
ATOM     27  C   UNL     1      -0.337   0.665  22.952  0.00  0.00    +0.006 A 
BRANCH  21  20
ATOM     20  C   UNL     1       2.064  -0.031  22.880  0.00  0.00    +0.013 C 
ATOM     28  C   UNL     1       1.773  -0.666  21.508  0.00  0.00    +0.012 C 
ATOM     29  C   UNL     1       3.454   0.633  22.865  0.00  0.00    +0.012 C 
ENDBRANCH  21  20
ENDBRANCH   8  18
ENDBRANCH   3  16
ENDBRANCH  12   3
TORSDOF 6
ENDMDL
MODEL 5
REMARK VINA RESULT:       3.0      3.328      3.841
REMARK  Name = 11884086
REMARK  8 active torsions:
REMARK  status: ('A' for Active; 'I' for Inactive)
REMARK    1  A    between atoms: O_3  and  C_12
REMARK    2  A    between atoms: O_3  and  C_16
REMARK    3  A    between atoms: N_7  and  C_11
REMARK    4  A    between atoms: N_8  and  C_18
REMARK    5  A    between atoms: C_15  and  C_17
REMARK    6  A    between atoms: C_20  and  C_21
REMARK    7  A    between atoms: C_20  and  C_28
REMARK    8  A    between atoms: C_20  and  C_29
REMARK                            x       y       z     vdW  Elec       q    Type
REMARK                         _______ _______ _______ _____ _____    ______ ____
ROOT
ATOM      1  O   UNL     1      -3.098   2.874  25.537  0.00  0.00    -0.368 OA
ATOM      2  O   UNL     1      -2.533   5.468  24.002  0.00  0.00    -0.368 OA
ATOM      9  C   UNL     1      -2.061   4.991  25.279  0.00  0.00    +0.173 C 
ATOM     10  C   UNL     1      -3.216   4.252  25.926  0.00  0.00    +0.192 C 
ATOM     11  C   UNL     1      -1.013   3.921  25.079  0.00  0.00    +0.130 C 
ATOM     12  C   UNL     1      -4.418   4.911  25.295  0.00  0.00    +0.235 C 
ATOM     13  C   UNL     1      -1.859   2.683  24.835  0.00  0.00    +0.185 C 
ATOM     14  C   UNL     1      -3.934   5.181  23.889  0.00  0.00    +0.207 C 
ENDROOT
BRANCH  11   7
ATOM      4  O   UNL     1      -0.253   1.473  26.258  0.00  0.00    -0.267 OA
ATOM      7  N   UNL     1      -0.188   3.770  26.253  0.00  0.00    -0.301 N 
ATOM     15  C   UNL     1       0.143   2.520  26.774  0.00  0.00    +0.280 C 
ATOM     30  H   UNL     1       0.203   4.604  26.683  0.00  0.00    +0.150 HD
BRANCH  15  17
ATOM      6  O   UNL     1       2.245   3.036  27.774  0.00  0.00    -0.458 OA
ATOM     17  C   UNL     1       1.020   2.529  27.954  0.00  0.00    +0.189 A 
ATOM     19  C   UNL     1       0.786   2.106  29.209  0.00  0.00    +0.054 A 
ATOM     24  C   UNL     1       1.989   2.369  29.906  0.00  0.00    +0.042 A 
ATOM     25  C   UNL     1       2.845   2.934  28.989  0.00  0.00    +0.196 A 
ENDBRANCH  15  17
ENDBRANCH  11   7
BRANCH  12   3
ATOM      3  O   UNL     1      -5.575   4.105  25.314  0.00  0.00    -0.442 OA
BRANCH   3  16
ATOM      5  O   UNL     1      -5.829   2.354  26.762  0.00  0.00    -0.226 OA
ATOM      8  N   UNL     1      -4.736   2.102  24.708  0.00  0.00    -0.251 N 
ATOM     16  C   UNL     1      -5.413   2.789  25.696  0.00  0.00    +0.405 C 
ATOM     31  H   UNL     1      -4.471   2.641  23.886  0.00  0.00    +0.158 HD
BRANCH   8  18
ATOM     18  C   UNL     1      -4.363   0.739  24.695  0.00  0.00    +0.036 A 
ATOM     21  C   UNL     1      -3.630  -1.935  24.669  0.00  0.00    -0.045 A 
ATOM     22  C   UNL     1      -4.058   0.106  25.890  0.00  0.00    +0.024 A 
ATOM     23  C   UNL     1      -4.309   0.061  23.488  0.00  0.00    +0.024 A 
ATOM     26  C   UNL     1      -3.689  -1.240  25.877  0.00  0.00    +0.006 A 
ATOM     27  C   UNL     1      -3.940  -1.285  23.474  0.00  0.00    +0.006 A 
BRANCH  21  20
ATOM     20  C   UNL     1      -3.237  -3.373  24.655  0.00  0.00    +0.013 C 
ATOM     28  C   UNL     1      -3.988  -4.179  23.578  0.00  0.00    +0.012 C 
ATOM     29  C   UNL     1      -1.718  -3.567  24.488  0.00  0.00    +0.012 C 
ENDBRANCH  21  20
ENDBRANCH   8  18
ENDBRANCH   3  16
ENDBRANCH  12   3
TORSDOF 6
ENDMDL
