MODEL 1
REMARK VINA RESULT:      -4.9      0.000      0.000
REMARK  Name = 75367654
REMARK  6 active torsions:
REMARK  status: ('A' for Active; 'I' for Inactive)
REMARK    1  A    between atoms: O_5  and  C_10
REMARK    2  A    between atoms: O_5  and  C_17
REMARK    3  A    between atoms: N_7  and  C_13
REMARK    4  A    between atoms: C_13  and  C_15
REMARK    5  A    between atoms: C_18  and  C_21
REMARK    6  A    between atoms: C_23  and  C_25
REMARK                            x       y       z     vdW  Elec       q    Type
REMARK                         _______ _______ _______ _____ _____    ______ ____
ROOT
ATOM      4  O   UNL     1       2.114   0.851  22.500  0.00  0.00    -0.375 OA
ATOM      7  N   UNL     1       0.438  -0.715  24.613  0.00  0.00    -0.289 NA
ATOM      9  C   UNL     1      -0.284   0.562  24.649  0.00  0.00    +0.131 C 
ATOM     10  C   UNL     1       0.171   1.670  23.687  0.00  0.00    +0.215 C 
ATOM     11  C   UNL     1       0.859  -1.132  23.274  0.00  0.00    +0.113 C 
ATOM     12  C   UNL     1       1.680   1.762  23.503  0.00  0.00    +0.205 C 
ATOM     14  C   UNL     1       2.209  -0.499  22.932  0.00  0.00    +0.175 C 
ENDROOT
BRANCH  10   5
ATOM      5  O   UNL     1      -0.287   2.921  24.203  0.00  0.00    -0.469 OA
BRANCH   5  17
ATOM      8  N   UNL     1      -2.499   2.422  23.725  0.00  0.00    -0.221 NA
ATOM     17  C   UNL     1      -1.603   2.988  24.565  0.00  0.00    +0.215 A 
ATOM     20  C   UNL     1      -1.944   3.621  25.750  0.00  0.00    +0.068 A 
ATOM     22  C   UNL     1      -3.290   3.674  26.095  0.00  0.00    +0.019 A 
ATOM     23  C   UNL     1      -4.241   3.103  25.257  0.00  0.00    +0.073 A 
ATOM     24  C   UNL     1      -3.798   2.495  24.094  0.00  0.00    +0.127 A 
BRANCH  23  25
ATOM      1  F   UNL     1      -6.474   2.399  24.764  0.00  0.00    -0.166 F 
ATOM      2  F   UNL     1      -5.971   2.683  26.855  0.00  0.00    -0.166 F 
ATOM      3  F   UNL     1      -6.207   4.408  25.552  0.00  0.00    -0.166 F 
ATOM     25  C   UNL     1      -5.688   3.145  25.599  0.00  0.00    +0.419 C 
ENDBRANCH  23  25
ENDBRANCH   5  17
ENDBRANCH  10   5
BRANCH   7  13
ATOM     13  C   UNL     1      -0.348  -1.756  25.276  0.00  0.00    +0.159 C 
BRANCH  13  15
ATOM      6  O   UNL     1      -2.517  -2.215  24.272  0.00  0.00    -0.464 OA
ATOM     15  C   UNL     1      -1.826  -1.484  25.186  0.00  0.00    +0.119 A 
ATOM     16  C   UNL     1      -2.668  -0.623  25.852  0.00  0.00    +0.046 A 
ATOM     18  C   UNL     1      -3.813  -1.817  24.356  0.00  0.00    +0.102 A 
ATOM     19  C   UNL     1      -3.957  -0.839  25.313  0.00  0.00    +0.044 A 
ATOM     21  C   UNL     1      -4.759  -2.482  23.447  0.00  0.00    +0.086 C 
ENDBRANCH  13  15
ENDBRANCH   7  13
TORSDOF 5
ENDMDL
MODEL 2
REMARK VINA RESULT:      -4.8      3.142      5.202
REMARK  Name = 75367654
REMARK  6 active torsions:
REMARK  status: ('A' for Active; 'I' for Inactive)
REMARK    1  A    between atoms: O_5  and  C_10
REMARK    2  A    between atoms: O_5  and  C_17
REMARK    3  A    between atoms: N_7  and  C_13
REMARK    4  A    between atoms: C_13  and  C_15
REMARK    5  A    between atoms: C_18  and  C_21
REMARK    6  A    between atoms: C_23  and  C_25
REMARK                            x       y       z     vdW  Elec       q    Type
REMARK                         _______ _______ _______ _____ _____    ______ ____
ROOT
ATOM      4  O   UNL     1      -2.653   5.836  24.364  0.00  0.00    -0.375 OA
ATOM      7  N   UNL     1      -1.002   3.484  25.577  0.00  0.00    -0.289 NA
ATOM      9  C   UNL     1      -2.101   2.712  24.988  0.00  0.00    +0.131 C 
ATOM     10  C   UNL     1      -3.176   3.479  24.201  0.00  0.00    +0.215 C 
ATOM     11  C   UNL     1      -0.545   4.607  24.755  0.00  0.00    +0.113 C 
ATOM     12  C   UNL     1      -3.554   4.825  24.802  0.00  0.00    +0.205 C 
ATOM     14  C   UNL     1      -1.402   5.842  25.037  0.00  0.00    +0.175 C 
ENDROOT
BRANCH  10   5
ATOM      5  O   UNL     1      -4.353   2.671  24.153  0.00  0.00    -0.469 OA
BRANCH   5  17
ATOM      8  N   UNL     1      -3.651   0.700  23.155  0.00  0.00    -0.221 NA
ATOM     17  C   UNL     1      -4.170   1.319  24.240  0.00  0.00    +0.215 A 
ATOM     20  C   UNL     1      -4.520   0.666  25.411  0.00  0.00    +0.068 A 
ATOM     22  C   UNL     1      -4.323  -0.709  25.473  0.00  0.00    +0.019 A 
ATOM     23  C   UNL     1      -3.792  -1.381  24.378  0.00  0.00    +0.073 A 
ATOM     24  C   UNL     1      -3.476  -0.637  23.253  0.00  0.00    +0.127 A 
BRANCH  23  25
ATOM      1  F   UNL     1      -2.374  -3.242  23.878  0.00  0.00    -0.166 F 
ATOM      2  F   UNL     1      -3.579  -3.379  25.676  0.00  0.00    -0.166 F 
ATOM      3  F   UNL     1      -4.522  -3.547  23.723  0.00  0.00    -0.166 F 
ATOM     25  C   UNL     1      -3.571  -2.851  24.415  0.00  0.00    +0.419 C 
ENDBRANCH  23  25
ENDBRANCH   5  17
ENDBRANCH  10   5
BRANCH   7  13
ATOM     13  C   UNL     1       0.104   2.595  25.932  0.00  0.00    +0.159 C 
BRANCH  13  15
ATOM      6  O   UNL     1       0.854   1.305  24.009  0.00  0.00    -0.464 OA
ATOM     15  C   UNL     1       0.080   1.323  25.126  0.00  0.00    +0.119 A 
ATOM     16  C   UNL     1      -0.580   0.125  25.276  0.00  0.00    +0.046 A 
ATOM     18  C   UNL     1       0.687   0.082  23.441  0.00  0.00    +0.102 A 
ATOM     19  C   UNL     1      -0.186  -0.680  24.182  0.00  0.00    +0.044 A 
ATOM     21  C   UNL     1       1.439  -0.169  22.203  0.00  0.00    +0.086 C 
ENDBRANCH  13  15
ENDBRANCH   7  13
TORSDOF 5
ENDMDL
MODEL 3
REMARK VINA RESULT:      -4.5      2.619      4.634
REMARK  Name = 75367654
REMARK  6 active torsions:
REMARK  status: ('A' for Active; 'I' for Inactive)
REMARK    1  A    between atoms: O_5  and  C_10
REMARK    2  A    between atoms: O_5  and  C_17
REMARK    3  A    between atoms: N_7  and  C_13
REMARK    4  A    between atoms: C_13  and  C_15
REMARK    5  A    between atoms: C_18  and  C_21
REMARK    6  A    between atoms: C_23  and  C_25
REMARK                            x       y       z     vdW  Elec       q    Type
REMARK                         _______ _______ _______ _____ _____    ______ ____
ROOT
ATOM      4  O   UNL     1      -1.815  -3.343  24.313  0.00  0.00    -0.375 OA
ATOM      7  N   UNL     1      -3.813  -1.040  24.968  0.00  0.00    -0.289 NA
ATOM      9  C   UNL     1      -2.599  -0.240  24.772  0.00  0.00    +0.131 C 
ATOM     10  C   UNL     1      -1.315  -0.976  24.358  0.00  0.00    +0.215 C 
ATOM     11  C   UNL     1      -3.961  -2.152  24.027  0.00  0.00    +0.113 C 
ATOM     12  C   UNL     1      -1.121  -2.329  25.030  0.00  0.00    +0.205 C 
ATOM     14  C   UNL     1      -3.215  -3.380  24.551  0.00  0.00    +0.175 C 
ENDROOT
BRANCH  10   5
ATOM      5  O   UNL     1      -0.200  -0.151  24.701  0.00  0.00    -0.469 OA
BRANCH   5  17
ATOM      8  N   UNL     1      -0.257   1.914  23.649  0.00  0.00    -0.221 NA
ATOM     17  C   UNL     1      -0.436   1.193  24.780  0.00  0.00    +0.215 A 
ATOM     20  C   UNL     1      -0.838   1.736  25.990  0.00  0.00    +0.068 A 
ATOM     22  C   UNL     1      -1.072   3.106  26.042  0.00  0.00    +0.019 A 
ATOM     23  C   UNL     1      -0.899   3.881  24.901  0.00  0.00    +0.073 A 
ATOM     24  C   UNL     1      -0.494   3.243  23.740  0.00  0.00    +0.127 A 
BRANCH  23  25
ATOM      1  F   UNL     1       0.003   6.095  24.983  0.00  0.00    -0.166 F 
ATOM      2  F   UNL     1      -1.812   5.815  23.829  0.00  0.00    -0.166 F 
ATOM      3  F   UNL     1      -1.885   5.743  26.002  0.00  0.00    -0.166 F 
ATOM     25  C   UNL     1      -1.141   5.348  24.926  0.00  0.00    +0.419 C 
ENDBRANCH  23  25
ENDBRANCH   5  17
ENDBRANCH  10   5
BRANCH   7  13
ATOM     13  C   UNL     1      -4.992  -0.173  24.963  0.00  0.00    +0.159 C 
BRANCH  13  15
ATOM      6  O   UNL     1      -5.069   2.206  25.470  0.00  0.00    -0.464 OA
ATOM     15  C   UNL     1      -4.641   1.248  24.607  0.00  0.00    +0.119 A 
ATOM     16  C   UNL     1      -3.955   1.814  23.558  0.00  0.00    +0.046 A 
ATOM     18  C   UNL     1      -4.652   3.396  24.966  0.00  0.00    +0.102 A 
ATOM     19  C   UNL     1      -3.963   3.209  23.791  0.00  0.00    +0.044 A 
ATOM     21  C   UNL     1      -5.005   4.593  25.745  0.00  0.00    +0.086 C 
ENDBRANCH  13  15
ENDBRANCH   7  13
TORSDOF 5
ENDMDL
MODEL 4
REMARK VINA RESULT:      -3.9      1.500      3.947
REMARK  Name = 75367654
REMARK  6 active torsions:
REMARK  status: ('A' for Active; 'I' for Inactive)
REMARK    1  A    between atoms: O_5  and  C_10
REMARK    2  A    between atoms: O_5  and  C_17
REMARK    3  A    between atoms: N_7  and  C_13
REMARK    4  A    between atoms: C_13  and  C_15
REMARK    5  A    between atoms: C_18  and  C_21
REMARK    6  A    between atoms: C_23  and  C_25
REMARK                            x       y       z     vdW  Elec       q    Type
REMARK                         _______ _______ _______ _____ _____    ______ ____
ROOT
ATOM      4  O   UNL     1       1.418  -0.534  22.325  0.00  0.00    -0.375 OA
ATOM      7  N   UNL     1       0.589   1.609  24.434  0.00  0.00    -0.289 NA
ATOM      9  C   UNL     1      -0.378   0.561  24.780  0.00  0.00    +0.131 C 
ATOM     10  C   UNL     1      -0.305  -0.766  24.008  0.00  0.00    +0.215 C 
ATOM     11  C   UNL     1       1.924   1.111  24.098  0.00  0.00    +0.113 C 
ATOM     12  C   UNL     1       0.012  -0.614  22.527  0.00  0.00    +0.205 C 
ATOM     14  C   UNL     1       1.984   0.736  22.617  0.00  0.00    +0.175 C 
ENDROOT
BRANCH  10   5
ATOM      5  O   UNL     1      -1.572  -1.416  24.123  0.00  0.00    -0.469 OA
BRANCH   5  17
ATOM      8  N   UNL     1      -2.800   0.493  23.656  0.00  0.00    -0.221 NA
ATOM     17  C   UNL     1      -2.645  -0.619  24.409  0.00  0.00    +0.215 A 
ATOM     20  C   UNL     1      -3.500  -0.986  25.436  0.00  0.00    +0.068 A 
ATOM     22  C   UNL     1      -4.584  -0.158  25.706  0.00  0.00    +0.019 A 
ATOM     23  C   UNL     1      -4.778   0.994  24.953  0.00  0.00    +0.073 A 
ATOM     24  C   UNL     1      -3.866   1.273  23.949  0.00  0.00    +0.127 A 
BRANCH  23  25
ATOM      1  F   UNL     1      -5.688   3.206  24.892  0.00  0.00    -0.166 F 
ATOM      2  F   UNL     1      -7.062   1.567  24.530  0.00  0.00    -0.166 F 
ATOM      3  F   UNL     1      -6.295   1.917  26.535  0.00  0.00    -0.166 F 
ATOM     25  C   UNL     1      -5.928   1.899  25.219  0.00  0.00    +0.419 C 
ENDBRANCH  23  25
ENDBRANCH   5  17
ENDBRANCH  10   5
BRANCH   7  13
ATOM     13  C   UNL     1       0.643   2.614  25.495  0.00  0.00    +0.159 C 
BRANCH  13  15
ATOM      6  O   UNL     1      -1.584   3.301  26.198  0.00  0.00    -0.464 OA
ATOM     15  C   UNL     1      -0.511   3.579  25.412  0.00  0.00    +0.119 A 
ATOM     16  C   UNL     1      -0.727   4.727  24.686  0.00  0.00    +0.046 A 
ATOM     18  C   UNL     1      -2.495   4.283  25.971  0.00  0.00    +0.102 A 
ATOM     19  C   UNL     1      -2.016   5.184  25.049  0.00  0.00    +0.044 A 
ATOM     21  C   UNL     1      -3.755   4.189  26.724  0.00  0.00    +0.086 C 
ENDBRANCH  13  15
ENDBRANCH   7  13
TORSDOF 5
ENDMDL
MODEL 5
REMARK VINA RESULT:      -3.7      2.466      4.759
REMARK  Name = 75367654
REMARK  6 active torsions:
REMARK  status: ('A' for Active; 'I' for Inactive)
REMARK    1  A    between atoms: O_5  and  C_10
REMARK    2  A    between atoms: O_5  and  C_17
REMARK    3  A    between atoms: N_7  and  C_13
REMARK    4  A    between atoms: C_13  and  C_15
REMARK    5  A    between atoms: C_18  and  C_21
REMARK    6  A    between atoms: C_23  and  C_25
REMARK                            x       y       z     vdW  Elec       q    Type
REMARK                         _______ _______ _______ _____ _____    ______ ____
ROOT
ATOM      4  O   UNL     1      -4.845  -2.611  23.897  0.00  0.00    -0.375 OA
ATOM      7  N   UNL     1      -2.025  -1.510  24.647  0.00  0.00    -0.289 NA
ATOM      9  C   UNL     1      -2.822  -0.313  24.936  0.00  0.00    +0.131 C 
ATOM     10  C   UNL     1      -4.346  -0.406  24.760  0.00  0.00    +0.215 C 
ATOM     11  C   UNL     1      -2.661  -2.768  25.043  0.00  0.00    +0.113 C 
ATOM     12  C   UNL     1      -4.791  -1.230  23.560  0.00  0.00    +0.205 C 
ATOM     14  C   UNL     1      -3.582  -3.261  23.926  0.00  0.00    +0.175 C 
ENDROOT
BRANCH  10   5
ATOM      5  O   UNL     1      -4.856   0.918  24.599  0.00  0.00    -0.469 OA
BRANCH   5  17
ATOM      8  N   UNL     1      -3.101   2.082  23.630  0.00  0.00    -0.221 NA
ATOM     17  C   UNL     1      -3.947   1.937  24.675  0.00  0.00    +0.215 A 
ATOM     20  C   UNL     1      -3.941   2.751  25.796  0.00  0.00    +0.068 A 
ATOM     22  C   UNL     1      -3.007   3.780  25.847  0.00  0.00    +0.019 A 
ATOM     23  C   UNL     1      -2.120   3.961  24.792  0.00  0.00    +0.073 A 
ATOM     24  C   UNL     1      -2.207   3.093  23.716  0.00  0.00    +0.127 A 
BRANCH  23  25
ATOM      1  F   UNL     1      -1.590   6.236  25.310  0.00  0.00    -0.166 F 
ATOM      2  F   UNL     1      -0.014   4.771  25.586  0.00  0.00    -0.166 F 
ATOM      3  F   UNL     1      -0.619   5.349  23.578  0.00  0.00    -0.166 F 
ATOM     25  C   UNL     1      -1.110   5.052  24.818  0.00  0.00    +0.419 C 
ENDBRANCH  23  25
ENDBRANCH   5  17
ENDBRANCH  10   5
BRANCH   7  13
ATOM     13  C   UNL     1      -0.690  -1.378  25.231  0.00  0.00    +0.159 C 
BRANCH  13  15
ATOM      6  O   UNL     1       0.981  -0.730  23.584  0.00  0.00    -0.464 OA
ATOM     15  C   UNL     1       0.117  -0.308  24.545  0.00  0.00    +0.119 A 
ATOM     16  C   UNL     1       0.178   1.060  24.683  0.00  0.00    +0.046 A 
ATOM     18  C   UNL     1       1.598   0.381  23.103  0.00  0.00    +0.102 A 
ATOM     19  C   UNL     1       1.139   1.506  23.747  0.00  0.00    +0.044 A 
ATOM     21  C   UNL     1       2.589   0.165  22.038  0.00  0.00    +0.086 C 
ENDBRANCH  13  15
ENDBRANCH   7  13
TORSDOF 5
ENDMDL
MODEL 6
REMARK VINA RESULT:      -3.6      2.853      5.169
REMARK  Name = 75367654
REMARK  6 active torsions:
REMARK  status: ('A' for Active; 'I' for Inactive)
REMARK    1  A    between atoms: O_5  and  C_10
REMARK    2  A    between atoms: O_5  and  C_17
REMARK    3  A    between atoms: N_7  and  C_13
REMARK    4  A    between atoms: C_13  and  C_15
REMARK    5  A    between atoms: C_18  and  C_21
REMARK    6  A    between atoms: C_23  and  C_25
REMARK                            x       y       z     vdW  Elec       q    Type
REMARK                         _______ _______ _______ _____ _____    ______ ____
ROOT
ATOM      4  O   UNL     1       0.566   3.800  23.993  0.00  0.00    -0.375 OA
ATOM      7  N   UNL     1      -2.386   3.849  24.998  0.00  0.00    -0.289 NA
ATOM      9  C   UNL     1      -1.876   2.763  25.842  0.00  0.00    +0.131 C 
ATOM     10  C   UNL     1      -0.385   2.409  25.730  0.00  0.00    +0.215 C 
ATOM     11  C   UNL     1      -1.453   4.963  24.818  0.00  0.00    +0.113 C 
ATOM     12  C   UNL     1       0.171   2.471  24.314  0.00  0.00    +0.205 C 
ATOM     14  C   UNL     1      -0.507   4.666  23.653  0.00  0.00    +0.175 C 
ENDROOT
BRANCH  10   5
ATOM      5  O   UNL     1      -0.208   1.077  26.215  0.00  0.00    -0.469 OA
BRANCH   5  17
ATOM      8  N   UNL     1      -0.479  -0.954  25.131  0.00  0.00    -0.221 NA
ATOM     17  C   UNL     1      -1.051   0.125  25.711  0.00  0.00    +0.215 A 
ATOM     20  C   UNL     1      -2.419   0.314  25.818  0.00  0.00    +0.068 A 
ATOM     22  C   UNL     1      -3.254  -0.668  25.298  0.00  0.00    +0.019 A 
ATOM     23  C   UNL     1      -2.704  -1.793  24.694  0.00  0.00    +0.073 A 
ATOM     24  C   UNL     1      -1.324  -1.888  24.636  0.00  0.00    +0.127 A 
BRANCH  23  25
ATOM      1  F   UNL     1      -4.690  -2.387  23.499  0.00  0.00    -0.166 F 
ATOM      2  F   UNL     1      -2.947  -3.642  23.196  0.00  0.00    -0.166 F 
ATOM      3  F   UNL     1      -4.032  -3.728  25.079  0.00  0.00    -0.166 F 
ATOM     25  C   UNL     1      -3.571  -2.861  24.129  0.00  0.00    +0.419 C 
ENDBRANCH  23  25
ENDBRANCH   5  17
ENDBRANCH  10   5
BRANCH   7  13
ATOM     13  C   UNL     1      -3.680   4.311  25.501  0.00  0.00    +0.159 C 
BRANCH  13  15
ATOM      6  O   UNL     1      -5.325   2.889  26.595  0.00  0.00    -0.464 OA
ATOM     15  C   UNL     1      -4.729   3.233  25.423  0.00  0.00    +0.119 A 
ATOM     16  C   UNL     1      -5.237   2.487  24.385  0.00  0.00    +0.046 A 
ATOM     18  C   UNL     1      -6.224   1.914  26.302  0.00  0.00    +0.102 A 
ATOM     19  C   UNL     1      -6.208   1.631  24.956  0.00  0.00    +0.044 A 
ATOM     21  C   UNL     1      -7.000   1.382  27.432  0.00  0.00    +0.086 C 
ENDBRANCH  13  15
ENDBRANCH   7  13
TORSDOF 5
ENDMDL
MODEL 7
REMARK VINA RESULT:      -3.4      3.577      5.670
REMARK  Name = 75367654
REMARK  6 active torsions:
REMARK  status: ('A' for Active; 'I' for Inactive)
REMARK    1  A    between atoms: O_5  and  C_10
REMARK    2  A    between atoms: O_5  and  C_17
REMARK    3  A    between atoms: N_7  and  C_13
REMARK    4  A    between atoms: C_13  and  C_15
REMARK    5  A    between atoms: C_18  and  C_21
REMARK    6  A    between atoms: C_23  and  C_25
REMARK                            x       y       z     vdW  Elec       q    Type
REMARK                         _______ _______ _______ _____ _____    ______ ____
ROOT
ATOM      4  O   UNL     1      -5.781   4.175  25.813  0.00  0.00    -0.375 OA
ATOM      7  N   UNL     1      -5.001   1.296  24.903  0.00  0.00    -0.289 NA
ATOM      9  C   UNL     1      -3.658   1.879  24.991  0.00  0.00    +0.131 C 
ATOM     10  C   UNL     1      -3.538   3.331  25.480  0.00  0.00    +0.215 C 
ATOM     11  C   UNL     1      -5.912   1.713  25.971  0.00  0.00    +0.113 C 
ATOM     12  C   UNL     1      -4.634   4.257  24.973  0.00  0.00    +0.205 C 
ATOM     14  C   UNL     1      -6.591   3.030  25.592  0.00  0.00    +0.175 C 
ENDROOT
BRANCH  10   5
ATOM      5  O   UNL     1      -2.283   3.847  25.031  0.00  0.00    -0.469 OA
BRANCH   5  17
ATOM      8  N   UNL     1      -1.714   2.302  23.399  0.00  0.00    -0.221 NA
ATOM     17  C   UNL     1      -1.385   2.937  24.547  0.00  0.00    +0.215 A 
ATOM     20  C   UNL     1      -0.208   2.716  25.245  0.00  0.00    +0.068 A 
ATOM     22  C   UNL     1       0.688   1.786  24.731  0.00  0.00    +0.019 A 
ATOM     23  C   UNL     1       0.386   1.113  23.553  0.00  0.00    +0.073 A 
ATOM     24  C   UNL     1      -0.817   1.404  22.931  0.00  0.00    +0.127 A 
BRANCH  23  25
ATOM      1  F   UNL     1       0.941  -0.365  21.755  0.00  0.00    -0.166 F 
ATOM      2  F   UNL     1       2.591   0.591  22.788  0.00  0.00    -0.166 F 
ATOM      3  F   UNL     1       1.469  -0.993  23.769  0.00  0.00    -0.166 F 
ATOM     25  C   UNL     1       1.324   0.113  22.979  0.00  0.00    +0.419 C 
ENDBRANCH  23  25
ENDBRANCH   5  17
ENDBRANCH  10   5
BRANCH   7  13
ATOM     13  C   UNL     1      -4.912  -0.162  24.813  0.00  0.00    +0.159 C 
BRANCH  13  15
ATOM      6  O   UNL     1      -3.051  -1.613  24.218  0.00  0.00    -0.464 OA
ATOM     15  C   UNL     1      -3.511  -0.654  25.064  0.00  0.00    +0.119 A 
ATOM     16  C   UNL     1      -2.554  -0.334  25.998  0.00  0.00    +0.046 A 
ATOM     18  C   UNL     1      -1.787  -1.908  24.617  0.00  0.00    +0.102 A 
ATOM     19  C   UNL     1      -1.435  -1.149  25.709  0.00  0.00    +0.044 A 
ATOM     21  C   UNL     1      -1.080  -2.935  23.837  0.00  0.00    +0.086 C 
ENDBRANCH  13  15
ENDBRANCH   7  13
TORSDOF 5
ENDMDL
MODEL 8
REMARK VINA RESULT:      -3.4      1.802      4.203
REMARK  Name = 75367654
REMARK  6 active torsions:
REMARK  status: ('A' for Active; 'I' for Inactive)
REMARK    1  A    between atoms: O_5  and  C_10
REMARK    2  A    between atoms: O_5  and  C_17
REMARK    3  A    between atoms: N_7  and  C_13
REMARK    4  A    between atoms: C_13  and  C_15
REMARK    5  A    between atoms: C_18  and  C_21
REMARK    6  A    between atoms: C_23  and  C_25
REMARK                            x       y       z     vdW  Elec       q    Type
REMARK                         _______ _______ _______ _____ _____    ______ ____
ROOT
ATOM      4  O   UNL     1      -2.057  -3.234  24.964  0.00  0.00    -0.375 OA
ATOM      7  N   UNL     1      -0.751  -0.555  24.045  0.00  0.00    -0.289 NA
ATOM      9  C   UNL     1      -2.113  -0.072  24.296  0.00  0.00    +0.131 C 
ATOM     10  C   UNL     1      -3.141  -1.075  24.843  0.00  0.00    +0.215 C 
ATOM     11  C   UNL     1      -0.267  -1.531  25.024  0.00  0.00    +0.113 C 
ATOM     12  C   UNL     1      -3.028  -2.474  24.255  0.00  0.00    +0.205 C 
ATOM     14  C   UNL     1      -0.711  -2.938  24.620  0.00  0.00    +0.175 C 
ENDROOT
BRANCH  10   5
ATOM      5  O   UNL     1      -4.447  -0.577  24.549  0.00  0.00    -0.469 OA
BRANCH   5  17
ATOM      8  N   UNL     1      -5.487   1.135  25.715  0.00  0.00    -0.221 NA
ATOM     17  C   UNL     1      -4.644   0.765  24.725  0.00  0.00    +0.215 A 
ATOM     20  C   UNL     1      -3.983   1.656  23.896  0.00  0.00    +0.068 A 
ATOM     22  C   UNL     1      -4.201   3.015  24.096  0.00  0.00    +0.019 A 
ATOM     23  C   UNL     1      -5.060   3.435  25.104  0.00  0.00    +0.073 A 
ATOM     24  C   UNL     1      -5.674   2.465  25.879  0.00  0.00    +0.127 A 
BRANCH  23  25
ATOM      1  F   UNL     1      -5.056   5.673  24.256  0.00  0.00    -0.166 F 
ATOM      2  F   UNL     1      -6.606   5.166  25.687  0.00  0.00    -0.166 F 
ATOM      3  F   UNL     1      -4.547   5.394  26.352  0.00  0.00    -0.166 F 
ATOM     25  C   UNL     1      -5.313   4.881  25.343  0.00  0.00    +0.419 C 
ENDBRANCH  23  25
ENDBRANCH   5  17
ENDBRANCH  10   5
BRANCH   7  13
ATOM     13  C   UNL     1       0.168   0.575  23.916  0.00  0.00    +0.159 C 
BRANCH  13  15
ATOM      6  O   UNL     1      -0.546   2.883  24.216  0.00  0.00    -0.464 OA
ATOM     15  C   UNL     1      -0.213   1.714  24.825  0.00  0.00    +0.119 A 
ATOM     16  C   UNL     1      -0.303   1.838  26.192  0.00  0.00    +0.046 A 
ATOM     18  C   UNL     1      -0.851   3.762  25.206  0.00  0.00    +0.102 A 
ATOM     19  C   UNL     1      -0.716   3.168  26.439  0.00  0.00    +0.044 A 
ATOM     21  C   UNL     1      -1.246   5.112  24.778  0.00  0.00    +0.086 C 
ENDBRANCH  13  15
ENDBRANCH   7  13
TORSDOF 5
ENDMDL
MODEL 9
REMARK VINA RESULT:      -2.7      3.730      5.721
REMARK  Name = 75367654
REMARK  6 active torsions:
REMARK  status: ('A' for Active; 'I' for Inactive)
REMARK    1  A    between atoms: O_5  and  C_10
REMARK    2  A    between atoms: O_5  and  C_17
REMARK    3  A    between atoms: N_7  and  C_13
REMARK    4  A    between atoms: C_13  and  C_15
REMARK    5  A    between atoms: C_18  and  C_21
REMARK    6  A    between atoms: C_23  and  C_25
REMARK                            x       y       z     vdW  Elec       q    Type
REMARK                         _______ _______ _______ _____ _____    ______ ____
ROOT
ATOM      4  O   UNL     1      -2.916   4.960  24.949  0.00  0.00    -0.375 OA
ATOM      7  N   UNL     1      -4.116   2.102  24.602  0.00  0.00    -0.289 NA
ATOM      9  C   UNL     1      -2.959   1.764  25.439  0.00  0.00    +0.131 C 
ATOM     10  C   UNL     1      -2.067   2.916  25.927  0.00  0.00    +0.215 C 
ATOM     11  C   UNL     1      -4.789   3.347  24.977  0.00  0.00    +0.113 C 
ATOM     12  C   UNL     1      -1.849   4.020  24.902  0.00  0.00    +0.205 C 
ATOM     14  C   UNL     1      -4.104   4.534  24.297  0.00  0.00    +0.175 C 
ENDROOT
BRANCH  10   5
ATOM      5  O   UNL     1      -0.790   2.373  26.269  0.00  0.00    -0.469 OA
BRANCH   5  17
ATOM      8  N   UNL     1       0.884   2.401  24.667  0.00  0.00    -0.221 NA
ATOM     17  C   UNL     1      -0.116   1.722  25.274  0.00  0.00    +0.215 A 
ATOM     20  C   UNL     1      -0.485   0.428  24.946  0.00  0.00    +0.068 A 
ATOM     22  C   UNL     1       0.217  -0.212  23.931  0.00  0.00    +0.019 A 
ATOM     23  C   UNL     1       1.252   0.452  23.283  0.00  0.00    +0.073 A 
ATOM     24  C   UNL     1       1.544   1.746  23.684  0.00  0.00    +0.127 A 
BRANCH  23  25
ATOM      1  F   UNL     1       2.979   0.596  21.633  0.00  0.00    -0.166 F 
ATOM      2  F   UNL     1       2.692  -1.329  22.592  0.00  0.00    -0.166 F 
ATOM      3  F   UNL     1       1.231  -0.605  21.153  0.00  0.00    -0.166 F 
ATOM     25  C   UNL     1       2.021  -0.205  22.193  0.00  0.00    +0.419 C 
ENDBRANCH  23  25
ENDBRANCH   5  17
ENDBRANCH  10   5
BRANCH   7  13
ATOM     13  C   UNL     1      -5.052   0.979  24.561  0.00  0.00    +0.159 C 
BRANCH  13  15
ATOM      6  O   UNL     1      -4.376  -1.259  23.880  0.00  0.00    -0.464 OA
ATOM     15  C   UNL     1      -4.373  -0.329  24.872  0.00  0.00    +0.119 A 
ATOM     16  C   UNL     1      -3.723  -0.811  25.984  0.00  0.00    +0.046 A 
ATOM     18  C   UNL     1      -3.721  -2.345  24.365  0.00  0.00    +0.102 A 
ATOM     19  C   UNL     1      -3.300  -2.120  25.655  0.00  0.00    +0.044 A 
ATOM     21  C   UNL     1      -3.599  -3.492  23.454  0.00  0.00    +0.086 C 
ENDBRANCH  13  15
ENDBRANCH   7  13
TORSDOF 5
ENDMDL
MODEL 10
REMARK VINA RESULT:      -2.4      3.130      5.287
REMARK  Name = 75367654
REMARK  6 active torsions:
REMARK  status: ('A' for Active; 'I' for Inactive)
REMARK    1  A    between atoms: O_5  and  C_10
REMARK    2  A    between atoms: O_5  and  C_17
REMARK    3  A    between atoms: N_7  and  C_13
REMARK    4  A    between atoms: C_13  and  C_15
REMARK    5  A    between atoms: C_18  and  C_21
REMARK    6  A    between atoms: C_23  and  C_25
REMARK                            x       y       z     vdW  Elec       q    Type
REMARK                         _______ _______ _______ _____ _____    ______ ____
ROOT
ATOM      4  O   UNL     1      -0.895   5.840  25.286  0.00  0.00    -0.375 OA
ATOM      7  N   UNL     1      -3.121   4.085  23.985  0.00  0.00    -0.289 NA
ATOM      9  C   UNL     1      -2.116   3.042  24.222  0.00  0.00    +0.131 C 
ATOM     10  C   UNL     1      -0.814   3.448  24.929  0.00  0.00    +0.215 C 
ATOM     11  C   UNL     1      -3.232   5.070  25.063  0.00  0.00    +0.113 C 
ATOM     12  C   UNL     1      -0.276   4.812  24.521  0.00  0.00    +0.205 C 
ATOM     14  C   UNL     1      -2.205   6.184  24.859  0.00  0.00    +0.175 C 
ENDROOT
BRANCH  10   5
ATOM      5  O   UNL     1       0.181   2.471  24.621  0.00  0.00    -0.469 OA
BRANCH   5  17
ATOM      8  N   UNL     1       0.134   0.365  23.654  0.00  0.00    -0.221 NA
ATOM     17  C   UNL     1      -0.204   1.161  24.693  0.00  0.00    +0.215 A 
ATOM     20  C   UNL     1      -0.907   0.727  25.806  0.00  0.00    +0.068 A 
ATOM     22  C   UNL     1      -1.286  -0.610  25.855  0.00  0.00    +0.019 A 
ATOM     23  C   UNL     1      -0.957  -1.460  24.806  0.00  0.00    +0.073 A 
ATOM     24  C   UNL     1      -0.253  -0.929  23.738  0.00  0.00    +0.127 A 
BRANCH  23  25
ATOM      1  F   UNL     1      -1.537  -3.435  23.587  0.00  0.00    -0.166 F 
ATOM      2  F   UNL     1      -0.429  -3.707  25.432  0.00  0.00    -0.166 F 
ATOM      3  F   UNL     1      -2.520  -3.112  25.499  0.00  0.00    -0.166 F 
ATOM     25  C   UNL     1      -1.349  -2.894  24.829  0.00  0.00    +0.419 C 
ENDBRANCH  23  25
ENDBRANCH   5  17
ENDBRANCH  10   5
BRANCH   7  13
ATOM     13  C   UNL     1      -4.415   3.476  23.680  0.00  0.00    +0.159 C 
BRANCH  13  15
ATOM      6  O   UNL     1      -4.264   1.048  23.587  0.00  0.00    -0.464 OA
ATOM     15  C   UNL     1      -4.574   2.134  24.344  0.00  0.00    +0.119 A 
ATOM     16  C   UNL     1      -4.981   1.747  25.600  0.00  0.00    +0.046 A 
ATOM     18  C   UNL     1      -4.475  -0.042  24.369  0.00  0.00    +0.102 A 
ATOM     19  C   UNL     1      -4.917   0.334  25.616  0.00  0.00    +0.044 A 
ATOM     21  C   UNL     1      -4.201  -1.348  23.752  0.00  0.00    +0.086 C 
ENDBRANCH  13  15
ENDBRANCH   7  13
TORSDOF 5
ENDMDL
