MODEL 1
REMARK VINA RESULT:       7.1      0.000      0.000
REMARK  Name = 11879615
REMARK  9 active torsions:
REMARK  status: ('A' for Active; 'I' for Inactive)
REMARK    1  A    between atoms: S_1  and  N_9
REMARK    2  A    between atoms: S_1  and  C_23
REMARK    3  A    between atoms: O_4  and  C_22
REMARK    4  A    between atoms: O_4  and  C_26
REMARK    5  A    between atoms: N_9  and  C_18
REMARK    6  A    between atoms: N_10  and  C_19
REMARK    7  A    between atoms: N_14  and  C_31
REMARK    8  A    between atoms: N_15  and  C_30
REMARK    9  A    between atoms: C_39  and  C_40
REMARK                            x       y       z     vdW  Elec       q    Type
REMARK                         _______ _______ _______ _____ _____    ______ ____
ROOT
ATOM      2  O   UNL     1      -5.692   0.008  25.112  0.00  0.00    -0.370 OA
ATOM      3  O   UNL     1      -2.710   0.218  26.131  0.00  0.00    -0.370 OA
ATOM     16  C   UNL     1      -3.401   0.632  24.942  0.00  0.00    +0.170 C 
ATOM     17  C   UNL     1      -4.422  -0.438  24.605  0.00  0.00    +0.175 C 
ATOM     18  C   UNL     1      -4.226   1.865  25.222  0.00  0.00    +0.133 C 
ATOM     19  C   UNL     1      -3.964  -1.665  25.371  0.00  0.00    +0.171 C 
ATOM     20  C   UNL     1      -5.529   1.289  25.738  0.00  0.00    +0.183 C 
ATOM     21  C   UNL     1      -3.190  -1.069  26.542  0.00  0.00    +0.190 C 
ENDROOT
BRANCH  19  10
ATOM     10  N   UNL     1      -3.201  -2.597  24.536  0.00  0.00    -0.187 N 
ATOM     11  N   UNL     1      -3.786  -3.668  23.981  0.00  0.00    -0.041 NA
ATOM     12  N   UNL     1      -1.627  -3.596  23.430  0.00  0.00    -0.071 NA
ATOM     13  N   UNL     1      -2.818  -4.276  23.306  0.00  0.00    -0.020 NA
ATOM     22  C   UNL     1      -1.888  -2.561  24.194  0.00  0.00    +0.342 A 
BRANCH  22   4
ATOM      4  O   UNL     1      -1.034  -1.631  24.580  0.00  0.00    -0.423 OA
BRANCH   4  26
ATOM     26  C   UNL     1      -0.145  -1.022  23.706  0.00  0.00    +0.134 A 
ATOM     29  C   UNL     1       1.217  -0.993  24.003  0.00  0.00    +0.069 A 
ATOM     31  C   UNL     1       2.110  -0.379  23.124  0.00  0.00    +0.033 A 
ATOM     32  C   UNL     1      -0.615  -0.437  22.530  0.00  0.00    +0.046 A 
ATOM     37  C   UNL     1       1.640   0.205  21.948  0.00  0.00    +0.023 A 
ATOM     38  C   UNL     1       0.278   0.177  21.651  0.00  0.00    +0.005 A 
BRANCH  31  14
ATOM      7  O   UNL     1       6.267  -0.352  23.750  0.00  0.00    -0.377 OA
ATOM     14  N   UNL     1       3.476  -0.351  23.422  0.00  0.00    -0.325 N 
ATOM     33  C   UNL     1       4.297   0.703  22.808  0.00  0.00    +0.133 C 
ATOM     34  C   UNL     1       4.186  -1.599  23.725  0.00  0.00    +0.133 C 
ATOM     35  C   UNL     1       5.579   0.890  23.612  0.00  0.00    +0.178 C 
ATOM     36  C   UNL     1       5.475  -1.288  24.479  0.00  0.00    +0.178 C 
ENDBRANCH  31  14
ENDBRANCH   4  26
ENDBRANCH  22   4
ENDBRANCH  19  10
BRANCH  18   9
ATOM      9  N   UNL     1      -4.474   2.603  23.960  0.00  0.00    -0.182 NA
ATOM     41  H   UNL     1      -5.322   2.372  23.431  0.00  0.00    +0.148 HD
BRANCH   9   1
ATOM      1  S   UNL     1      -3.212   3.477  23.233  0.00  0.00    +0.059 S 
ATOM      5  O   UNL     1      -3.548   4.889  23.220  0.00  0.00    -0.153 OA
ATOM      6  O   UNL     1      -2.828   2.807  22.005  0.00  0.00    -0.153 OA
BRANCH   1  23
ATOM     23  C   UNL     1      -1.893   3.241  24.384  0.00  0.00    +0.105 A 
ATOM     24  C   UNL     1      -0.743   2.552  23.996  0.00  0.00    +0.030 A 
ATOM     25  C   UNL     1      -1.999   3.743  25.681  0.00  0.00    +0.030 A 
ATOM     27  C   UNL     1       0.299   2.365  24.904  0.00  0.00    +0.025 A 
ATOM     28  C   UNL     1      -0.958   3.556  26.591  0.00  0.00    +0.025 A 
ATOM     30  C   UNL     1       0.191   2.869  26.202  0.00  0.00    +0.033 A 
BRANCH  30  15
ATOM      8  O   UNL     1       0.149   2.635  29.203  0.00  0.00    -0.276 OA
ATOM     15  N   UNL     1       1.234   2.682  27.110  0.00  0.00    -0.286 N 
ATOM     39  C   UNL     1       1.157   2.581  28.506  0.00  0.00    +0.214 C 
ATOM     40  C   UNL     1       2.517   2.382  29.128  0.00  0.00    +0.109 C 
ATOM     42  H   UNL     1       2.162   2.610  26.698  0.00  0.00    +0.155 HD
ENDBRANCH  30  15
ENDBRANCH   1  23
ENDBRANCH   9   1
ENDBRANCH  18   9
TORSDOF 8
ENDMDL
MODEL 2
REMARK VINA RESULT:       7.8      2.224      5.982
REMARK  Name = 11879615
REMARK  9 active torsions:
REMARK  status: ('A' for Active; 'I' for Inactive)
REMARK    1  A    between atoms: S_1  and  N_9
REMARK    2  A    between atoms: S_1  and  C_23
REMARK    3  A    between atoms: O_4  and  C_22
REMARK    4  A    between atoms: O_4  and  C_26
REMARK    5  A    between atoms: N_9  and  C_18
REMARK    6  A    between atoms: N_10  and  C_19
REMARK    7  A    between atoms: N_14  and  C_31
REMARK    8  A    between atoms: N_15  and  C_30
REMARK    9  A    between atoms: C_39  and  C_40
REMARK                            x       y       z     vdW  Elec       q    Type
REMARK                         _______ _______ _______ _____ _____    ______ ____
ROOT
ATOM      2  O   UNL     1      -1.887  -1.549  26.249  0.00  0.00    -0.370 OA
ATOM      3  O   UNL     1      -3.204  -1.490  23.379  0.00  0.00    -0.370 OA
ATOM     16  C   UNL     1      -2.062  -0.857  23.978  0.00  0.00    +0.170 C 
ATOM     17  C   UNL     1      -2.424  -0.511  25.409  0.00  0.00    +0.175 C 
ATOM     18  C   UNL     1      -0.927  -1.844  24.104  0.00  0.00    +0.133 C 
ATOM     19  C   UNL     1      -3.940  -0.553  25.447  0.00  0.00    +0.171 C 
ATOM     20  C   UNL     1      -1.210  -2.515  25.433  0.00  0.00    +0.183 C 
ATOM     21  C   UNL     1      -4.284  -1.522  24.321  0.00  0.00    +0.190 C 
ENDROOT
BRANCH  19  10
ATOM     10  N   UNL     1      -4.542   0.778  25.322  0.00  0.00    -0.187 N 
ATOM     11  N   UNL     1      -5.772   1.029  25.793  0.00  0.00    -0.041 NA
ATOM     12  N   UNL     1      -4.908   2.867  24.872  0.00  0.00    -0.071 NA
ATOM     13  N   UNL     1      -5.991   2.309  25.514  0.00  0.00    -0.020 NA
ATOM     22  C   UNL     1      -4.024   1.903  24.765  0.00  0.00    +0.342 A 
BRANCH  22   4
ATOM      4  O   UNL     1      -2.829   1.988  24.211  0.00  0.00    -0.423 OA
BRANCH   4  26
ATOM     26  C   UNL     1      -1.845   2.844  24.682  0.00  0.00    +0.134 A 
ATOM     29  C   UNL     1      -1.111   2.506  25.819  0.00  0.00    +0.069 A 
ATOM     31  C   UNL     1      -0.122   3.368  26.293  0.00  0.00    +0.033 A 
ATOM     32  C   UNL     1      -1.590   4.044  24.019  0.00  0.00    +0.046 A 
ATOM     37  C   UNL     1       0.133   4.568  25.630  0.00  0.00    +0.023 A 
ATOM     38  C   UNL     1      -0.600   4.907  24.493  0.00  0.00    +0.005 A 
BRANCH  31  14
ATOM      7  O   UNL     1       2.164   2.112  29.590  0.00  0.00    -0.377 OA
ATOM     14  N   UNL     1       0.614   3.029  27.432  0.00  0.00    -0.325 N 
ATOM     33  C   UNL     1       2.076   2.935  27.311  0.00  0.00    +0.133 C 
ATOM     34  C   UNL     1       0.017   2.170  28.462  0.00  0.00    +0.133 C 
ATOM     35  C   UNL     1       2.717   3.069  28.688  0.00  0.00    +0.178 C 
ATOM     36  C   UNL     1       0.769   2.344  29.777  0.00  0.00    +0.178 C 
ENDBRANCH  31  14
ENDBRANCH   4  26
ENDBRANCH  22   4
ENDBRANCH  19  10
BRANCH  18   9
ATOM      9  N   UNL     1       0.365  -1.120  24.178  0.00  0.00    -0.182 NA
ATOM     41  H   UNL     1       0.822  -1.051  25.095  0.00  0.00    +0.148 HD
BRANCH   9   1
ATOM      1  S   UNL     1       0.842  -0.113  22.896  0.00  0.00    +0.059 S 
ATOM      5  O   UNL     1       0.301   1.217  23.101  0.00  0.00    -0.153 OA
ATOM      6  O   UNL     1       0.612  -0.810  21.645  0.00  0.00    -0.153 OA
BRANCH   1  23
ATOM     23  C   UNL     1       2.592  -0.032  23.126  0.00  0.00    +0.105 A 
ATOM     24  C   UNL     1       3.290   1.123  22.771  0.00  0.00    +0.030 A 
ATOM     25  C   UNL     1       3.277  -1.122  23.664  0.00  0.00    +0.030 A 
ATOM     27  C   UNL     1       4.671   1.187  22.952  0.00  0.00    +0.025 A 
ATOM     28  C   UNL     1       4.658  -1.059  23.845  0.00  0.00    +0.025 A 
ATOM     30  C   UNL     1       5.355   0.095  23.490  0.00  0.00    +0.033 A 
BRANCH  30  15
ATOM      8  O   UNL     1       7.592  -1.210  21.954  0.00  0.00    -0.276 OA
ATOM     15  N   UNL     1       6.737   0.160  23.672  0.00  0.00    -0.286 N 
ATOM     39  C   UNL     1       7.738  -0.473  22.924  0.00  0.00    +0.214 C 
ATOM     40  C   UNL     1       9.116  -0.146  23.443  0.00  0.00    +0.109 C 
ATOM     42  H   UNL     1       7.047   0.743  24.447  0.00  0.00    +0.155 HD
ENDBRANCH  30  15
ENDBRANCH   1  23
ENDBRANCH   9   1
ENDBRANCH  18   9
TORSDOF 8
ENDMDL
MODEL 3
REMARK VINA RESULT:       8.8      2.387      6.849
REMARK  Name = 11879615
REMARK  9 active torsions:
REMARK  status: ('A' for Active; 'I' for Inactive)
REMARK    1  A    between atoms: S_1  and  N_9
REMARK    2  A    between atoms: S_1  and  C_23
REMARK    3  A    between atoms: O_4  and  C_22
REMARK    4  A    between atoms: O_4  and  C_26
REMARK    5  A    between atoms: N_9  and  C_18
REMARK    6  A    between atoms: N_10  and  C_19
REMARK    7  A    between atoms: N_14  and  C_31
REMARK    8  A    between atoms: N_15  and  C_30
REMARK    9  A    between atoms: C_39  and  C_40
REMARK                            x       y       z     vdW  Elec       q    Type
REMARK                         _______ _______ _______ _____ _____    ______ ____
ROOT
ATOM      2  O   UNL     1      -0.217   4.176  24.081  0.00  0.00    -0.370 OA
ATOM      3  O   UNL     1      -0.631   2.227  26.530  0.00  0.00    -0.370 OA
ATOM     16  C   UNL     1      -0.823   2.118  25.111  0.00  0.00    +0.170 C 
ATOM     17  C   UNL     1      -1.341   3.452  24.611  0.00  0.00    +0.175 C 
ATOM     18  C   UNL     1       0.507   1.947  24.418  0.00  0.00    +0.133 C 
ATOM     19  C   UNL     1      -1.866   4.153  25.851  0.00  0.00    +0.171 C 
ATOM     20  C   UNL     1       0.966   3.376  24.213  0.00  0.00    +0.183 C 
ATOM     21  C   UNL     1      -1.043   3.527  26.972  0.00  0.00    +0.190 C 
ENDROOT
BRANCH  19  10
ATOM     10  N   UNL     1      -3.318   4.020  26.000  0.00  0.00    -0.187 N 
ATOM     11  N   UNL     1      -3.895   4.044  27.210  0.00  0.00    -0.041 NA
ATOM     12  N   UNL     1      -5.440   3.786  25.623  0.00  0.00    -0.071 NA
ATOM     13  N   UNL     1      -5.194   3.899  26.973  0.00  0.00    -0.020 NA
ATOM     22  C   UNL     1      -4.266   3.864  25.041  0.00  0.00    +0.342 A 
BRANCH  22   4
ATOM      4  O   UNL     1      -4.023   3.801  23.745  0.00  0.00    -0.423 OA
BRANCH   4  26
ATOM     26  C   UNL     1      -3.569   2.646  23.124  0.00  0.00    +0.134 A 
ATOM     29  C   UNL     1      -3.611   1.427  23.800  0.00  0.00    +0.069 A 
ATOM     31  C   UNL     1      -3.153   0.266  23.176  0.00  0.00    +0.033 A 
ATOM     32  C   UNL     1      -3.069   2.705  21.823  0.00  0.00    +0.046 A 
ATOM     37  C   UNL     1      -2.653   0.326  21.875  0.00  0.00    +0.023 A 
ATOM     38  C   UNL     1      -2.611   1.545  21.199  0.00  0.00    +0.005 A 
BRANCH  31  14
ATOM      7  O   UNL     1      -3.501  -3.313  25.352  0.00  0.00    -0.377 OA
ATOM     14  N   UNL     1      -3.195  -0.956  23.853  0.00  0.00    -0.325 N 
ATOM     33  C   UNL     1      -4.355  -1.831  23.633  0.00  0.00    +0.133 C 
ATOM     34  C   UNL     1      -2.554  -1.088  25.167  0.00  0.00    +0.133 C 
ATOM     35  C   UNL     1      -3.999  -3.263  24.016  0.00  0.00    +0.178 C 
ATOM     36  C   UNL     1      -2.295  -2.560  25.468  0.00  0.00    +0.178 C 
ENDBRANCH  31  14
ENDBRANCH   4  26
ENDBRANCH  22   4
ENDBRANCH  19  10
BRANCH  18   9
ATOM      9  N   UNL     1       0.310   1.294  23.102  0.00  0.00    -0.182 NA
ATOM     41  H   UNL     1      -0.353   1.727  22.448  0.00  0.00    +0.148 HD
BRANCH   9   1
ATOM      1  S   UNL     1       0.841  -0.302  22.864  0.00  0.00    +0.059 S 
ATOM      5  O   UNL     1       0.600  -0.691  21.488  0.00  0.00    -0.153 OA
ATOM      6  O   UNL     1       0.348  -1.124  23.952  0.00  0.00    -0.153 OA
BRANCH   1  23
ATOM     23  C   UNL     1       2.587  -0.143  23.088  0.00  0.00    +0.105 A 
ATOM     24  C   UNL     1       3.311  -1.178  23.682  0.00  0.00    +0.030 A 
ATOM     25  C   UNL     1       3.242   1.015  22.671  0.00  0.00    +0.030 A 
ATOM     27  C   UNL     1       4.688  -1.053  23.860  0.00  0.00    +0.025 A 
ATOM     28  C   UNL     1       4.620   1.141  22.848  0.00  0.00    +0.025 A 
ATOM     30  C   UNL     1       5.343   0.107  23.442  0.00  0.00    +0.033 A 
BRANCH  30  15
ATOM      8  O   UNL     1       7.625  -1.262  22.033  0.00  0.00    -0.276 OA
ATOM     15  N   UNL     1       6.721   0.231  23.619  0.00  0.00    -0.286 N 
ATOM     39  C   UNL     1       7.745  -0.435  22.933  0.00  0.00    +0.214 C 
ATOM     40  C   UNL     1       9.110  -0.020  23.422  0.00  0.00    +0.109 C 
ATOM     42  H   UNL     1       7.009   0.892  24.338  0.00  0.00    +0.155 HD
ENDBRANCH  30  15
ENDBRANCH   1  23
ENDBRANCH   9   1
ENDBRANCH  18   9
TORSDOF 8
ENDMDL
MODEL 4
REMARK VINA RESULT:       9.2      2.003      4.589
REMARK  Name = 11879615
REMARK  9 active torsions:
REMARK  status: ('A' for Active; 'I' for Inactive)
REMARK    1  A    between atoms: S_1  and  N_9
REMARK    2  A    between atoms: S_1  and  C_23
REMARK    3  A    between atoms: O_4  and  C_22
REMARK    4  A    between atoms: O_4  and  C_26
REMARK    5  A    between atoms: N_9  and  C_18
REMARK    6  A    between atoms: N_10  and  C_19
REMARK    7  A    between atoms: N_14  and  C_31
REMARK    8  A    between atoms: N_15  and  C_30
REMARK    9  A    between atoms: C_39  and  C_40
REMARK                            x       y       z     vdW  Elec       q    Type
REMARK                         _______ _______ _______ _____ _____    ______ ____
ROOT
ATOM      2  O   UNL     1      -3.749   5.217  26.296  0.00  0.00    -0.370 OA
ATOM      3  O   UNL     1      -3.024   3.401  23.818  0.00  0.00    -0.370 OA
ATOM     16  C   UNL     1      -3.711   3.184  25.059  0.00  0.00    +0.170 C 
ATOM     17  C   UNL     1      -3.005   3.998  26.127  0.00  0.00    +0.175 C 
ATOM     18  C   UNL     1      -5.100   3.773  24.995  0.00  0.00    +0.133 C 
ATOM     19  C   UNL     1      -1.640   4.305  25.539  0.00  0.00    +0.171 C 
ATOM     20  C   UNL     1      -4.875   5.213  25.409  0.00  0.00    +0.183 C 
ATOM     21  C   UNL     1      -1.896   4.258  24.037  0.00  0.00    +0.190 C 
ENDROOT
BRANCH  19  10
ATOM     10  N   UNL     1      -0.602   3.388  26.019  0.00  0.00    -0.187 N 
ATOM     11  N   UNL     1       0.047   3.617  27.170  0.00  0.00    -0.041 NA
ATOM     12  N   UNL     1       0.791   1.739  26.225  0.00  0.00    -0.071 NA
ATOM     13  N   UNL     1       0.899   2.606  27.290  0.00  0.00    -0.020 NA
ATOM     22  C   UNL     1      -0.143   2.243  25.452  0.00  0.00    +0.342 A 
BRANCH  22   4
ATOM      4  O   UNL     1      -0.578   1.740  24.312  0.00  0.00    -0.423 OA
BRANCH   4  26
ATOM     26  C   UNL     1       0.217   0.955  23.488  0.00  0.00    +0.134 A 
ATOM     29  C   UNL     1       1.568   0.779  23.785  0.00  0.00    +0.069 A 
ATOM     31  C   UNL     1       2.368  -0.009  22.957  0.00  0.00    +0.033 A 
ATOM     32  C   UNL     1      -0.335   0.345  22.363  0.00  0.00    +0.046 A 
ATOM     37  C   UNL     1       1.815  -0.620  21.832  0.00  0.00    +0.023 A 
ATOM     38  C   UNL     1       0.464  -0.444  21.534  0.00  0.00    +0.005 A 
BRANCH  31  14
ATOM      7  O   UNL     1       6.485  -0.589  23.580  0.00  0.00    -0.377 OA
ATOM     14  N   UNL     1       3.722  -0.187  23.255  0.00  0.00    -0.325 N 
ATOM     33  C   UNL     1       4.683   0.789  22.722  0.00  0.00    +0.133 C 
ATOM     34  C   UNL     1       4.255  -1.538  23.462  0.00  0.00    +0.133 C 
ATOM     35  C   UNL     1       5.971   0.742  23.537  0.00  0.00    +0.178 C 
ATOM     36  C   UNL     1       5.566  -1.462  24.237  0.00  0.00    +0.178 C 
ENDBRANCH  31  14
ENDBRANCH   4  26
ENDBRANCH  22   4
ENDBRANCH  19  10
BRANCH  18   9
ATOM      9  N   UNL     1      -5.979   3.103  25.983  0.00  0.00    -0.182 NA
ATOM     41  H   UNL     1      -5.957   3.445  26.951  0.00  0.00    +0.148 HD
BRANCH   9   1
ATOM      1  S   UNL     1      -6.665   1.594  25.614  0.00  0.00    +0.059 S 
ATOM      5  O   UNL     1      -7.388   1.685  24.360  0.00  0.00    -0.153 OA
ATOM      6  O   UNL     1      -7.322   1.079  26.800  0.00  0.00    -0.153 OA
BRANCH   1  23
ATOM     23  C   UNL     1      -5.231   0.597  25.347  0.00  0.00    +0.105 A 
ATOM     24  C   UNL     1      -4.757   0.389  24.050  0.00  0.00    +0.030 A 
ATOM     25  C   UNL     1      -4.571   0.017  26.430  0.00  0.00    +0.030 A 
ATOM     27  C   UNL     1      -3.625  -0.398  23.839  0.00  0.00    +0.025 A 
ATOM     28  C   UNL     1      -3.439  -0.771  26.219  0.00  0.00    +0.025 A 
ATOM     30  C   UNL     1      -2.966  -0.977  24.924  0.00  0.00    +0.033 A 
BRANCH  30  15
ATOM      8  O   UNL     1      -0.373  -1.121  26.448  0.00  0.00    -0.276 OA
ATOM     15  N   UNL     1      -1.833  -1.764  24.712  0.00  0.00    -0.286 N 
ATOM     39  C   UNL     1      -0.647  -1.790  25.456  0.00  0.00    +0.214 C 
ATOM     40  C   UNL     1       0.342  -2.784  24.899  0.00  0.00    +0.109 C 
ATOM     42  H   UNL     1      -1.887  -2.396  23.916  0.00  0.00    +0.155 HD
ENDBRANCH  30  15
ENDBRANCH   1  23
ENDBRANCH   9   1
ENDBRANCH  18   9
TORSDOF 8
ENDMDL
MODEL 5
REMARK VINA RESULT:       9.7      1.977      4.431
REMARK  Name = 11879615
REMARK  9 active torsions:
REMARK  status: ('A' for Active; 'I' for Inactive)
REMARK    1  A    between atoms: S_1  and  N_9
REMARK    2  A    between atoms: S_1  and  C_23
REMARK    3  A    between atoms: O_4  and  C_22
REMARK    4  A    between atoms: O_4  and  C_26
REMARK    5  A    between atoms: N_9  and  C_18
REMARK    6  A    between atoms: N_10  and  C_19
REMARK    7  A    between atoms: N_14  and  C_31
REMARK    8  A    between atoms: N_15  and  C_30
REMARK    9  A    between atoms: C_39  and  C_40
REMARK                            x       y       z     vdW  Elec       q    Type
REMARK                         _______ _______ _______ _____ _____    ______ ____
ROOT
ATOM      2  O   UNL     1      -1.707   4.350  26.405  0.00  0.00    -0.370 OA
ATOM      3  O   UNL     1      -0.594   3.059  23.747  0.00  0.00    -0.370 OA
ATOM     16  C   UNL     1      -1.904   3.244  24.307  0.00  0.00    +0.170 C 
ATOM     17  C   UNL     1      -1.797   3.045  25.806  0.00  0.00    +0.175 C 
ATOM     18  C   UNL     1      -2.340   4.681  24.148  0.00  0.00    +0.133 C 
ATOM     19  C   UNL     1      -0.492   2.297  26.006  0.00  0.00    +0.171 C 
ATOM     20  C   UNL     1      -1.757   5.348  25.376  0.00  0.00    +0.183 C 
ATOM     21  C   UNL     1       0.327   2.705  24.786  0.00  0.00    +0.190 C 
ENDROOT
BRANCH  19  10
ATOM     10  N   UNL     1      -0.691   0.853  26.162  0.00  0.00    -0.187 N 
ATOM     11  N   UNL     1      -0.693   0.280  27.374  0.00  0.00    -0.041 NA
ATOM     12  N   UNL     1      -1.022  -1.258  25.794  0.00  0.00    -0.071 NA
ATOM     13  N   UNL     1      -0.896  -1.011  27.143  0.00  0.00    -0.020 NA
ATOM     22  C   UNL     1      -0.893  -0.091  25.207  0.00  0.00    +0.342 A 
BRANCH  22   4
ATOM      4  O   UNL     1      -0.945   0.148  23.910  0.00  0.00    -0.423 OA
BRANCH   4  26
ATOM     26  C   UNL     1       0.137  -0.063  23.066  0.00  0.00    +0.134 A 
ATOM     29  C   UNL     1       1.434  -0.040  23.577  0.00  0.00    +0.069 A 
ATOM     31  C   UNL     1       2.522  -0.251  22.729  0.00  0.00    +0.033 A 
ATOM     32  C   UNL     1      -0.074  -0.295  21.708  0.00  0.00    +0.046 A 
ATOM     37  C   UNL     1       2.310  -0.484  21.370  0.00  0.00    +0.023 A 
ATOM     38  C   UNL     1       1.013  -0.507  20.859  0.00  0.00    +0.005 A 
BRANCH  31  14
ATOM      7  O   UNL     1       6.527  -0.226  24.005  0.00  0.00    -0.377 OA
ATOM     14  N   UNL     1       3.823  -0.229  23.240  0.00  0.00    -0.325 N 
ATOM     33  C   UNL     1       4.707   0.873  22.838  0.00  0.00    +0.133 C 
ATOM     34  C   UNL     1       4.503  -1.488  23.565  0.00  0.00    +0.133 C 
ATOM     35  C   UNL     1       5.842   1.016  23.845  0.00  0.00    +0.178 C 
ATOM     36  C   UNL     1       5.650  -1.219  24.533  0.00  0.00    +0.178 C 
ENDBRANCH  31  14
ENDBRANCH   4  26
ENDBRANCH  22   4
ENDBRANCH  19  10
BRANCH  18   9
ATOM      9  N   UNL     1      -3.820   4.767  24.190  0.00  0.00    -0.182 NA
ATOM     41  H   UNL     1      -4.271   5.508  23.642  0.00  0.00    +0.148 HD
BRANCH   9   1
ATOM      1  S   UNL     1      -4.677   3.945  25.404  0.00  0.00    +0.059 S 
ATOM      5  O   UNL     1      -6.081   4.304  25.330  0.00  0.00    -0.153 OA
ATOM      6  O   UNL     1      -3.955   4.077  26.655  0.00  0.00    -0.153 OA
BRANCH   1  23
ATOM     23  C   UNL     1      -4.516   2.262  24.891  0.00  0.00    +0.105 A 
ATOM     24  C   UNL     1      -4.812   1.230  25.782  0.00  0.00    +0.030 A 
ATOM     25  C   UNL     1      -4.094   1.965  23.595  0.00  0.00    +0.030 A 
ATOM     27  C   UNL     1      -4.684  -0.099  25.377  0.00  0.00    +0.025 A 
ATOM     28  C   UNL     1      -3.966   0.636  23.189  0.00  0.00    +0.025 A 
ATOM     30  C   UNL     1      -4.262  -0.395  24.080  0.00  0.00    +0.033 A 
BRANCH  30  15
ATOM      8  O   UNL     1      -3.479  -2.847  25.641  0.00  0.00    -0.276 OA
ATOM     15  N   UNL     1      -4.136  -1.724  23.675  0.00  0.00    -0.286 N 
ATOM     39  C   UNL     1      -3.764  -2.832  24.448  0.00  0.00    +0.214 C 
ATOM     40  C   UNL     1      -3.746  -4.102  23.634  0.00  0.00    +0.109 C 
ATOM     42  H   UNL     1      -4.343  -1.901  22.694  0.00  0.00    +0.155 HD
ENDBRANCH  30  15
ENDBRANCH   1  23
ENDBRANCH   9   1
ENDBRANCH  18   9
TORSDOF 8
ENDMDL
MODEL 6
REMARK VINA RESULT:      10.1      1.394      1.742
REMARK  Name = 11879615
REMARK  9 active torsions:
REMARK  status: ('A' for Active; 'I' for Inactive)
REMARK    1  A    between atoms: S_1  and  N_9
REMARK    2  A    between atoms: S_1  and  C_23
REMARK    3  A    between atoms: O_4  and  C_22
REMARK    4  A    between atoms: O_4  and  C_26
REMARK    5  A    between atoms: N_9  and  C_18
REMARK    6  A    between atoms: N_10  and  C_19
REMARK    7  A    between atoms: N_14  and  C_31
REMARK    8  A    between atoms: N_15  and  C_30
REMARK    9  A    between atoms: C_39  and  C_40
REMARK                            x       y       z     vdW  Elec       q    Type
REMARK                         _______ _______ _______ _____ _____    ______ ____
ROOT
ATOM      2  O   UNL     1      -3.793   1.614  23.292  0.00  0.00    -0.370 OA
ATOM      3  O   UNL     1      -5.899  -0.171  24.824  0.00  0.00    -0.370 OA
ATOM     16  C   UNL     1      -4.947   0.828  25.220  0.00  0.00    +0.170 C 
ATOM     17  C   UNL     1      -3.710   0.654  24.359  0.00  0.00    +0.175 C 
ATOM     18  C   UNL     1      -5.459   2.204  24.868  0.00  0.00    +0.133 C 
ATOM     19  C   UNL     1      -3.825  -0.751  23.797  0.00  0.00    +0.171 C 
ATOM     20  C   UNL     1      -4.998   2.379  23.436  0.00  0.00    +0.183 C 
ATOM     21  C   UNL     1      -5.329  -1.001  23.804  0.00  0.00    +0.190 C 
ENDROOT
BRANCH  19  10
ATOM     10  N   UNL     1      -3.032  -1.726  24.553  0.00  0.00    -0.187 N 
ATOM     11  N   UNL     1      -3.525  -2.317  25.651  0.00  0.00    -0.041 NA
ATOM     12  N   UNL     1      -1.457  -3.045  25.244  0.00  0.00    -0.071 NA
ATOM     13  N   UNL     1      -2.556  -3.122  26.070  0.00  0.00    -0.020 NA
ATOM     22  C   UNL     1      -1.774  -2.176  24.313  0.00  0.00    +0.342 A 
BRANCH  22   4
ATOM      4  O   UNL     1      -1.014  -1.787  23.306  0.00  0.00    -0.423 OA
BRANCH   4  26
ATOM     26  C   UNL     1      -0.167  -0.691  23.386  0.00  0.00    +0.134 A 
ATOM     29  C   UNL     1       1.215  -0.878  23.418  0.00  0.00    +0.069 A 
ATOM     31  C   UNL     1       2.066   0.224  23.500  0.00  0.00    +0.033 A 
ATOM     32  C   UNL     1      -0.698   0.597  23.436  0.00  0.00    +0.046 A 
ATOM     37  C   UNL     1       1.535   1.513  23.549  0.00  0.00    +0.023 A 
ATOM     38  C   UNL     1       0.153   1.700  23.518  0.00  0.00    +0.005 A 
BRANCH  31  14
ATOM      7  O   UNL     1       6.223  -0.377  23.318  0.00  0.00    -0.377 OA
ATOM     14  N   UNL     1       3.451   0.037  23.531  0.00  0.00    -0.325 N 
ATOM     33  C   UNL     1       4.299   1.022  22.844  0.00  0.00    +0.133 C 
ATOM     34  C   UNL     1       4.006  -1.319  23.608  0.00  0.00    +0.133 C 
ATOM     35  C   UNL     1       5.718   0.955  23.398  0.00  0.00    +0.178 C 
ATOM     36  C   UNL     1       5.441  -1.260  24.121  0.00  0.00    +0.178 C 
ENDBRANCH  31  14
ENDBRANCH   4  26
ENDBRANCH  22   4
ENDBRANCH  19  10
BRANCH  18   9
ATOM      9  N   UNL     1      -4.807   3.221  25.728  0.00  0.00    -0.182 NA
ATOM     41  H   UNL     1      -5.191   3.366  26.669  0.00  0.00    +0.148 HD
BRANCH   9   1
ATOM      1  S   UNL     1      -3.755   4.360  25.037  0.00  0.00    +0.059 S 
ATOM      5  O   UNL     1      -4.060   5.679  25.560  0.00  0.00    -0.153 OA
ATOM      6  O   UNL     1      -3.701   4.137  23.605  0.00  0.00    -0.153 OA
BRANCH   1  23
ATOM     23  C   UNL     1      -2.192   3.862  25.696  0.00  0.00    +0.105 A 
ATOM     24  C   UNL     1      -1.029   4.534  25.318  0.00  0.00    +0.030 A 
ATOM     25  C   UNL     1      -2.121   2.796  26.593  0.00  0.00    +0.030 A 
ATOM     27  C   UNL     1       0.204   4.141  25.838  0.00  0.00    +0.025 A 
ATOM     28  C   UNL     1      -0.888   2.402  27.113  0.00  0.00    +0.025 A 
ATOM     30  C   UNL     1       0.274   3.075  26.736  0.00  0.00    +0.033 A 
BRANCH  30  15
ATOM      8  O   UNL     1       1.197   2.809  29.589  0.00  0.00    -0.276 OA
ATOM     15  N   UNL     1       1.508   2.682  27.256  0.00  0.00    -0.286 N 
ATOM     39  C   UNL     1       1.886   2.577  28.601  0.00  0.00    +0.214 C 
ATOM     40  C   UNL     1       3.314   2.115  28.746  0.00  0.00    +0.109 C 
ATOM     42  H   UNL     1       2.215   2.442  26.563  0.00  0.00    +0.155 HD
ENDBRANCH  30  15
ENDBRANCH   1  23
ENDBRANCH   9   1
ENDBRANCH  18   9
TORSDOF 8
ENDMDL
