MODEL 1
REMARK VINA RESULT:       2.7      0.000      0.000
REMARK  Name = 28959933
REMARK  8 active torsions:
REMARK  status: ('A' for Active; 'I' for Inactive)
REMARK    1  A    between atoms: O_3  and  C_27
REMARK    2  A    between atoms: N_6  and  C_16
REMARK    3  A    between atoms: N_7  and  C_28
REMARK    4  A    between atoms: C_8  and  C_12
REMARK    5  A    between atoms: C_9  and  C_15
REMARK    6  A    between atoms: C_12  and  C_16
REMARK    7  A    between atoms: C_14  and  C_17
REMARK    8  A    between atoms: C_15  and  C_27
REMARK                            x       y       z     vdW  Elec       q    Type
REMARK                         _______ _______ _______ _____ _____    ______ ____
ROOT
ATOM      2  O   UNL     1      -6.419   4.008  25.737  0.00  0.00    -0.275 OA
ATOM      5  N   UNL     1      -4.860   2.286  25.794  0.00  0.00    -0.301 N 
ATOM      8  C   UNL     1      -3.326   0.691  24.665  0.00  0.00    +0.011 C 
ATOM      9  C   UNL     1      -4.365  -0.431  24.921  0.00  0.00    +0.006 C 
ATOM     10  C   UNL     1      -3.478   1.796  25.726  0.00  0.00    +0.111 C 
ATOM     11  C   UNL     1      -5.791   0.134  25.035  0.00  0.00    +0.023 C 
ATOM     13  C   UNL     1      -5.861   1.257  26.067  0.00  0.00    +0.108 C 
ATOM     17  C   UNL     1      -5.252   3.617  25.650  0.00  0.00    +0.219 C 
ENDROOT
BRANCH  17  14
ATOM     14  C   UNL     1      -4.167   4.611  25.369  0.00  0.00    +0.075 C 
ATOM     18  C   UNL     1      -2.866   4.162  26.034  0.00  0.00    +0.013 C 
ATOM     19  C   UNL     1      -4.001   4.761  23.856  0.00  0.00    +0.013 C 
ATOM     20  C   UNL     1      -1.709   5.095  25.686  0.00  0.00    +0.001 C 
ATOM     21  C   UNL     1      -2.841   5.691  23.509  0.00  0.00    +0.001 C 
ATOM     22  C   UNL     1      -1.543   5.244  24.176  0.00  0.00    +0.000 C 
ENDBRANCH  17  14
BRANCH   8  12
ATOM     12  C   UNL     1      -3.394   1.294  23.256  0.00  0.00    +0.020 C 
BRANCH  12  16
ATOM     16  C   UNL     1      -2.159   2.134  22.964  0.00  0.00    +0.085 C 
BRANCH  16   6
ATOM      6  N   UNL     1      -0.958   1.418  23.391  0.00  0.00    -0.299 NA
ATOM      7  N   UNL     1       1.802   0.686  23.329  0.00  0.00    -0.327 N 
ATOM     23  C   UNL     1       0.070   2.361  23.845  0.00  0.00    +0.103 C 
ATOM     24  C   UNL     1      -0.433   0.595  22.294  0.00  0.00    +0.103 C 
ATOM     25  C   UNL     1       1.313   1.620  24.346  0.00  0.00    +0.120 C 
ATOM     26  C   UNL     1       0.791  -0.205  22.746  0.00  0.00    +0.120 C 
BRANCH   7  28
ATOM      1  F   UNL     1       7.032  -1.095  23.530  0.00  0.00    -0.205 F 
ATOM     28  C   UNL     1       3.125   0.235  23.379  0.00  0.00    +0.030 A 
ATOM     29  C   UNL     1       4.172   1.108  23.079  0.00  0.00    +0.026 A 
ATOM     30  C   UNL     1       3.399  -1.088  23.729  0.00  0.00    +0.026 A 
ATOM     31  C   UNL     1       5.491   0.658  23.130  0.00  0.00    +0.040 A 
ATOM     32  C   UNL     1       4.720  -1.537  23.780  0.00  0.00    +0.040 A 
ATOM     33  C   UNL     1       5.765  -0.663  23.480  0.00  0.00    +0.124 A 
ENDBRANCH   7  28
ENDBRANCH  16   6
ENDBRANCH  12  16
ENDBRANCH   8  12
BRANCH   9  15
ATOM     15  C   UNL     1      -4.310  -1.549  23.880  0.00  0.00    +0.124 C 
BRANCH  15  27
ATOM      4  O   UNL     1      -3.677  -3.705  24.826  0.00  0.00    -0.251 OA
ATOM     27  C   UNL     1      -3.371  -2.648  24.297  0.00  0.00    +0.305 C 
BRANCH  27   3
ATOM      3  O   UNL     1      -2.093  -2.297  23.995  0.00  0.00    -0.481 OA
ATOM     34  H   UNL     1      -1.488  -3.069  24.012  0.00  0.00    +0.295 HD
ENDBRANCH  27   3
ENDBRANCH  15  27
ENDBRANCH   9  15
TORSDOF 8
ENDMDL
MODEL 2
REMARK VINA RESULT:       3.3      1.707      4.627
REMARK  Name = 28959933
REMARK  8 active torsions:
REMARK  status: ('A' for Active; 'I' for Inactive)
REMARK    1  A    between atoms: O_3  and  C_27
REMARK    2  A    between atoms: N_6  and  C_16
REMARK    3  A    between atoms: N_7  and  C_28
REMARK    4  A    between atoms: C_8  and  C_12
REMARK    5  A    between atoms: C_9  and  C_15
REMARK    6  A    between atoms: C_12  and  C_16
REMARK    7  A    between atoms: C_14  and  C_17
REMARK    8  A    between atoms: C_15  and  C_27
REMARK                            x       y       z     vdW  Elec       q    Type
REMARK                         _______ _______ _______ _____ _____    ______ ____
ROOT
ATOM      2  O   UNL     1      -5.349   0.128  26.472  0.00  0.00    -0.275 OA
ATOM      5  N   UNL     1      -4.890   1.608  24.741  0.00  0.00    -0.301 N 
ATOM      8  C   UNL     1      -3.357   3.140  23.526  0.00  0.00    +0.011 C 
ATOM      9  C   UNL     1      -4.110   4.337  24.162  0.00  0.00    +0.006 C 
ATOM     10  C   UNL     1      -4.295   1.922  23.436  0.00  0.00    +0.111 C 
ATOM     11  C   UNL     1      -4.760   3.950  25.501  0.00  0.00    +0.023 C 
ATOM     13  C   UNL     1      -5.635   2.708  25.353  0.00  0.00    +0.108 C 
ATOM     17  C   UNL     1      -4.817   0.374  25.387  0.00  0.00    +0.219 C 
ENDROOT
BRANCH  17  14
ATOM     14  C   UNL     1      -4.033  -0.700  24.697  0.00  0.00    +0.075 C 
ATOM     18  C   UNL     1      -3.148  -1.429  25.707  0.00  0.00    +0.013 C 
ATOM     19  C   UNL     1      -4.999  -1.660  24.001  0.00  0.00    +0.013 C 
ATOM     20  C   UNL     1      -2.409  -2.600  25.063  0.00  0.00    +0.001 C 
ATOM     21  C   UNL     1      -4.260  -2.833  23.361  0.00  0.00    +0.001 C 
ATOM     22  C   UNL     1      -3.374  -3.558  24.370  0.00  0.00    +0.000 C 
ENDBRANCH  17  14
BRANCH   8  12
ATOM     12  C   UNL     1      -2.061   2.761  24.253  0.00  0.00    +0.020 C 
BRANCH  12  16
ATOM     16  C   UNL     1      -1.786   1.269  24.132  0.00  0.00    +0.085 C 
BRANCH  16   6
ATOM      6  N   UNL     1      -0.467   1.053  23.540  0.00  0.00    -0.299 NA
ATOM      7  N   UNL     1       2.293   0.315  23.519  0.00  0.00    -0.327 N 
ATOM     23  C   UNL     1      -0.074  -0.356  23.657  0.00  0.00    +0.103 C 
ATOM     24  C   UNL     1       0.535   1.907  24.190  0.00  0.00    +0.103 C 
ATOM     25  C   UNL     1       1.283  -0.607  22.992  0.00  0.00    +0.120 C 
ATOM     26  C   UNL     1       1.910   1.732  23.542  0.00  0.00    +0.120 C 
BRANCH   7  28
ATOM      1  F   UNL     1       7.659  -0.917  23.021  0.00  0.00    -0.205 F 
ATOM     28  C   UNL     1       3.651   0.003  23.393  0.00  0.00    +0.030 A 
ATOM     29  C   UNL     1       4.532   0.933  22.842  0.00  0.00    +0.026 A 
ATOM     30  C   UNL     1       4.124  -1.239  23.818  0.00  0.00    +0.026 A 
ATOM     31  C   UNL     1       5.886   0.622  22.716  0.00  0.00    +0.040 A 
ATOM     32  C   UNL     1       5.478  -1.550  23.692  0.00  0.00    +0.040 A 
ATOM     33  C   UNL     1       6.359  -0.619  23.141  0.00  0.00    +0.124 A 
ENDBRANCH   7  28
ENDBRANCH  16   6
ENDBRANCH  12  16
ENDBRANCH   8  12
BRANCH   9  15
ATOM     15  C   UNL     1      -3.232   5.577  24.328  0.00  0.00    +0.124 C 
BRANCH  15  27
ATOM      4  O   UNL     1      -0.875   5.482  24.941  0.00  0.00    -0.251 OA
ATOM     27  C   UNL     1      -2.051   5.305  25.218  0.00  0.00    +0.305 C 
BRANCH  27   3
ATOM      3  O   UNL     1      -2.481   4.822  26.413  0.00  0.00    -0.481 OA
ATOM     34  H   UNL     1      -2.684   5.543  27.047  0.00  0.00    +0.295 HD
ENDBRANCH  27   3
ENDBRANCH  15  27
ENDBRANCH   9  15
TORSDOF 8
ENDMDL
MODEL 3
REMARK VINA RESULT:       3.5      1.821      4.451
REMARK  Name = 28959933
REMARK  8 active torsions:
REMARK  status: ('A' for Active; 'I' for Inactive)
REMARK    1  A    between atoms: O_3  and  C_27
REMARK    2  A    between atoms: N_6  and  C_16
REMARK    3  A    between atoms: N_7  and  C_28
REMARK    4  A    between atoms: C_8  and  C_12
REMARK    5  A    between atoms: C_9  and  C_15
REMARK    6  A    between atoms: C_12  and  C_16
REMARK    7  A    between atoms: C_14  and  C_17
REMARK    8  A    between atoms: C_15  and  C_27
REMARK                            x       y       z     vdW  Elec       q    Type
REMARK                         _______ _______ _______ _____ _____    ______ ____
ROOT
ATOM      2  O   UNL     1      -6.178   1.078  27.016  0.00  0.00    -0.275 OA
ATOM      5  N   UNL     1      -5.318   2.018  25.074  0.00  0.00    -0.301 N 
ATOM      8  C   UNL     1      -3.416   2.823  23.693  0.00  0.00    +0.011 C 
ATOM      9  C   UNL     1      -3.821   4.277  24.050  0.00  0.00    +0.006 C 
ATOM     10  C   UNL     1      -4.648   1.903  23.772  0.00  0.00    +0.111 C 
ATOM     11  C   UNL     1      -4.564   4.343  25.394  0.00  0.00    +0.023 C 
ATOM     13  C   UNL     1      -5.743   3.373  25.425  0.00  0.00    +0.108 C 
ATOM     17  C   UNL     1      -5.589   0.959  25.939  0.00  0.00    +0.219 C 
ENDROOT
BRANCH  17  14
ATOM     14  C   UNL     1      -5.119  -0.397  25.509  0.00  0.00    +0.075 C 
ATOM     18  C   UNL     1      -4.905  -0.417  23.995  0.00  0.00    +0.013 C 
ATOM     19  C   UNL     1      -3.835  -0.748  26.261  0.00  0.00    +0.013 C 
ATOM     20  C   UNL     1      -4.328  -1.751  23.529  0.00  0.00    +0.001 C 
ATOM     21  C   UNL     1      -3.256  -2.080  25.791  0.00  0.00    +0.001 C 
ATOM     22  C   UNL     1      -3.046  -2.101  24.280  0.00  0.00    +0.000 C 
ENDBRANCH  17  14
BRANCH   8  12
ATOM     12  C   UNL     1      -2.277   2.264  24.557  0.00  0.00    +0.020 C 
BRANCH  12  16
ATOM     16  C   UNL     1      -1.954   0.829  24.165  0.00  0.00    +0.085 C 
BRANCH  16   6
ATOM      6  N   UNL     1      -0.618   0.765  23.575  0.00  0.00    -0.299 NA
ATOM      7  N   UNL     1       2.183   0.205  23.517  0.00  0.00    -0.327 N 
ATOM     23  C   UNL     1      -0.138  -0.622  23.537  0.00  0.00    +0.103 C 
ATOM     24  C   UNL     1       0.322   1.598  24.335  0.00  0.00    +0.103 C 
ATOM     25  C   UNL     1       1.238  -0.710  22.871  0.00  0.00    +0.120 C 
ATOM     26  C   UNL     1       1.711   1.584  23.694  0.00  0.00    +0.120 C 
BRANCH   7  28
ATOM      1  F   UNL     1       7.620  -0.633  22.967  0.00  0.00    -0.205 F 
ATOM     28  C   UNL     1       3.559  -0.006  23.378  0.00  0.00    +0.030 A 
ATOM     29  C   UNL     1       4.132  -1.192  23.841  0.00  0.00    +0.026 A 
ATOM     30  C   UNL     1       4.358   0.967  22.778  0.00  0.00    +0.026 A 
ATOM     31  C   UNL     1       5.504  -1.403  23.701  0.00  0.00    +0.040 A 
ATOM     32  C   UNL     1       5.730   0.755  22.639  0.00  0.00    +0.040 A 
ATOM     33  C   UNL     1       6.303  -0.430  23.101  0.00  0.00    +0.124 A 
ENDBRANCH   7  28
ENDBRANCH  16   6
ENDBRANCH  12  16
ENDBRANCH   8  12
BRANCH   9  15
ATOM     15  C   UNL     1      -2.641   5.248  24.038  0.00  0.00    +0.124 C 
BRANCH  15  27
ATOM      4  O   UNL     1      -1.981   4.615  26.298  0.00  0.00    -0.251 OA
ATOM     27  C   UNL     1      -1.688   4.976  25.168  0.00  0.00    +0.305 C 
BRANCH  27   3
ATOM      3  O   UNL     1      -0.412   5.192  24.753  0.00  0.00    -0.481 OA
ATOM     34  H   UNL     1      -0.020   5.988  25.173  0.00  0.00    +0.295 HD
ENDBRANCH  27   3
ENDBRANCH  15  27
ENDBRANCH   9  15
TORSDOF 8
ENDMDL
MODEL 4
REMARK VINA RESULT:       3.7      1.576      4.679
REMARK  Name = 28959933
REMARK  8 active torsions:
REMARK  status: ('A' for Active; 'I' for Inactive)
REMARK    1  A    between atoms: O_3  and  C_27
REMARK    2  A    between atoms: N_6  and  C_16
REMARK    3  A    between atoms: N_7  and  C_28
REMARK    4  A    between atoms: C_8  and  C_12
REMARK    5  A    between atoms: C_9  and  C_15
REMARK    6  A    between atoms: C_12  and  C_16
REMARK    7  A    between atoms: C_14  and  C_17
REMARK    8  A    between atoms: C_15  and  C_27
REMARK                            x       y       z     vdW  Elec       q    Type
REMARK                         _______ _______ _______ _____ _____    ______ ____
ROOT
ATOM      2  O   UNL     1      -4.133  -0.659  26.767  0.00  0.00    -0.275 OA
ATOM      5  N   UNL     1      -4.691   0.980  25.217  0.00  0.00    -0.301 N 
ATOM      8  C   UNL     1      -4.074   2.821  23.668  0.00  0.00    +0.011 C 
ATOM      9  C   UNL     1      -4.603   3.832  24.717  0.00  0.00    +0.006 C 
ATOM     10  C   UNL     1      -4.790   1.469  23.837  0.00  0.00    +0.111 C 
ATOM     11  C   UNL     1      -4.527   3.259  26.142  0.00  0.00    +0.023 C 
ATOM     13  C   UNL     1      -5.213   1.897  26.230  0.00  0.00    +0.108 C 
ATOM     17  C   UNL     1      -4.181  -0.260  25.600  0.00  0.00    +0.219 C 
ENDROOT
BRANCH  17  14
ATOM     14  C   UNL     1      -3.664  -1.141  24.505  0.00  0.00    +0.075 C 
ATOM     18  C   UNL     1      -2.342  -1.779  24.931  0.00  0.00    +0.013 C 
ATOM     19  C   UNL     1      -4.716  -2.201  24.172  0.00  0.00    +0.013 C 
ATOM     20  C   UNL     1      -1.833  -2.765  23.882  0.00  0.00    +0.001 C 
ATOM     21  C   UNL     1      -4.204  -3.190  23.127  0.00  0.00    +0.001 C 
ATOM     22  C   UNL     1      -2.882  -3.823  23.551  0.00  0.00    +0.000 C 
ENDBRANCH  17  14
BRANCH   8  12
ATOM     12  C   UNL     1      -2.553   2.625  23.703  0.00  0.00    +0.020 C 
BRANCH  12  16
ATOM     16  C   UNL     1      -2.133   1.468  22.806  0.00  0.00    +0.085 C 
BRANCH  16   6
ATOM      6  N   UNL     1      -0.865   0.912  23.274  0.00  0.00    -0.299 NA
ATOM      7  N   UNL     1       1.960   0.482  23.254  0.00  0.00    -0.327 N 
ATOM     23  C   UNL     1       0.053   1.986  23.672  0.00  0.00    +0.103 C 
ATOM     24  C   UNL     1      -0.247   0.089  22.228  0.00  0.00    +0.103 C 
ATOM     25  C   UNL     1       1.366   1.416  24.216  0.00  0.00    +0.120 C 
ATOM     26  C   UNL     1       1.054  -0.545  22.725  0.00  0.00    +0.120 C 
BRANCH   7  28
ATOM      1  F   UNL     1       7.349  -0.709  23.556  0.00  0.00    -0.205 F 
ATOM     28  C   UNL     1       3.323   0.181  23.331  0.00  0.00    +0.030 A 
ATOM     29  C   UNL     1       3.736  -1.089  23.735  0.00  0.00    +0.026 A 
ATOM     30  C   UNL     1       4.272   1.151  23.004  0.00  0.00    +0.026 A 
ATOM     31  C   UNL     1       5.096  -1.389  23.810  0.00  0.00    +0.040 A 
ATOM     32  C   UNL     1       5.632   0.850  23.080  0.00  0.00    +0.040 A 
ATOM     33  C   UNL     1       6.044  -0.421  23.484  0.00  0.00    +0.124 A 
ENDBRANCH   7  28
ENDBRANCH  16   6
ENDBRANCH  12  16
ENDBRANCH   8  12
BRANCH   9  15
ATOM     15  C   UNL     1      -3.908   5.191  24.645  0.00  0.00    +0.124 C 
BRANCH  15  27
ATOM      4  O   UNL     1      -1.533   5.657  24.938  0.00  0.00    -0.251 OA
ATOM     27  C   UNL     1      -2.577   5.170  25.345  0.00  0.00    +0.305 C 
BRANCH  27   3
ATOM      3  O   UNL     1      -2.693   4.516  26.530  0.00  0.00    -0.481 OA
ATOM     34  H   UNL     1      -2.742   5.138  27.288  0.00  0.00    +0.295 HD
ENDBRANCH  27   3
ENDBRANCH  15  27
ENDBRANCH   9  15
TORSDOF 8
ENDMDL
MODEL 5
REMARK VINA RESULT:       5.5      1.391      1.981
REMARK  Name = 28959933
REMARK  8 active torsions:
REMARK  status: ('A' for Active; 'I' for Inactive)
REMARK    1  A    between atoms: O_3  and  C_27
REMARK    2  A    between atoms: N_6  and  C_16
REMARK    3  A    between atoms: N_7  and  C_28
REMARK    4  A    between atoms: C_8  and  C_12
REMARK    5  A    between atoms: C_9  and  C_15
REMARK    6  A    between atoms: C_12  and  C_16
REMARK    7  A    between atoms: C_14  and  C_17
REMARK    8  A    between atoms: C_15  and  C_27
REMARK                            x       y       z     vdW  Elec       q    Type
REMARK                         _______ _______ _______ _____ _____    ______ ____
ROOT
ATOM      2  O   UNL     1      -4.264   3.088  22.956  0.00  0.00    -0.275 OA
ATOM      5  N   UNL     1      -4.289   1.620  24.756  0.00  0.00    -0.301 N 
ATOM      8  C   UNL     1      -3.234  -0.145  26.150  0.00  0.00    +0.011 C 
ATOM      9  C   UNL     1      -4.162  -1.185  25.470  0.00  0.00    +0.006 C 
ATOM     10  C   UNL     1      -3.896   1.244  26.120  0.00  0.00    +0.111 C 
ATOM     11  C   UNL     1      -4.590  -0.728  24.066  0.00  0.00    +0.023 C 
ATOM     13  C   UNL     1      -5.192   0.675  24.099  0.00  0.00    +0.108 C 
ATOM     17  C   UNL     1      -3.897   2.782  24.094  0.00  0.00    +0.219 C 
ENDROOT
BRANCH  17  14
ATOM     14  C   UNL     1      -2.970   3.697  24.833  0.00  0.00    +0.075 C 
ATOM     18  C   UNL     1      -1.530   3.457  24.379  0.00  0.00    +0.013 C 
ATOM     19  C   UNL     1      -3.398   5.146  24.598  0.00  0.00    +0.013 C 
ATOM     20  C   UNL     1      -0.565   4.442  25.034  0.00  0.00    +0.001 C 
ATOM     21  C   UNL     1      -2.430   6.130  25.249  0.00  0.00    +0.001 C 
ATOM     22  C   UNL     1      -0.993   5.888  24.798  0.00  0.00    +0.000 C 
ENDBRANCH  17  14
BRANCH   8  12
ATOM     12  C   UNL     1      -1.826  -0.077  25.546  0.00  0.00    +0.020 C 
BRANCH  12  16
ATOM     16  C   UNL     1      -1.886   0.286  24.069  0.00  0.00    +0.085 C 
BRANCH  16   6
ATOM      6  N   UNL     1      -0.532   0.375  23.524  0.00  0.00    -0.299 NA
ATOM      7  N   UNL     1       2.299  -0.005  23.499  0.00  0.00    -0.327 N 
ATOM     23  C   UNL     1       0.036  -0.965  23.335  0.00  0.00    +0.103 C 
ATOM     24  C   UNL     1       0.330   1.163  24.413  0.00  0.00    +0.103 C 
ATOM     25  C   UNL     1       1.433  -0.888  22.713  0.00  0.00    +0.120 C 
ATOM     26  C   UNL     1       1.735   1.311  23.825  0.00  0.00    +0.120 C 
BRANCH   7  28
ATOM      1  F   UNL     1       7.792  -0.442  23.049  0.00  0.00    -0.205 F 
ATOM     28  C   UNL     1       3.689  -0.115  23.385  0.00  0.00    +0.030 A 
ATOM     29  C   UNL     1       4.330  -1.291  23.777  0.00  0.00    +0.026 A 
ATOM     30  C   UNL     1       4.435   0.951  22.881  0.00  0.00    +0.026 A 
ATOM     31  C   UNL     1       5.715  -1.401  23.663  0.00  0.00    +0.040 A 
ATOM     32  C   UNL     1       5.821   0.840  22.767  0.00  0.00    +0.040 A 
ATOM     33  C   UNL     1       6.461  -0.336  23.159  0.00  0.00    +0.124 A 
ENDBRANCH   7  28
ENDBRANCH  16   6
ENDBRANCH  12  16
ENDBRANCH   8  12
BRANCH   9  15
ATOM     15  C   UNL     1      -3.556  -2.587  25.419  0.00  0.00    +0.124 C 
BRANCH  15  27
ATOM      4  O   UNL     1      -4.391  -3.311  23.246  0.00  0.00    -0.251 OA
ATOM     27  C   UNL     1      -3.460  -3.098  24.008  0.00  0.00    +0.305 C 
BRANCH  27   3
ATOM      3  O   UNL     1      -2.156  -3.297  23.681  0.00  0.00    -0.481 OA
ATOM     34  H   UNL     1      -1.602  -3.466  24.473  0.00  0.00    +0.295 HD
ENDBRANCH  27   3
ENDBRANCH  15  27
ENDBRANCH   9  15
TORSDOF 8
ENDMDL
MODEL 6
REMARK VINA RESULT:       6.3      1.595      4.819
REMARK  Name = 28959933
REMARK  8 active torsions:
REMARK  status: ('A' for Active; 'I' for Inactive)
REMARK    1  A    between atoms: O_3  and  C_27
REMARK    2  A    between atoms: N_6  and  C_16
REMARK    3  A    between atoms: N_7  and  C_28
REMARK    4  A    between atoms: C_8  and  C_12
REMARK    5  A    between atoms: C_9  and  C_15
REMARK    6  A    between atoms: C_12  and  C_16
REMARK    7  A    between atoms: C_14  and  C_17
REMARK    8  A    between atoms: C_15  and  C_27
REMARK                            x       y       z     vdW  Elec       q    Type
REMARK                         _______ _______ _______ _____ _____    ______ ____
ROOT
ATOM      2  O   UNL     1      -3.820  -1.167  26.979  0.00  0.00    -0.275 OA
ATOM      5  N   UNL     1      -4.748   0.325  25.459  0.00  0.00    -0.301 N 
ATOM      8  C   UNL     1      -4.585   2.298  23.958  0.00  0.00    +0.011 C 
ATOM      9  C   UNL     1      -5.351   3.125  25.023  0.00  0.00    +0.006 C 
ATOM     10  C   UNL     1      -4.953   0.809  24.088  0.00  0.00    +0.111 C 
ATOM     11  C   UNL     1      -5.149   2.553  26.436  0.00  0.00    +0.023 C 
ATOM     13  C   UNL     1      -5.484   1.064  26.485  0.00  0.00    +0.108 C 
ATOM     17  C   UNL     1      -3.955  -0.763  25.821  0.00  0.00    +0.219 C 
ENDROOT
BRANCH  17  14
ATOM     14  C   UNL     1      -3.232  -1.466  24.714  0.00  0.00    +0.075 C 
ATOM     18  C   UNL     1      -1.803  -1.791  25.149  0.00  0.00    +0.013 C 
ATOM     19  C   UNL     1      -4.003  -2.730  24.330  0.00  0.00    +0.013 C 
ATOM     20  C   UNL     1      -1.064  -2.599  24.086  0.00  0.00    +0.001 C 
ATOM     21  C   UNL     1      -3.261  -3.540  23.270  0.00  0.00    +0.001 C 
ATOM     22  C   UNL     1      -1.834  -3.861  23.705  0.00  0.00    +0.000 C 
ENDBRANCH  17  14
BRANCH   8  12
ATOM     12  C   UNL     1      -3.062   2.476  24.009  0.00  0.00    +0.020 C 
BRANCH  12  16
ATOM     16  C   UNL     1      -2.392   1.751  22.850  0.00  0.00    +0.085 C 
BRANCH  16   6
ATOM      6  N   UNL     1      -1.139   1.147  23.300  0.00  0.00    -0.299 NA
ATOM      7  N   UNL     1       1.675   0.652  23.274  0.00  0.00    -0.327 N 
ATOM     23  C   UNL     1      -0.199   2.183  23.744  0.00  0.00    +0.103 C 
ATOM     24  C   UNL     1      -0.535   0.352  22.223  0.00  0.00    +0.103 C 
ATOM     25  C   UNL     1       1.098   1.560  24.270  0.00  0.00    +0.120 C 
ATOM     26  C   UNL     1       0.748  -0.332  22.700  0.00  0.00    +0.120 C 
BRANCH   7  28
ATOM      1  F   UNL     1       7.034  -0.672  23.552  0.00  0.00    -0.205 F 
ATOM     28  C   UNL     1       3.031   0.317  23.344  0.00  0.00    +0.030 A 
ATOM     29  C   UNL     1       4.002   1.277  23.059  0.00  0.00    +0.026 A 
ATOM     30  C   UNL     1       3.412  -0.978  23.697  0.00  0.00    +0.026 A 
ATOM     31  C   UNL     1       5.354   0.942  23.130  0.00  0.00    +0.040 A 
ATOM     32  C   UNL     1       4.765  -1.312  23.768  0.00  0.00    +0.040 A 
ATOM     33  C   UNL     1       5.736  -0.351  23.483  0.00  0.00    +0.124 A 
ENDBRANCH   7  28
ENDBRANCH  16   6
ENDBRANCH  12  16
ENDBRANCH   8  12
BRANCH   9  15
ATOM     15  C   UNL     1      -5.006   4.613  24.989  0.00  0.00    +0.124 C 
BRANCH  15  27
ATOM      4  O   UNL     1      -6.628   6.348  24.436  0.00  0.00    -0.251 OA
ATOM     27  C   UNL     1      -6.227   5.469  25.185  0.00  0.00    +0.305 C 
BRANCH  27   3
ATOM      3  O   UNL     1      -6.847   5.125  26.344  0.00  0.00    -0.481 OA
ATOM     34  H   UNL     1      -7.432   5.840  26.672  0.00  0.00    +0.295 HD
ENDBRANCH  27   3
ENDBRANCH  15  27
ENDBRANCH   9  15
TORSDOF 8
ENDMDL
