MODEL 1
REMARK VINA RESULT:      -4.0      0.000      0.000
REMARK  Name = 56774347
REMARK  10 active torsions:
REMARK  status: ('A' for Active; 'I' for Inactive)
REMARK    1  A    between atoms: O_3  and  C_19
REMARK    2  A    between atoms: O_3  and  C_23
REMARK    3  A    between atoms: N_4  and  C_9
REMARK    4  A    between atoms: N_6  and  C_18
REMARK    5  A    between atoms: C_7  and  C_12
REMARK    6  A    between atoms: C_7  and  C_13
REMARK    7  A    between atoms: C_8  and  C_11
REMARK    8  A    between atoms: C_11  and  C_14
REMARK    9  A    between atoms: C_17  and  C_19
REMARK   10  A    between atoms: C_18  and  C_20
REMARK                            x       y       z     vdW  Elec       q    Type
REMARK                         _______ _______ _______ _____ _____    ______ ____
ROOT
ATOM      7  C   UNL     1      -3.559  -0.970  24.289  0.00  0.00    -0.013 C 
ATOM      8  C   UNL     1      -4.472  -0.479  25.431  0.00  0.00    +0.004 C 
ATOM      9  C   UNL     1      -2.372  -0.767  25.254  0.00  0.00    +0.081 C 
ATOM     10  C   UNL     1      -3.245   0.272  25.988  0.00  0.00    +0.027 C 
ATOM     12  C   UNL     1      -3.836  -2.393  23.860  0.00  0.00    +0.013 C 
ATOM     13  C   UNL     1      -3.483  -0.066  23.071  0.00  0.00    +0.013 C 
ENDROOT
BRANCH   9   4
ATOM      2  O   UNL     1      -0.540  -2.081  23.448  0.00  0.00    -0.253 OA
ATOM      4  N   UNL     1      -1.153  -0.198  24.657  0.00  0.00    -0.296 N 
ATOM      6  N   UNL     1       0.754  -0.155  23.368  0.00  0.00    -0.295 N 
ATOM     15  C   UNL     1      -0.330  -0.918  23.791  0.00  0.00    +0.300 C 
ATOM     32  H   UNL     1      -0.875   0.755  24.875  0.00  0.00    +0.151 HD
ATOM     33  H   UNL     1       0.832   0.806  23.686  0.00  0.00    +0.151 HD
BRANCH   6  18
ATOM     18  C   UNL     1       1.760  -0.664  22.466  0.00  0.00    +0.141 C 
BRANCH  18  20
ATOM     20  C   UNL     1       3.151  -0.405  22.971  0.00  0.00    -0.030 A 
ATOM     21  C   UNL     1       3.850  -1.413  23.636  0.00  0.00    +0.005 A 
ATOM     22  C   UNL     1       3.744   0.842  22.776  0.00  0.00    +0.005 A 
ATOM     24  C   UNL     1       5.141  -1.173  24.105  0.00  0.00    +0.000 A 
ATOM     25  C   UNL     1       5.034   1.082  23.245  0.00  0.00    +0.000 A 
ATOM     26  C   UNL     1       5.734   0.075  23.910  0.00  0.00    +0.000 A 
ENDBRANCH  18  20
ENDBRANCH   6  18
ENDBRANCH   9   4
BRANCH   8  11
ATOM     11  C   UNL     1      -5.640   0.403  25.054  0.00  0.00    +0.063 C 
BRANCH  11  14
ATOM      1  O   UNL     1      -5.245   3.868  25.983  0.00  0.00    -0.356 OA
ATOM      5  N   UNL     1      -5.801   2.604  26.150  0.00  0.00    -0.083 NA
ATOM     14  C   UNL     1      -5.261   1.859  25.182  0.00  0.00    +0.084 A 
ATOM     16  C   UNL     1      -4.365   2.589  24.383  0.00  0.00    +0.074 A 
ATOM     17  C   UNL     1      -4.391   3.846  24.928  0.00  0.00    +0.175 A 
BRANCH  17  19
ATOM     19  C   UNL     1      -3.711   5.107  24.610  0.00  0.00    +0.306 C 
BRANCH  19   3
ATOM      3  O   UNL     1      -2.580   5.290  25.466  0.00  0.00    -0.484 OA
BRANCH   3  23
ATOM     23  C   UNL     1      -1.595   4.346  25.383  0.00  0.00    +0.121 A 
ATOM     27  C   UNL     1      -0.810   4.256  24.233  0.00  0.00    +0.045 A 
ATOM     28  C   UNL     1      -1.374   3.474  26.448  0.00  0.00    +0.045 A 
ATOM     29  C   UNL     1       0.196   3.293  24.148  0.00  0.00    +0.004 A 
ATOM     30  C   UNL     1      -0.368   2.511  26.364  0.00  0.00    +0.004 A 
ATOM     31  C   UNL     1       0.417   2.420  25.214  0.00  0.00    +0.000 A 
ENDBRANCH   3  23
ENDBRANCH  19   3
ENDBRANCH  17  19
ENDBRANCH  11  14
ENDBRANCH   8  11
TORSDOF 8
ENDMDL
MODEL 2
REMARK VINA RESULT:      -2.0      1.815      4.250
REMARK  Name = 56774347
REMARK  10 active torsions:
REMARK  status: ('A' for Active; 'I' for Inactive)
REMARK    1  A    between atoms: O_3  and  C_19
REMARK    2  A    between atoms: O_3  and  C_23
REMARK    3  A    between atoms: N_4  and  C_9
REMARK    4  A    between atoms: N_6  and  C_18
REMARK    5  A    between atoms: C_7  and  C_12
REMARK    6  A    between atoms: C_7  and  C_13
REMARK    7  A    between atoms: C_8  and  C_11
REMARK    8  A    between atoms: C_11  and  C_14
REMARK    9  A    between atoms: C_17  and  C_19
REMARK   10  A    between atoms: C_18  and  C_20
REMARK                            x       y       z     vdW  Elec       q    Type
REMARK                         _______ _______ _______ _____ _____    ______ ____
ROOT
ATOM      7  C   UNL     1      -2.137   4.291  25.116  0.00  0.00    -0.013 C 
ATOM      8  C   UNL     1      -3.512   3.933  24.514  0.00  0.00    +0.004 C 
ATOM      9  C   UNL     1      -1.513   3.761  23.808  0.00  0.00    +0.081 C 
ATOM     10  C   UNL     1      -2.776   2.890  23.647  0.00  0.00    +0.027 C 
ATOM     12  C   UNL     1      -1.961   5.768  25.389  0.00  0.00    +0.013 C 
ATOM     13  C   UNL     1      -1.719   3.485  26.332  0.00  0.00    +0.013 C 
ENDROOT
BRANCH   9   4
ATOM      2  O   UNL     1      -0.870   1.243  22.546  0.00  0.00    -0.253 OA
ATOM      4  N   UNL     1      -0.273   2.981  23.962  0.00  0.00    -0.296 N 
ATOM      6  N   UNL     1       1.189   1.236  23.621  0.00  0.00    -0.295 N 
ATOM     15  C   UNL     1      -0.058   1.769  23.306  0.00  0.00    +0.300 C 
ATOM     32  H   UNL     1       0.467   3.316  24.572  0.00  0.00    +0.151 HD
ATOM     33  H   UNL     1       1.803   1.756  24.240  0.00  0.00    +0.151 HD
BRANCH   6  18
ATOM     18  C   UNL     1       1.661  -0.015  23.074  0.00  0.00    +0.141 C 
BRANCH  18  20
ATOM     20  C   UNL     1       3.136  -0.199  23.287  0.00  0.00    -0.030 A 
ATOM     21  C   UNL     1       3.629  -1.427  23.732  0.00  0.00    +0.005 A 
ATOM     22  C   UNL     1       4.015   0.856  23.041  0.00  0.00    +0.005 A 
ATOM     24  C   UNL     1       4.999  -1.598  23.929  0.00  0.00    +0.000 A 
ATOM     25  C   UNL     1       5.384   0.685  23.238  0.00  0.00    +0.000 A 
ATOM     26  C   UNL     1       5.877  -0.543  23.684  0.00  0.00    +0.000 A 
ENDBRANCH  18  20
ENDBRANCH   6  18
ENDBRANCH   9   4
BRANCH   8  11
ATOM     11  C   UNL     1      -4.550   3.362  25.451  0.00  0.00    +0.063 C 
BRANCH  11  14
ATOM      1  O   UNL     1      -6.249   0.300  24.578  0.00  0.00    -0.356 OA
ATOM      5  N   UNL     1      -6.235   1.610  25.041  0.00  0.00    -0.083 NA
ATOM     14  C   UNL     1      -4.949   1.974  25.010  0.00  0.00    +0.084 A 
ATOM     16  C   UNL     1      -4.115   0.946  24.540  0.00  0.00    +0.074 A 
ATOM     17  C   UNL     1      -4.981  -0.084  24.282  0.00  0.00    +0.175 A 
BRANCH  17  19
ATOM     19  C   UNL     1      -4.812  -1.451  23.775  0.00  0.00    +0.306 C 
BRANCH  19   3
ATOM      3  O   UNL     1      -4.192  -2.275  24.767  0.00  0.00    -0.484 OA
BRANCH   3  23
ATOM     23  C   UNL     1      -2.882  -2.006  25.049  0.00  0.00    +0.121 A 
ATOM     27  C   UNL     1      -2.557  -1.130  26.084  0.00  0.00    +0.045 A 
ATOM     28  C   UNL     1      -1.870  -2.610  24.302  0.00  0.00    +0.045 A 
ATOM     29  C   UNL     1      -1.220  -0.856  26.373  0.00  0.00    +0.004 A 
ATOM     30  C   UNL     1      -0.533  -2.336  24.591  0.00  0.00    +0.004 A 
ATOM     31  C   UNL     1      -0.208  -1.460  25.626  0.00  0.00    +0.000 A 
ENDBRANCH   3  23
ENDBRANCH  19   3
ENDBRANCH  17  19
ENDBRANCH  11  14
ENDBRANCH   8  11
TORSDOF 8
ENDMDL
MODEL 3
REMARK VINA RESULT:      -1.9      1.559      4.230
REMARK  Name = 56774347
REMARK  10 active torsions:
REMARK  status: ('A' for Active; 'I' for Inactive)
REMARK    1  A    between atoms: O_3  and  C_19
REMARK    2  A    between atoms: O_3  and  C_23
REMARK    3  A    between atoms: N_4  and  C_9
REMARK    4  A    between atoms: N_6  and  C_18
REMARK    5  A    between atoms: C_7  and  C_12
REMARK    6  A    between atoms: C_7  and  C_13
REMARK    7  A    between atoms: C_8  and  C_11
REMARK    8  A    between atoms: C_11  and  C_14
REMARK    9  A    between atoms: C_17  and  C_19
REMARK   10  A    between atoms: C_18  and  C_20
REMARK                            x       y       z     vdW  Elec       q    Type
REMARK                         _______ _______ _______ _____ _____    ______ ____
ROOT
ATOM      7  C   UNL     1      -1.473   3.315  25.268  0.00  0.00    -0.013 C 
ATOM      8  C   UNL     1      -1.908   4.791  25.377  0.00  0.00    +0.004 C 
ATOM      9  C   UNL     1      -0.090   3.835  24.822  0.00  0.00    +0.081 C 
ATOM     10  C   UNL     1      -0.811   5.111  24.341  0.00  0.00    +0.027 C 
ATOM     12  C   UNL     1      -1.514   2.573  26.586  0.00  0.00    +0.013 C 
ATOM     13  C   UNL     1      -2.167   2.500  24.192  0.00  0.00    +0.013 C 
ENDROOT
BRANCH   9   4
ATOM      2  O   UNL     1       0.715   1.062  24.874  0.00  0.00    -0.253 OA
ATOM      4  N   UNL     1       0.557   3.077  23.738  0.00  0.00    -0.296 N 
ATOM      6  N   UNL     1       1.504   1.255  22.699  0.00  0.00    -0.295 N 
ATOM     15  C   UNL     1       0.909   1.734  23.862  0.00  0.00    +0.300 C 
ATOM     32  H   UNL     1       0.773   3.534  22.856  0.00  0.00    +0.151 HD
ATOM     33  H   UNL     1       1.600   1.879  21.904  0.00  0.00    +0.151 HD
BRANCH   6  18
ATOM     18  C   UNL     1       1.963  -0.108  22.563  0.00  0.00    +0.141 C 
BRANCH  18  20
ATOM     20  C   UNL     1       3.365  -0.282  23.073  0.00  0.00    -0.030 A 
ATOM     21  C   UNL     1       4.273   0.775  22.993  0.00  0.00    +0.005 A 
ATOM     22  C   UNL     1       3.761  -1.499  23.627  0.00  0.00    +0.005 A 
ATOM     24  C   UNL     1       5.574   0.614  23.467  0.00  0.00    +0.000 A 
ATOM     25  C   UNL     1       5.062  -1.660  24.100  0.00  0.00    +0.000 A 
ATOM     26  C   UNL     1       5.970  -0.604  24.020  0.00  0.00    +0.000 A 
ENDBRANCH  18  20
ENDBRANCH   6  18
ENDBRANCH   9   4
BRANCH   8  11
ATOM     11  C   UNL     1      -3.313   5.133  24.941  0.00  0.00    +0.063 C 
BRANCH  11  14
ATOM      1  O   UNL     1      -5.648   2.806  26.410  0.00  0.00    -0.356 OA
ATOM      5  N   UNL     1      -4.872   3.959  26.446  0.00  0.00    -0.083 NA
ATOM     14  C   UNL     1      -4.254   3.997  25.262  0.00  0.00    +0.084 A 
ATOM     16  C   UNL     1      -4.597   2.906  24.446  0.00  0.00    +0.074 A 
ATOM     17  C   UNL     1      -5.476   2.187  25.213  0.00  0.00    +0.175 A 
BRANCH  17  19
ATOM     19  C   UNL     1      -6.227   0.944  25.004  0.00  0.00    +0.306 C 
BRANCH  19   3
ATOM      3  O   UNL     1      -5.590   0.141  24.007  0.00  0.00    -0.484 OA
BRANCH   3  23
ATOM     23  C   UNL     1      -4.627  -0.724  24.446  0.00  0.00    +0.121 A 
ATOM     27  C   UNL     1      -3.833  -0.386  25.542  0.00  0.00    +0.045 A 
ATOM     28  C   UNL     1      -4.439  -1.945  23.799  0.00  0.00    +0.045 A 
ATOM     29  C   UNL     1      -2.851  -1.268  25.991  0.00  0.00    +0.004 A 
ATOM     30  C   UNL     1      -3.457  -2.828  24.248  0.00  0.00    +0.004 A 
ATOM     31  C   UNL     1      -2.663  -2.490  25.344  0.00  0.00    +0.000 A 
ENDBRANCH   3  23
ENDBRANCH  19   3
ENDBRANCH  17  19
ENDBRANCH  11  14
ENDBRANCH   8  11
TORSDOF 8
ENDMDL
MODEL 4
REMARK VINA RESULT:      -0.6      1.737      6.512
REMARK  Name = 56774347
REMARK  10 active torsions:
REMARK  status: ('A' for Active; 'I' for Inactive)
REMARK    1  A    between atoms: O_3  and  C_19
REMARK    2  A    between atoms: O_3  and  C_23
REMARK    3  A    between atoms: N_4  and  C_9
REMARK    4  A    between atoms: N_6  and  C_18
REMARK    5  A    between atoms: C_7  and  C_12
REMARK    6  A    between atoms: C_7  and  C_13
REMARK    7  A    between atoms: C_8  and  C_11
REMARK    8  A    between atoms: C_11  and  C_14
REMARK    9  A    between atoms: C_17  and  C_19
REMARK   10  A    between atoms: C_18  and  C_20
REMARK                            x       y       z     vdW  Elec       q    Type
REMARK                         _______ _______ _______ _____ _____    ______ ____
ROOT
ATOM      7  C   UNL     1      -3.581  -2.186  24.903  0.00  0.00    -0.013 C 
ATOM      8  C   UNL     1      -2.373  -2.101  23.947  0.00  0.00    +0.004 C 
ATOM      9  C   UNL     1      -4.271  -1.142  23.999  0.00  0.00    +0.081 C 
ATOM     10  C   UNL     1      -2.858  -0.684  23.581  0.00  0.00    +0.027 C 
ATOM     12  C   UNL     1      -4.222  -3.555  24.950  0.00  0.00    +0.013 C 
ATOM     13  C   UNL     1      -3.345  -1.674  26.313  0.00  0.00    +0.013 C 
ENDROOT
BRANCH   9   4
ATOM      2  O   UNL     1      -3.776   1.704  23.993  0.00  0.00    -0.253 OA
ATOM      4  N   UNL     1      -5.045  -0.103  24.700  0.00  0.00    -0.296 N 
ATOM      6  N   UNL     1      -5.610   2.022  25.381  0.00  0.00    -0.295 N 
ATOM     15  C   UNL     1      -4.724   1.252  24.633  0.00  0.00    +0.300 C 
ATOM     32  H   UNL     1      -5.848  -0.362  25.266  0.00  0.00    +0.151 HD
ATOM     33  H   UNL     1      -6.378   1.561  25.858  0.00  0.00    +0.151 HD
BRANCH   6  18
ATOM     18  C   UNL     1      -5.500   3.458  25.481  0.00  0.00    +0.141 C 
BRANCH  18  20
ATOM     20  C   UNL     1      -4.074   3.920  25.391  0.00  0.00    -0.030 A 
ATOM     21  C   UNL     1      -3.664   4.712  24.318  0.00  0.00    +0.005 A 
ATOM     22  C   UNL     1      -3.160   3.559  26.380  0.00  0.00    +0.005 A 
ATOM     24  C   UNL     1      -2.340   5.142  24.235  0.00  0.00    +0.000 A 
ATOM     25  C   UNL     1      -1.836   3.988  26.297  0.00  0.00    +0.000 A 
ATOM     26  C   UNL     1      -1.425   4.779  25.223  0.00  0.00    +0.000 A 
ENDBRANCH  18  20
ENDBRANCH   6  18
ENDBRANCH   9   4
BRANCH   8  11
ATOM     11  C   UNL     1      -0.996  -2.162  24.565  0.00  0.00    +0.063 C 
BRANCH  11  14
ATOM      1  O   UNL     1       0.265   1.215  24.758  0.00  0.00    -0.356 OA
ATOM      5  N   UNL     1      -0.555   0.180  25.194  0.00  0.00    -0.083 NA
ATOM     14  C   UNL     1      -0.280  -0.845  24.383  0.00  0.00    +0.084 A 
ATOM     16  C   UNL     1       0.696  -0.520  23.426  0.00  0.00    +0.074 A 
ATOM     17  C   UNL     1       1.006   0.785  23.705  0.00  0.00    +0.175 A 
BRANCH  17  19
ATOM     19  C   UNL     1       1.934   1.758  23.117  0.00  0.00    +0.306 C 
BRANCH  19   3
ATOM      3  O   UNL     1       2.911   1.089  22.314  0.00  0.00    -0.484 OA
BRANCH   3  23
ATOM     23  C   UNL     1       3.873   0.387  22.986  0.00  0.00    +0.121 A 
ATOM     27  C   UNL     1       3.703  -0.976  23.224  0.00  0.00    +0.045 A 
ATOM     28  C   UNL     1       5.025   1.035  23.432  0.00  0.00    +0.045 A 
ATOM     29  C   UNL     1       4.685  -1.693  23.909  0.00  0.00    +0.004 A 
ATOM     30  C   UNL     1       6.007   0.319  24.116  0.00  0.00    +0.004 A 
ATOM     31  C   UNL     1       5.837  -1.045  24.355  0.00  0.00    +0.000 A 
ENDBRANCH   3  23
ENDBRANCH  19   3
ENDBRANCH  17  19
ENDBRANCH  11  14
ENDBRANCH   8  11
TORSDOF 8
ENDMDL
