MODEL 1
REMARK VINA RESULT:      -3.8      0.000      0.000
REMARK  Name = 45784261
REMARK  3 active torsions:
REMARK  status: ('A' for Active; 'I' for Inactive)
REMARK    1  A    between atoms: N_4  and  C_7
REMARK    2  A    between atoms: C_10  and  C_15
REMARK    3  A    between atoms: C_20  and  C_22
REMARK                            x       y       z     vdW  Elec       q    Type
REMARK                         _______ _______ _______ _____ _____    ______ ____
ROOT
ATOM      5  N   UNL     1      -1.784   0.221  23.967  0.00  0.00    -0.342 N 
ATOM      6  N   UNL     1      -0.221   1.752  24.363  0.00  0.00    -0.232 NA
ATOM     15  C   UNL     1      -0.455   0.539  23.911  0.00  0.00    +0.113 A 
ATOM     16  C   UNL     1      -2.451   1.299  24.488  0.00  0.00    +0.067 A 
ATOM     17  C   UNL     1      -1.454   2.242  24.727  0.00  0.00    +0.089 A 
ATOM     18  C   UNL     1      -3.800   1.525  24.764  0.00  0.00    +0.040 A 
ATOM     19  C   UNL     1      -1.806   3.488  25.273  0.00  0.00    +0.030 A 
ATOM     20  C   UNL     1      -4.133   2.770  25.307  0.00  0.00    +0.057 A 
ATOM     21  C   UNL     1      -3.155   3.736  25.557  0.00  0.00    +0.014 A 
ATOM     23  H   UNL     1      -2.203  -0.652  23.676  0.00  0.00    +0.167 HD
ENDROOT
BRANCH  15  10
ATOM      4  N   UNL     1       2.763  -0.601  22.577  0.00  0.00    -0.299 NA
ATOM     10  C   UNL     1       0.567  -0.440  23.381  0.00  0.00    +0.070 C 
ATOM     11  C   UNL     1       2.011  -0.028  23.697  0.00  0.00    +0.096 C 
ATOM     13  C   UNL     1       1.955  -0.306  21.393  0.00  0.00    +0.085 C 
ATOM     14  C   UNL     1       0.543  -0.637  21.855  0.00  0.00    +0.028 C 
BRANCH   4   7
ATOM      7  C   UNL     1       4.089   0.019  22.470  0.00  0.00    +0.057 C 
ATOM      8  C   UNL     1       5.038  -0.605  23.514  0.00  0.00    +0.019 C 
ATOM      9  C   UNL     1       4.129   1.308  23.316  0.00  0.00    +0.019 C 
ATOM     12  C   UNL     1       5.500   0.830  23.840  0.00  0.00    +0.003 C 
ENDBRANCH   4   7
ENDBRANCH  15  10
BRANCH  20  22
ATOM      1  F   UNL     1      -6.428   2.446  24.779  0.00  0.00    -0.166 F 
ATOM      2  F   UNL     1      -5.932   2.688  26.882  0.00  0.00    -0.166 F 
ATOM      3  F   UNL     1      -5.867   4.400  25.549  0.00  0.00    -0.166 F 
ATOM     22  C   UNL     1      -5.561   3.071  25.624  0.00  0.00    +0.417 C 
ENDBRANCH  20  22
TORSDOF 3
ENDMDL
MODEL 2
REMARK VINA RESULT:      -2.4      4.518      8.212
REMARK  Name = 45784261
REMARK  3 active torsions:
REMARK  status: ('A' for Active; 'I' for Inactive)
REMARK    1  A    between atoms: N_4  and  C_7
REMARK    2  A    between atoms: C_10  and  C_15
REMARK    3  A    between atoms: C_20  and  C_22
REMARK                            x       y       z     vdW  Elec       q    Type
REMARK                         _______ _______ _______ _____ _____    ______ ____
ROOT
ATOM      5  N   UNL     1       0.380   2.652  24.940  0.00  0.00    -0.342 N 
ATOM      6  N   UNL     1      -1.175   1.201  24.294  0.00  0.00    -0.232 NA
ATOM     15  C   UNL     1      -0.941   2.302  24.974  0.00  0.00    +0.113 A 
ATOM     16  C   UNL     1       1.042   1.715  24.189  0.00  0.00    +0.067 A 
ATOM     17  C   UNL     1       0.050   0.821  23.798  0.00  0.00    +0.089 A 
ATOM     18  C   UNL     1       2.384   1.578  23.830  0.00  0.00    +0.040 A 
ATOM     19  C   UNL     1       0.399  -0.283  23.001  0.00  0.00    +0.030 A 
ATOM     20  C   UNL     1       2.713   0.474  23.036  0.00  0.00    +0.057 A 
ATOM     21  C   UNL     1       1.740  -0.441  22.627  0.00  0.00    +0.014 A 
ATOM     23  H   UNL     1       0.797   3.457  25.387  0.00  0.00    +0.167 HD
ENDROOT
BRANCH  15  10
ATOM      4  N   UNL     1      -4.240   3.649  25.834  0.00  0.00    -0.299 NA
ATOM     10  C   UNL     1      -1.956   3.132  25.725  0.00  0.00    +0.070 C 
ATOM     11  C   UNL     1      -3.348   2.488  25.761  0.00  0.00    +0.096 C 
ATOM     13  C   UNL     1      -3.688   4.606  24.875  0.00  0.00    +0.085 C 
ATOM     14  C   UNL     1      -2.192   4.540  25.152  0.00  0.00    +0.028 C 
BRANCH   4   7
ATOM      7  C   UNL     1      -5.611   3.276  25.467  0.00  0.00    +0.057 C 
ATOM      8  C   UNL     1      -6.107   2.150  26.397  0.00  0.00    +0.019 C 
ATOM      9  C   UNL     1      -5.578   2.224  24.338  0.00  0.00    +0.019 C 
ATOM     12  C   UNL     1      -6.648   1.449  25.134  0.00  0.00    +0.003 C 
ENDBRANCH   4   7
ENDBRANCH  15  10
BRANCH  20  22
ATOM      1  F   UNL     1       4.293   0.327  21.267  0.00  0.00    -0.166 F 
ATOM      2  F   UNL     1       4.990   1.204  23.130  0.00  0.00    -0.166 F 
ATOM      3  F   UNL     1       4.646  -0.934  23.002  0.00  0.00    -0.166 F 
ATOM     22  C   UNL     1       4.133   0.271  22.619  0.00  0.00    +0.417 C 
ENDBRANCH  20  22
TORSDOF 3
ENDMDL
MODEL 3
REMARK VINA RESULT:      -2.2      1.180      1.922
REMARK  Name = 45784261
REMARK  3 active torsions:
REMARK  status: ('A' for Active; 'I' for Inactive)
REMARK    1  A    between atoms: N_4  and  C_7
REMARK    2  A    between atoms: C_10  and  C_15
REMARK    3  A    between atoms: C_20  and  C_22
REMARK                            x       y       z     vdW  Elec       q    Type
REMARK                         _______ _______ _______ _____ _____    ______ ____
ROOT
ATOM      5  N   UNL     1      -1.031   0.689  23.536  0.00  0.00    -0.342 N 
ATOM      6  N   UNL     1      -1.481  -1.371  24.237  0.00  0.00    -0.232 NA
ATOM     15  C   UNL     1      -0.609  -0.609  23.615  0.00  0.00    +0.113 A 
ATOM     16  C   UNL     1      -2.254   0.770  24.147  0.00  0.00    +0.067 A 
ATOM     17  C   UNL     1      -2.514  -0.529  24.577  0.00  0.00    +0.089 A 
ATOM     18  C   UNL     1      -3.132   1.835  24.356  0.00  0.00    +0.040 A 
ATOM     19  C   UNL     1      -3.714  -0.799  25.256  0.00  0.00    +0.030 A 
ATOM     20  C   UNL     1      -4.321   1.548  25.033  0.00  0.00    +0.057 A 
ATOM     21  C   UNL     1      -4.609   0.255  25.477  0.00  0.00    +0.014 A 
ATOM     23  H   UNL     1      -0.531   1.455  23.104  0.00  0.00    +0.167 HD
ENDROOT
BRANCH  15  10
ATOM      4  N   UNL     1       3.028  -0.677  23.161  0.00  0.00    -0.299 NA
ATOM     10  C   UNL     1       0.716  -1.043  23.031  0.00  0.00    +0.070 C 
ATOM     11  C   UNL     1       1.876  -0.933  24.030  0.00  0.00    +0.096 C 
ATOM     13  C   UNL     1       2.552   0.303  22.185  0.00  0.00    +0.085 C 
ATOM     14  C   UNL     1       1.179  -0.235  21.807  0.00  0.00    +0.028 C 
BRANCH   4   7
ATOM      7  C   UNL     1       4.154  -0.138  23.935  0.00  0.00    +0.057 C 
ATOM      8  C   UNL     1       5.031   0.746  23.025  0.00  0.00    +0.019 C 
ATOM      9  C   UNL     1       5.314  -1.155  23.938  0.00  0.00    +0.019 C 
ATOM     12  C   UNL     1       6.253   0.033  23.639  0.00  0.00    +0.003 C 
ENDBRANCH   4   7
ENDBRANCH  15  10
BRANCH  20  22
ATOM      1  F   UNL     1      -6.534   2.375  24.771  0.00  0.00    -0.166 F 
ATOM      2  F   UNL     1      -5.505   2.901  26.612  0.00  0.00    -0.166 F 
ATOM      3  F   UNL     1      -4.931   3.843  24.744  0.00  0.00    -0.166 F 
ATOM     22  C   UNL     1      -5.301   2.646  25.286  0.00  0.00    +0.417 C 
ENDBRANCH  20  22
TORSDOF 3
ENDMDL
MODEL 4
REMARK VINA RESULT:      -2.1     15.125     16.240
REMARK  Name = 45784261
REMARK  3 active torsions:
REMARK  status: ('A' for Active; 'I' for Inactive)
REMARK    1  A    between atoms: N_4  and  C_7
REMARK    2  A    between atoms: C_10  and  C_15
REMARK    3  A    between atoms: C_20  and  C_22
REMARK                            x       y       z     vdW  Elec       q    Type
REMARK                         _______ _______ _______ _____ _____    ______ ____
ROOT
ATOM      5  N   UNL     1      -5.765  -9.869  11.911  0.00  0.00    -0.342 N 
ATOM      6  N   UNL     1      -4.564 -10.377  13.711  0.00  0.00    -0.232 NA
ATOM     15  C   UNL     1      -4.538 -10.213  12.407  0.00  0.00    +0.113 A 
ATOM     16  C   UNL     1      -6.639  -9.807  12.964  0.00  0.00    +0.067 A 
ATOM     17  C   UNL     1      -5.867 -10.128  14.077  0.00  0.00    +0.089 A 
ATOM     18  C   UNL     1      -8.001  -9.506  13.038  0.00  0.00    +0.040 A 
ATOM     19  C   UNL     1      -6.470 -10.156  15.345  0.00  0.00    +0.030 A 
ATOM     20  C   UNL     1      -8.585  -9.539  14.308  0.00  0.00    +0.057 A 
ATOM     21  C   UNL     1      -7.835  -9.857  15.443  0.00  0.00    +0.014 A 
ATOM     23  H   UNL     1      -5.989  -9.691  10.941  0.00  0.00    +0.167 HD
ENDROOT
BRANCH  15  10
ATOM      4  N   UNL     1      -1.094  -9.742  11.243  0.00  0.00    -0.299 NA
ATOM     10  C   UNL     1      -3.338 -10.369  11.501  0.00  0.00    +0.070 C 
ATOM     11  C   UNL     1      -2.004 -10.287  12.254  0.00  0.00    +0.096 C 
ATOM     13  C   UNL     1      -1.854  -8.676  10.590  0.00  0.00    +0.085 C 
ATOM     14  C   UNL     1      -3.224  -9.310  10.391  0.00  0.00    +0.028 C 
BRANCH   4   7
ATOM      7  C   UNL     1       0.121  -9.207  11.870  0.00  0.00    +0.057 C 
ATOM      8  C   UNL     1      -0.187  -7.838  12.509  0.00  0.00    +0.019 C 
ATOM      9  C   UNL     1       0.954  -8.444  10.819  0.00  0.00    +0.019 C 
ATOM     12  C   UNL     1       1.125  -7.333  11.875  0.00  0.00    +0.003 C 
ENDBRANCH   4   7
ENDBRANCH  15  10
BRANCH  20  22
ATOM      1  F   UNL     1     -10.688  -9.200  13.253  0.00  0.00    -0.166 F 
ATOM      2  F   UNL     1     -10.717 -10.133  15.217  0.00  0.00    -0.166 F 
ATOM      3  F   UNL     1     -10.281  -8.016  15.031  0.00  0.00    -0.166 F 
ATOM     22  C   UNL     1     -10.039  -9.228  14.452  0.00  0.00    +0.417 C 
ENDBRANCH  20  22
TORSDOF 3
ENDMDL
MODEL 5
REMARK VINA RESULT:      -1.9     14.304     15.321
REMARK  Name = 45784261
REMARK  3 active torsions:
REMARK  status: ('A' for Active; 'I' for Inactive)
REMARK    1  A    between atoms: N_4  and  C_7
REMARK    2  A    between atoms: C_10  and  C_15
REMARK    3  A    between atoms: C_20  and  C_22
REMARK                            x       y       z     vdW  Elec       q    Type
REMARK                         _______ _______ _______ _____ _____    ______ ____
ROOT
ATOM      5  N   UNL     1      -4.792 -10.355  13.879  0.00  0.00    -0.342 N 
ATOM      6  N   UNL     1      -3.190 -10.777  15.360  0.00  0.00    -0.232 NA
ATOM     15  C   UNL     1      -3.472 -10.644  14.083  0.00  0.00    +0.113 A 
ATOM     16  C   UNL     1      -5.402 -10.297  15.105  0.00  0.00    +0.067 A 
ATOM     17  C   UNL     1      -4.382 -10.564  16.013  0.00  0.00    +0.089 A 
ATOM     18  C   UNL     1      -6.721 -10.042  15.486  0.00  0.00    +0.040 A 
ATOM     19  C   UNL     1      -4.675 -10.582  17.387  0.00  0.00    +0.030 A 
ATOM     20  C   UNL     1      -6.995 -10.063  16.857  0.00  0.00    +0.057 A 
ATOM     21  C   UNL     1      -5.992 -10.328  17.793  0.00  0.00    +0.014 A 
ATOM     23  H   UNL     1      -5.241 -10.209  12.985  0.00  0.00    +0.167 HD
ENDROOT
BRANCH  15  10
ATOM      4  N   UNL     1      -1.091  -9.557  11.517  0.00  0.00    -0.299 NA
ATOM     10  C   UNL     1      -2.508 -10.781  12.927  0.00  0.00    +0.070 C 
ATOM     11  C   UNL     1      -1.401  -9.719  12.940  0.00  0.00    +0.096 C 
ATOM     13  C   UNL     1      -2.392  -9.528  10.850  0.00  0.00    +0.085 C 
ATOM     14  C   UNL     1      -3.149 -10.659  11.533  0.00  0.00    +0.028 C 
BRANCH   4   7
ATOM      7  C   UNL     1      -0.357  -8.307  11.283  0.00  0.00    +0.057 C 
ATOM      8  C   UNL     1       1.099  -8.627  10.891  0.00  0.00    +0.019 C 
ATOM      9  C   UNL     1       0.199  -7.775  12.620  0.00  0.00    +0.019 C 
ATOM     12  C   UNL     1       1.527  -7.520  11.876  0.00  0.00    +0.003 C 
ENDBRANCH   4   7
ENDBRANCH  15  10
BRANCH  20  22
ATOM      1  F   UNL     1      -8.639  -8.469  17.493  0.00  0.00    -0.166 F 
ATOM      2  F   UNL     1      -9.348 -10.252  16.471  0.00  0.00    -0.166 F 
ATOM      3  F   UNL     1      -8.675 -10.380  18.530  0.00  0.00    -0.166 F 
ATOM     22  C   UNL     1      -8.387  -9.799  17.328  0.00  0.00    +0.417 C 
ENDBRANCH  20  22
TORSDOF 3
ENDMDL
MODEL 6
REMARK VINA RESULT:      -1.8      4.760      8.034
REMARK  Name = 45784261
REMARK  3 active torsions:
REMARK  status: ('A' for Active; 'I' for Inactive)
REMARK    1  A    between atoms: N_4  and  C_7
REMARK    2  A    between atoms: C_10  and  C_15
REMARK    3  A    between atoms: C_20  and  C_22
REMARK                            x       y       z     vdW  Elec       q    Type
REMARK                         _______ _______ _______ _____ _____    ______ ____
ROOT
ATOM      5  N   UNL     1      -0.113  -1.076  23.999  0.00  0.00    -0.342 N 
ATOM      6  N   UNL     1      -0.614   1.035  23.518  0.00  0.00    -0.232 NA
ATOM     15  C   UNL     1      -1.100  -0.144  23.840  0.00  0.00    +0.113 A 
ATOM     16  C   UNL     1       1.088  -0.459  23.765  0.00  0.00    +0.067 A 
ATOM     17  C   UNL     1       0.749   0.858  23.466  0.00  0.00    +0.089 A 
ATOM     18  C   UNL     1       2.404  -0.925  23.787  0.00  0.00    +0.040 A 
ATOM     19  C   UNL     1       1.769   1.778  23.169  0.00  0.00    +0.030 A 
ATOM     20  C   UNL     1       3.406   0.003  23.489  0.00  0.00    +0.057 A 
ATOM     21  C   UNL     1       3.097   1.332  23.187  0.00  0.00    +0.014 A 
ATOM     23  H   UNL     1      -0.242  -2.048  24.247  0.00  0.00    +0.167 HD
ENDROOT
BRANCH  15  10
ATOM      4  N   UNL     1      -4.659   0.417  24.511  0.00  0.00    -0.299 NA
ATOM     10  C   UNL     1      -2.556  -0.500  24.028  0.00  0.00    +0.070 C 
ATOM     11  C   UNL     1      -3.507   0.638  23.633  0.00  0.00    +0.096 C 
ATOM     13  C   UNL     1      -4.081   0.107  25.819  0.00  0.00    +0.085 C 
ATOM     14  C   UNL     1      -2.954  -0.856  25.471  0.00  0.00    +0.028 C 
BRANCH   4   7
ATOM      7  C   UNL     1      -5.497   1.620  24.584  0.00  0.00    +0.057 C 
ATOM      8  C   UNL     1      -4.611   2.876  24.455  0.00  0.00    +0.019 C 
ATOM      9  C   UNL     1      -5.710   2.015  26.060  0.00  0.00    +0.019 C 
ATOM     12  C   UNL     1      -5.410   3.467  25.634  0.00  0.00    +0.003 C 
ENDBRANCH   4   7
ENDBRANCH  15  10
BRANCH  20  22
ATOM      1  F   UNL     1       5.524   0.050  24.567  0.00  0.00    -0.166 F 
ATOM      2  F   UNL     1       4.988  -1.791  23.542  0.00  0.00    -0.166 F 
ATOM      3  F   UNL     1       5.533  -0.032  22.394  0.00  0.00    -0.166 F 
ATOM     22  C   UNL     1       4.834  -0.435  23.496  0.00  0.00    +0.417 C 
ENDBRANCH  20  22
TORSDOF 3
ENDMDL
MODEL 7
REMARK VINA RESULT:      -0.4      4.823      7.982
REMARK  Name = 45784261
REMARK  3 active torsions:
REMARK  status: ('A' for Active; 'I' for Inactive)
REMARK    1  A    between atoms: N_4  and  C_7
REMARK    2  A    between atoms: C_10  and  C_15
REMARK    3  A    between atoms: C_20  and  C_22
REMARK                            x       y       z     vdW  Elec       q    Type
REMARK                         _______ _______ _______ _____ _____    ______ ____
ROOT
ATOM      5  N   UNL     1       0.556   1.362  22.984  0.00  0.00    -0.342 N 
ATOM      6  N   UNL     1      -0.171  -0.668  23.523  0.00  0.00    -0.232 NA
ATOM     15  C   UNL     1      -0.527   0.550  23.181  0.00  0.00    +0.113 A 
ATOM     16  C   UNL     1       1.683   0.617  23.214  0.00  0.00    +0.067 A 
ATOM     17  C   UNL     1       1.204  -0.646  23.549  0.00  0.00    +0.089 A 
ATOM     18  C   UNL     1       3.043   0.931  23.160  0.00  0.00    +0.040 A 
ATOM     19  C   UNL     1       2.119  -1.668  23.851  0.00  0.00    +0.030 A 
ATOM     20  C   UNL     1       3.939  -0.098  23.463  0.00  0.00    +0.057 A 
ATOM     21  C   UNL     1       3.488  -1.376  23.802  0.00  0.00    +0.014 A 
ATOM     23  H   UNL     1       0.532   2.336  22.716  0.00  0.00    +0.167 HD
ENDROOT
BRANCH  15  10
ATOM      4  N   UNL     1      -3.477   2.622  23.843  0.00  0.00    -0.299 NA
ATOM     10  C   UNL     1      -1.937   1.064  23.008  0.00  0.00    +0.070 C 
ATOM     11  C   UNL     1      -2.087   2.544  23.387  0.00  0.00    +0.096 C 
ATOM     13  C   UNL     1      -3.668   1.431  24.671  0.00  0.00    +0.085 C 
ATOM     14  C   UNL     1      -2.999   0.337  23.851  0.00  0.00    +0.028 C 
BRANCH   4   7
ATOM      7  C   UNL     1      -3.700   3.843  24.627  0.00  0.00    +0.057 C 
ATOM      8  C   UNL     1      -2.416   4.201  25.403  0.00  0.00    +0.019 C 
ATOM      9  C   UNL     1      -4.329   3.478  25.988  0.00  0.00    +0.019 C 
ATOM     12  C   UNL     1      -3.317   4.451  26.629  0.00  0.00    +0.003 C 
ENDBRANCH   4   7
ENDBRANCH  15  10
BRANCH  20  22
ATOM      1  F   UNL     1       5.704   1.475  23.710  0.00  0.00    -0.166 F 
ATOM      2  F   UNL     1       6.125  -0.571  24.314  0.00  0.00    -0.166 F 
ATOM      3  F   UNL     1       5.975  -0.073  22.207  0.00  0.00    -0.166 F 
ATOM     22  C   UNL     1       5.407   0.176  23.424  0.00  0.00    +0.417 C 
ENDBRANCH  20  22
TORSDOF 3
ENDMDL
MODEL 8
REMARK VINA RESULT:      -0.0      5.096      8.098
REMARK  Name = 45784261
REMARK  3 active torsions:
REMARK  status: ('A' for Active; 'I' for Inactive)
REMARK    1  A    between atoms: N_4  and  C_7
REMARK    2  A    between atoms: C_10  and  C_15
REMARK    3  A    between atoms: C_20  and  C_22
REMARK                            x       y       z     vdW  Elec       q    Type
REMARK                         _______ _______ _______ _____ _____    ______ ____
ROOT
ATOM      5  N   UNL     1       1.081   1.388  24.414  0.00  0.00    -0.342 N 
ATOM      6  N   UNL     1       0.276   0.570  22.512  0.00  0.00    -0.232 NA
ATOM     15  C   UNL     1      -0.025   1.174  23.640  0.00  0.00    +0.113 A 
ATOM     16  C   UNL     1       2.166   0.890  23.741  0.00  0.00    +0.067 A 
ATOM     17  C   UNL     1       1.638   0.385  22.557  0.00  0.00    +0.089 A 
ATOM     18  C   UNL     1       3.525   0.839  24.057  0.00  0.00    +0.040 A 
ATOM     19  C   UNL     1       2.500  -0.211  21.621  0.00  0.00    +0.030 A 
ATOM     20  C   UNL     1       4.369   0.243  23.114  0.00  0.00    +0.057 A 
ATOM     21  C   UNL     1       3.868  -0.272  21.916  0.00  0.00    +0.014 A 
ATOM     23  H   UNL     1       1.099   1.835  25.321  0.00  0.00    +0.167 HD
ENDROOT
BRANCH  15  10
ATOM      4  N   UNL     1      -3.527   0.799  24.653  0.00  0.00    -0.299 NA
ATOM     10  C   UNL     1      -1.399   1.608  24.094  0.00  0.00    +0.070 C 
ATOM     11  C   UNL     1      -2.113   0.546  24.941  0.00  0.00    +0.096 C 
ATOM     13  C   UNL     1      -3.582   1.018  23.207  0.00  0.00    +0.085 C 
ATOM     14  C   UNL     1      -2.385   1.927  22.957  0.00  0.00    +0.028 C 
BRANCH   4   7
ATOM      7  C   UNL     1      -4.351  -0.355  25.036  0.00  0.00    +0.057 C 
ATOM      8  C   UNL     1      -3.512  -1.330  25.886  0.00  0.00    +0.019 C 
ATOM      9  C   UNL     1      -4.311  -1.415  23.916  0.00  0.00    +0.019 C 
ATOM     12  C   UNL     1      -4.101  -2.467  25.026  0.00  0.00    +0.003 C 
ENDBRANCH   4   7
ENDBRANCH  15  10
BRANCH  20  22
ATOM      1  F   UNL     1       6.120  -0.695  24.419  0.00  0.00    -0.166 F 
ATOM      2  F   UNL     1       6.567  -0.285  22.332  0.00  0.00    -0.166 F 
ATOM      3  F   UNL     1       6.392   1.354  23.743  0.00  0.00    -0.166 F 
ATOM     22  C   UNL     1       5.833   0.158  23.395  0.00  0.00    +0.417 C 
ENDBRANCH  20  22
TORSDOF 3
ENDMDL
