MODEL 1
REMARK VINA RESULT:      10.1      0.000      0.000
REMARK  Name = 11912252
REMARK  5 active torsions:
REMARK  status: ('A' for Active; 'I' for Inactive)
REMARK    1  A    between atoms: S_1  and  N_8
REMARK    2  A    between atoms: S_1  and  C_28
REMARK    3  A    between atoms: N_10  and  C_13
REMARK    4  A    between atoms: N_11  and  C_25
REMARK    5  A    between atoms: C_14  and  C_24
REMARK                            x       y       z     vdW  Elec       q    Type
REMARK                         _______ _______ _______ _____ _____    ______ ____
ROOT
ATOM      3  O   UNL     1       2.571   1.014  22.423  0.00  0.00    -0.253 OA
ATOM      8  N   UNL     1      -1.917   0.112  24.572  0.00  0.00    -0.162 NA
ATOM      9  N   UNL     1       0.887   0.159  23.774  0.00  0.00    -0.282 N 
ATOM     10  N   UNL     1       2.869  -1.055  23.385  0.00  0.00    -0.296 N 
ATOM     14  C   UNL     1      -1.425   0.911  23.413  0.00  0.00    +0.183 C 
ATOM     15  C   UNL     1       0.030   1.329  23.587  0.00  0.00    +0.139 C 
ATOM     18  C   UNL     1      -0.846  -0.433  25.455  0.00  0.00    +0.129 C 
ATOM     19  C   UNL     1       0.349  -0.902  24.635  0.00  0.00    +0.126 C 
ATOM     23  C   UNL     1       2.142   0.106  23.142  0.00  0.00    +0.303 C 
ATOM     36  H   UNL     1       2.432  -1.829  23.869  0.00  0.00    +0.151 HD
ENDROOT
BRANCH  10  13
ATOM     13  C   UNL     1       4.178  -1.283  22.812  0.00  0.00    +0.074 C 
ATOM     16  C   UNL     1       5.152  -1.827  23.864  0.00  0.00    +0.022 C 
ATOM     17  C   UNL     1       4.722  -0.009  22.159  0.00  0.00    +0.022 C 
ATOM     20  C   UNL     1       5.558  -0.768  24.888  0.00  0.00    +0.002 C 
ATOM     21  C   UNL     1       5.130   1.048  23.186  0.00  0.00    +0.002 C 
ATOM     22  C   UNL     1       6.107   0.485  24.214  0.00  0.00    +0.000 C 
ENDBRANCH  10  13
BRANCH  14  24
ATOM      6  O   UNL     1      -2.884   2.450  22.330  0.00  0.00    -0.274 OA
ATOM     11  N   UNL     1      -2.356   2.780  24.573  0.00  0.00    -0.303 N 
ATOM     24  C   UNL     1      -2.305   2.115  23.361  0.00  0.00    +0.234 C 
ATOM     37  H   UNL     1      -1.858   2.393  25.370  0.00  0.00    +0.149 HD
BRANCH  11  25
ATOM      7  O   UNL     1      -2.792   3.608  27.142  0.00  0.00    -0.274 OA
ATOM     12  N   UNL     1      -4.703   4.699  26.529  0.00  0.00    -0.314 N 
ATOM     25  C   UNL     1      -3.117   3.985  24.780  0.00  0.00    +0.159 C 
ATOM     26  C   UNL     1      -4.282   4.063  23.803  0.00  0.00    +0.033 C 
ATOM     27  C   UNL     1      -5.166   5.249  24.157  0.00  0.00    +0.021 C 
ATOM     29  C   UNL     1      -3.525   4.038  26.248  0.00  0.00    +0.233 C 
ATOM     30  C   UNL     1      -5.720   5.055  25.555  0.00  0.00    +0.104 C 
ATOM     38  H   UNL     1      -4.955   4.791  27.508  0.00  0.00    +0.149 HD
ENDBRANCH  11  25
ENDBRANCH  14  24
BRANCH   8   1
ATOM      1  S   UNL     1      -3.266  -0.904  24.292  0.00  0.00    +0.062 S 
ATOM      4  O   UNL     1      -3.125  -2.092  25.099  0.00  0.00    -0.153 OA
ATOM      5  O   UNL     1      -3.493  -0.981  22.868  0.00  0.00    -0.153 OA
BRANCH   1  28
ATOM      2  F   UNL     1      -7.517   2.422  26.656  0.00  0.00    -0.205 F 
ATOM     28  C   UNL     1      -4.539   0.091  24.999  0.00  0.00    +0.106 A 
ATOM     31  C   UNL     1      -4.635   0.219  26.385  0.00  0.00    +0.031 A 
ATOM     32  C   UNL     1      -5.449   0.750  24.173  0.00  0.00    +0.031 A 
ATOM     33  C   UNL     1      -5.641   1.006  26.944  0.00  0.00    +0.040 A 
ATOM     34  C   UNL     1      -6.455   1.538  24.733  0.00  0.00    +0.040 A 
ATOM     35  C   UNL     1      -6.552   1.665  26.119  0.00  0.00    +0.124 A 
ENDBRANCH   1  28
ENDBRANCH   8   1
TORSDOF 5
ENDMDL
MODEL 2
REMARK VINA RESULT:      10.7      2.078      4.369
REMARK  Name = 11912252
REMARK  5 active torsions:
REMARK  status: ('A' for Active; 'I' for Inactive)
REMARK    1  A    between atoms: S_1  and  N_8
REMARK    2  A    between atoms: S_1  and  C_28
REMARK    3  A    between atoms: N_10  and  C_13
REMARK    4  A    between atoms: N_11  and  C_25
REMARK    5  A    between atoms: C_14  and  C_24
REMARK                            x       y       z     vdW  Elec       q    Type
REMARK                         _______ _______ _______ _____ _____    ______ ____
ROOT
ATOM      3  O   UNL     1       3.075  -0.867  23.561  0.00  0.00    -0.253 OA
ATOM      8  N   UNL     1      -0.993   1.999  24.466  0.00  0.00    -0.162 NA
ATOM      9  N   UNL     1       1.511   0.850  23.511  0.00  0.00    -0.282 N 
ATOM     10  N   UNL     1       3.737   1.212  22.825  0.00  0.00    -0.296 N 
ATOM     14  C   UNL     1      -0.407   0.755  25.046  0.00  0.00    +0.183 C 
ATOM     15  C   UNL     1       0.440  -0.001  24.030  0.00  0.00    +0.139 C 
ATOM     18  C   UNL     1      -0.362   2.453  23.193  0.00  0.00    +0.129 C 
ATOM     19  C   UNL     1       1.146   2.243  23.229  0.00  0.00    +0.126 C 
ATOM     23  C   UNL     1       2.795   0.311  23.315  0.00  0.00    +0.303 C 
ATOM     36  H   UNL     1       3.504   2.195  22.761  0.00  0.00    +0.151 HD
ENDROOT
BRANCH  10  13
ATOM     13  C   UNL     1       5.109   0.834  22.568  0.00  0.00    +0.074 C 
ATOM     16  C   UNL     1       5.225  -0.672  22.305  0.00  0.00    +0.022 C 
ATOM     17  C   UNL     1       6.024   1.268  23.717  0.00  0.00    +0.022 C 
ATOM     20  C   UNL     1       5.017  -1.504  23.570  0.00  0.00    +0.002 C 
ATOM     21  C   UNL     1       5.816   0.432  24.980  0.00  0.00    +0.002 C 
ATOM     22  C   UNL     1       5.947  -1.060  24.694  0.00  0.00    +0.000 C 
ENDBRANCH  10  13
BRANCH  14  24
ATOM      6  O   UNL     1      -1.889  -0.202  26.645  0.00  0.00    -0.274 OA
ATOM     11  N   UNL     1      -2.208  -0.669  24.386  0.00  0.00    -0.303 N 
ATOM     24  C   UNL     1      -1.574  -0.074  25.464  0.00  0.00    +0.234 C 
ATOM     37  H   UNL     1      -1.877  -0.467  23.447  0.00  0.00    +0.149 HD
BRANCH  11  25
ATOM      7  O   UNL     1      -1.780  -3.244  25.198  0.00  0.00    -0.274 OA
ATOM     12  N   UNL     1      -3.683  -3.953  24.152  0.00  0.00    -0.314 N 
ATOM     25  C   UNL     1      -3.348  -1.537  24.524  0.00  0.00    +0.159 C 
ATOM     26  C   UNL     1      -4.344  -1.307  23.395  0.00  0.00    +0.033 C 
ATOM     27  C   UNL     1      -5.446  -2.352  23.465  0.00  0.00    +0.021 C 
ATOM     29  C   UNL     1      -2.838  -2.970  24.627  0.00  0.00    +0.233 C 
ATOM     30  C   UNL     1      -4.834  -3.730  23.296  0.00  0.00    +0.104 C 
ATOM     38  H   UNL     1      -3.379  -4.915  24.269  0.00  0.00    +0.149 HD
ENDBRANCH  11  25
ENDBRANCH  14  24
BRANCH   8   1
ATOM      1  S   UNL     1      -1.450   3.223  25.572  0.00  0.00    +0.062 S 
ATOM      4  O   UNL     1      -1.084   4.505  25.018  0.00  0.00    -0.153 OA
ATOM      5  O   UNL     1      -1.031   2.825  26.895  0.00  0.00    -0.153 OA
BRANCH   1  28
ATOM      2  F   UNL     1      -7.310   2.701  25.264  0.00  0.00    -0.205 F 
ATOM     28  C   UNL     1      -3.204   3.067  25.480  0.00  0.00    +0.106 A 
ATOM     31  C   UNL     1      -3.775   2.080  24.676  0.00  0.00    +0.031 A 
ATOM     32  C   UNL     1      -4.020   3.931  26.210  0.00  0.00    +0.031 A 
ATOM     33  C   UNL     1      -5.162   1.957  24.604  0.00  0.00    +0.040 A 
ATOM     34  C   UNL     1      -5.408   3.807  26.137  0.00  0.00    +0.040 A 
ATOM     35  C   UNL     1      -5.979   2.820  25.333  0.00  0.00    +0.124 A 
ENDBRANCH   1  28
ENDBRANCH   8   1
TORSDOF 5
ENDMDL
MODEL 3
REMARK VINA RESULT:      10.9      2.510      3.259
REMARK  Name = 11912252
REMARK  5 active torsions:
REMARK  status: ('A' for Active; 'I' for Inactive)
REMARK    1  A    between atoms: S_1  and  N_8
REMARK    2  A    between atoms: S_1  and  C_28
REMARK    3  A    between atoms: N_10  and  C_13
REMARK    4  A    between atoms: N_11  and  C_25
REMARK    5  A    between atoms: C_14  and  C_24
REMARK                            x       y       z     vdW  Elec       q    Type
REMARK                         _______ _______ _______ _____ _____    ______ ____
ROOT
ATOM      3  O   UNL     1       1.492   0.348  21.879  0.00  0.00    -0.253 OA
ATOM      8  N   UNL     1      -2.102   0.307  25.436  0.00  0.00    -0.162 NA
ATOM      9  N   UNL     1       0.382   0.205  23.914  0.00  0.00    -0.282 N 
ATOM     10  N   UNL     1       2.489  -0.805  23.603  0.00  0.00    -0.296 N 
ATOM     14  C   UNL     1      -2.069   0.384  23.946  0.00  0.00    +0.183 C 
ATOM     15  C   UNL     1      -0.762   0.980  23.437  0.00  0.00    +0.139 C 
ATOM     18  C   UNL     1      -0.775   0.456  26.100  0.00  0.00    +0.129 C 
ATOM     19  C   UNL     1       0.312  -0.257  25.306  0.00  0.00    +0.126 C 
ATOM     23  C   UNL     1       1.458  -0.054  23.047  0.00  0.00    +0.303 C 
ATOM     36  H   UNL     1       2.367  -1.225  24.516  0.00  0.00    +0.151 HD
ENDROOT
BRANCH  10  13
ATOM     13  C   UNL     1       3.672  -1.170  22.856  0.00  0.00    +0.074 C 
ATOM     16  C   UNL     1       4.758  -1.729  23.782  0.00  0.00    +0.022 C 
ATOM     17  C   UNL     1       4.196   0.017  22.041  0.00  0.00    +0.022 C 
ATOM     20  C   UNL     1       5.394  -0.649  24.657  0.00  0.00    +0.002 C 
ATOM     21  C   UNL     1       4.834   1.094  22.919  0.00  0.00    +0.002 C 
ATOM     22  C   UNL     1       5.918   0.515  23.822  0.00  0.00    +0.000 C 
ENDBRANCH  10  13
BRANCH  14  24
ATOM      6  O   UNL     1      -3.605   1.355  22.407  0.00  0.00    -0.274 OA
ATOM     11  N   UNL     1      -3.743   1.932  24.658  0.00  0.00    -0.303 N 
ATOM     24  C   UNL     1      -3.217   1.259  23.570  0.00  0.00    +0.234 C 
ATOM     37  H   UNL     1      -3.360   1.751  25.582  0.00  0.00    +0.149 HD
BRANCH  11  25
ATOM      7  O   UNL     1      -3.238   4.440  23.697  0.00  0.00    -0.274 OA
ATOM     12  N   UNL     1      -5.022   5.300  24.834  0.00  0.00    -0.314 N 
ATOM     25  C   UNL     1      -4.843   2.856  24.557  0.00  0.00    +0.159 C 
ATOM     26  C   UNL     1      -5.767   2.732  25.761  0.00  0.00    +0.033 C 
ATOM     27  C   UNL     1      -6.815   3.833  25.716  0.00  0.00    +0.021 C 
ATOM     29  C   UNL     1      -4.266   4.252  24.351  0.00  0.00    +0.233 C 
ATOM     30  C   UNL     1      -6.120   5.180  25.776  0.00  0.00    +0.104 C 
ATOM     38  H   UNL     1      -4.677   6.238  24.651  0.00  0.00    +0.149 HD
ENDBRANCH  11  25
ENDBRANCH  14  24
BRANCH   8   1
ATOM      1  S   UNL     1      -3.179  -0.831  26.126  0.00  0.00    +0.062 S 
ATOM      4  O   UNL     1      -4.514  -0.282  26.095  0.00  0.00    -0.153 OA
ATOM      5  O   UNL     1      -2.596  -1.330  27.348  0.00  0.00    -0.153 OA
BRANCH   1  28
ATOM      2  F   UNL     1      -2.859  -5.086  22.063  0.00  0.00    -0.205 F 
ATOM     28  C   UNL     1      -3.083  -2.105  24.910  0.00  0.00    +0.106 A 
ATOM     31  C   UNL     1      -4.233  -2.510  24.231  0.00  0.00    +0.031 A 
ATOM     32  C   UNL     1      -1.857  -2.707  24.626  0.00  0.00    +0.031 A 
ATOM     33  C   UNL     1      -4.157  -3.518  23.270  0.00  0.00    +0.040 A 
ATOM     34  C   UNL     1      -1.782  -3.714  23.664  0.00  0.00    +0.040 A 
ATOM     35  C   UNL     1      -2.932  -4.120  22.986  0.00  0.00    +0.124 A 
ENDBRANCH   1  28
ENDBRANCH   8   1
TORSDOF 5
ENDMDL
MODEL 4
REMARK VINA RESULT:      12.0      2.195      2.691
REMARK  Name = 11912252
REMARK  5 active torsions:
REMARK  status: ('A' for Active; 'I' for Inactive)
REMARK    1  A    between atoms: S_1  and  N_8
REMARK    2  A    between atoms: S_1  and  C_28
REMARK    3  A    between atoms: N_10  and  C_13
REMARK    4  A    between atoms: N_11  and  C_25
REMARK    5  A    between atoms: C_14  and  C_24
REMARK                            x       y       z     vdW  Elec       q    Type
REMARK                         _______ _______ _______ _____ _____    ______ ____
ROOT
ATOM      3  O   UNL     1       2.833   2.148  23.178  0.00  0.00    -0.253 OA
ATOM      8  N   UNL     1      -1.963   1.284  24.527  0.00  0.00    -0.162 NA
ATOM      9  N   UNL     1       0.880   1.122  23.901  0.00  0.00    -0.282 N 
ATOM     10  N   UNL     1       2.652  -0.139  22.993  0.00  0.00    -0.296 N 
ATOM     14  C   UNL     1      -1.208   2.420  23.924  0.00  0.00    +0.183 C 
ATOM     15  C   UNL     1       0.268   2.387  24.305  0.00  0.00    +0.139 C 
ATOM     18  C   UNL     1      -1.115   0.170  25.040  0.00  0.00    +0.129 C 
ATOM     19  C   UNL     1       0.068  -0.083  24.115  0.00  0.00    +0.126 C 
ATOM     23  C   UNL     1       2.172   1.119  23.346  0.00  0.00    +0.303 C 
ATOM     36  H   UNL     1       2.033  -0.939  23.023  0.00  0.00    +0.151 HD
ENDROOT
BRANCH  10  13
ATOM     13  C   UNL     1       3.959  -0.331  22.404  0.00  0.00    +0.074 C 
ATOM     16  C   UNL     1       4.522  -1.713  22.751  0.00  0.00    +0.022 C 
ATOM     17  C   UNL     1       4.922   0.783  22.827  0.00  0.00    +0.022 C 
ATOM     20  C   UNL     1       4.941  -1.823  24.217  0.00  0.00    +0.002 C 
ATOM     21  C   UNL     1       5.341   0.668  24.293  0.00  0.00    +0.002 C 
ATOM     22  C   UNL     1       5.908  -0.712  24.610  0.00  0.00    +0.000 C 
ENDBRANCH  10  13
BRANCH  14  24
ATOM      6  O   UNL     1      -1.191   4.622  24.829  0.00  0.00    -0.274 OA
ATOM     11  N   UNL     1      -3.231   3.548  24.506  0.00  0.00    -0.303 N 
ATOM     24  C   UNL     1      -1.852   3.653  24.461  0.00  0.00    +0.234 C 
ATOM     37  H   UNL     1      -3.674   2.706  24.146  0.00  0.00    +0.149 HD
BRANCH  11  25
ATOM      7  O   UNL     1      -4.718   3.041  26.743  0.00  0.00    -0.274 OA
ATOM     12  N   UNL     1      -6.285   4.584  26.124  0.00  0.00    -0.314 N 
ATOM     25  C   UNL     1      -4.086   4.593  25.006  0.00  0.00    +0.159 C 
ATOM     26  C   UNL     1      -4.760   5.336  23.861  0.00  0.00    +0.033 C 
ATOM     27  C   UNL     1      -5.785   6.311  24.418  0.00  0.00    +0.021 C 
ATOM     29  C   UNL     1      -5.054   3.971  26.006  0.00  0.00    +0.233 C 
ATOM     30  C   UNL     1      -6.842   5.537  25.181  0.00  0.00    +0.104 C 
ATOM     38  H   UNL     1      -6.916   4.214  26.828  0.00  0.00    +0.149 HD
ENDBRANCH  11  25
ENDBRANCH  14  24
BRANCH   8   1
ATOM      1  S   UNL     1      -3.427   0.837  23.758  0.00  0.00    +0.062 S 
ATOM      4  O   UNL     1      -3.223   0.859  22.329  0.00  0.00    -0.153 OA
ATOM      5  O   UNL     1      -4.509   1.564  24.378  0.00  0.00    -0.153 OA
BRANCH   1  28
ATOM      2  F   UNL     1      -3.772  -4.790  25.472  0.00  0.00    -0.205 F 
ATOM     28  C   UNL     1      -3.530  -0.847  24.271  0.00  0.00    +0.106 A 
ATOM     31  C   UNL     1      -3.183  -1.202  25.575  0.00  0.00    +0.031 A 
ATOM     32  C   UNL     1      -3.958  -1.824  23.373  0.00  0.00    +0.031 A 
ATOM     33  C   UNL     1      -3.264  -2.534  25.980  0.00  0.00    +0.040 A 
ATOM     34  C   UNL     1      -4.040  -3.156  23.779  0.00  0.00    +0.040 A 
ATOM     35  C   UNL     1      -3.693  -3.511  25.082  0.00  0.00    +0.124 A 
ENDBRANCH   1  28
ENDBRANCH   8   1
TORSDOF 5
ENDMDL
