MODEL 1
REMARK VINA RESULT:       1.4      0.000      0.000
REMARK  Name = 11913294
REMARK  9 active torsions:
REMARK  status: ('A' for Active; 'I' for Inactive)
REMARK    1  A    between atoms: S_1  and  N_6
REMARK    2  A    between atoms: S_1  and  C_18
REMARK    3  A    between atoms: N_6  and  C_13
REMARK    4  A    between atoms: N_7  and  C_14
REMARK    5  A    between atoms: C_19  and  C_20
REMARK    6  A    between atoms: C_19  and  C_25
REMARK    7  A    between atoms: C_19  and  C_26
REMARK    8  A    between atoms: C_19  and  C_27
REMARK    9  A    between atoms: C_21  and  C_31
REMARK                            x       y       z     vdW  Elec       q    Type
REMARK                         _______ _______ _______ _____ _____    ______ ____
ROOT
ATOM      2  O   UNL     1      -1.162  -1.177  26.510  0.00  0.00    -0.370 OA
ATOM      3  O   UNL     1      -2.494  -2.125  23.846  0.00  0.00    -0.370 OA
ATOM     11  C   UNL     1      -1.690  -0.986  24.197  0.00  0.00    +0.170 C 
ATOM     12  C   UNL     1      -2.091  -0.566  25.598  0.00  0.00    +0.171 C 
ATOM     13  C   UNL     1      -0.242  -1.391  24.333  0.00  0.00    +0.133 C 
ATOM     14  C   UNL     1      -3.468  -1.154  25.782  0.00  0.00    +0.130 C 
ATOM     15  C   UNL     1      -0.166  -1.891  25.763  0.00  0.00    +0.183 C 
ATOM     16  C   UNL     1      -3.420  -2.395  24.909  0.00  0.00    +0.185 C 
ENDROOT
BRANCH  14   7
ATOM      7  N   UNL     1      -4.470  -0.234  25.289  0.00  0.00    -0.306 N 
ATOM      8  N   UNL     1      -2.950   1.551  25.209  0.00  0.00    -0.219 NA
ATOM      9  N   UNL     1      -5.248   1.851  24.546  0.00  0.00    -0.223 NA
ATOM     17  C   UNL     1      -4.216   1.096  25.006  0.00  0.00    +0.216 A 
ATOM     20  C   UNL     1      -2.736   2.852  24.922  0.00  0.00    +0.052 A 
ATOM     23  C   UNL     1      -3.715   3.705  24.450  0.00  0.00    +0.043 A 
ATOM     24  C   UNL     1      -4.963   3.143  24.280  0.00  0.00    +0.116 A 
ATOM     33  H   UNL     1      -5.403  -0.576  25.084  0.00  0.00    +0.149 HD
BRANCH  20  19
ATOM     19  C   UNL     1      -1.354   3.369  25.138  0.00  0.00    +0.005 C 
ATOM     25  C   UNL     1      -1.359   4.909  25.388  0.00  0.00    +0.017 C 
ATOM     26  C   UNL     1      -0.447   3.095  23.899  0.00  0.00    +0.017 C 
ATOM     27  C   UNL     1      -0.590   2.752  26.357  0.00  0.00    +0.017 C 
ENDBRANCH  20  19
ENDBRANCH  14   7
BRANCH  13   6
ATOM      6  N   UNL     1       0.625  -0.198  24.176  0.00  0.00    -0.182 NA
ATOM     32  H   UNL     1       0.504   0.573  24.844  0.00  0.00    +0.148 HD
BRANCH   6   1
ATOM      1  S   UNL     1       1.487   0.035  22.731  0.00  0.00    +0.060 S 
ATOM      4  O   UNL     1       1.482   1.443  22.387  0.00  0.00    -0.153 OA
ATOM      5  O   UNL     1       1.051  -0.954  21.763  0.00  0.00    -0.153 OA
BRANCH   1  18
ATOM     18  C   UNL     1       3.130  -0.404  23.212  0.00  0.00    +0.123 A 
ATOM     21  C   UNL     1       4.185   0.485  23.071  0.00  0.00    +0.078 A 
ATOM     22  C   UNL     1       3.329  -1.672  23.741  0.00  0.00    +0.030 A 
ATOM     28  C   UNL     1       5.466   0.099  23.464  0.00  0.00    +0.021 A 
ATOM     29  C   UNL     1       4.610  -2.058  24.133  0.00  0.00    +0.002 A 
ATOM     30  C   UNL     1       5.678  -1.173  23.995  0.00  0.00    +0.001 A 
BRANCH  21  31
ATOM     10  N   UNL     1       3.857   2.862  22.092  0.00  0.00    -0.191 NA
ATOM     31  C   UNL     1       4.004   1.799  22.530  0.00  0.00    +0.101 C 
ENDBRANCH  21  31
ENDBRANCH   1  18
ENDBRANCH   6   1
ENDBRANCH  13   6
TORSDOF 6
ENDMDL
MODEL 2
REMARK VINA RESULT:       2.8      3.396      7.513
REMARK  Name = 11913294
REMARK  9 active torsions:
REMARK  status: ('A' for Active; 'I' for Inactive)
REMARK    1  A    between atoms: S_1  and  N_6
REMARK    2  A    between atoms: S_1  and  C_18
REMARK    3  A    between atoms: N_6  and  C_13
REMARK    4  A    between atoms: N_7  and  C_14
REMARK    5  A    between atoms: C_19  and  C_20
REMARK    6  A    between atoms: C_19  and  C_25
REMARK    7  A    between atoms: C_19  and  C_26
REMARK    8  A    between atoms: C_19  and  C_27
REMARK    9  A    between atoms: C_21  and  C_31
REMARK                            x       y       z     vdW  Elec       q    Type
REMARK                         _______ _______ _______ _____ _____    ______ ____
ROOT
ATOM      2  O   UNL     1      -2.037   3.258  26.460  0.00  0.00    -0.370 OA
ATOM      3  O   UNL     1      -0.386   5.369  24.852  0.00  0.00    -0.370 OA
ATOM     11  C   UNL     1      -1.543   4.575  24.540  0.00  0.00    +0.170 C 
ATOM     12  C   UNL     1      -1.351   3.221  25.197  0.00  0.00    +0.171 C 
ATOM     13  C   UNL     1      -2.765   5.144  25.218  0.00  0.00    +0.133 C 
ATOM     14  C   UNL     1       0.140   3.123  25.414  0.00  0.00    +0.130 C 
ATOM     15  C   UNL     1      -2.704   4.521  26.599  0.00  0.00    +0.183 C 
ATOM     16  C   UNL     1       0.547   4.573  25.599  0.00  0.00    +0.185 C 
ENDROOT
BRANCH  14   7
ATOM      7  N   UNL     1       0.776   2.570  24.238  0.00  0.00    -0.306 N 
ATOM      8  N   UNL     1      -0.068   0.421  24.655  0.00  0.00    -0.219 NA
ATOM      9  N   UNL     1       1.321   0.855  22.733  0.00  0.00    -0.223 NA
ATOM     17  C   UNL     1       0.674   1.243  23.864  0.00  0.00    +0.216 A 
ATOM     20  C   UNL     1      -0.148  -0.866  24.260  0.00  0.00    +0.052 A 
ATOM     23  C   UNL     1       0.471  -1.362  23.129  0.00  0.00    +0.043 A 
ATOM     24  C   UNL     1       1.199  -0.446  22.398  0.00  0.00    +0.116 A 
ATOM     33  H   UNL     1       1.287   3.185  23.613  0.00  0.00    +0.149 HD
BRANCH  20  19
ATOM     19  C   UNL     1      -0.956  -1.782  25.115  0.00  0.00    +0.005 C 
ATOM     25  C   UNL     1      -1.724  -0.993  26.221  0.00  0.00    +0.017 C 
ATOM     26  C   UNL     1      -0.054  -2.835  25.828  0.00  0.00    +0.017 C 
ATOM     27  C   UNL     1      -2.049  -2.612  24.362  0.00  0.00    +0.017 C 
ENDBRANCH  20  19
ENDBRANCH  14   7
BRANCH  13   6
ATOM      6  N   UNL     1      -3.986   4.679  24.516  0.00  0.00    -0.182 NA
ATOM     32  H   UNL     1      -4.223   5.126  23.622  0.00  0.00    +0.148 HD
BRANCH   6   1
ATOM      1  S   UNL     1      -5.133   3.743  25.347  0.00  0.00    +0.060 S 
ATOM      4  O   UNL     1      -6.463   4.077  24.876  0.00  0.00    -0.153 OA
ATOM      5  O   UNL     1      -4.830   3.785  26.766  0.00  0.00    -0.153 OA
BRANCH   1  18
ATOM     18  C   UNL     1      -4.748   2.112  24.786  0.00  0.00    +0.123 A 
ATOM     21  C   UNL     1      -5.335   0.994  25.361  0.00  0.00    +0.078 A 
ATOM     22  C   UNL     1      -3.838   1.987  23.746  0.00  0.00    +0.030 A 
ATOM     28  C   UNL     1      -5.004  -0.275  24.887  0.00  0.00    +0.021 A 
ATOM     29  C   UNL     1      -3.506   0.718  23.273  0.00  0.00    +0.002 A 
ATOM     30  C   UNL     1      -4.089  -0.413  23.843  0.00  0.00    +0.001 A 
BRANCH  21  31
ATOM     10  N   UNL     1      -7.041   1.183  27.302  0.00  0.00    -0.191 NA
ATOM     31  C   UNL     1      -6.278   1.098  26.434  0.00  0.00    +0.101 C 
ENDBRANCH  21  31
ENDBRANCH   1  18
ENDBRANCH   6   1
ENDBRANCH  13   6
TORSDOF 6
ENDMDL
MODEL 3
REMARK VINA RESULT:       3.0      3.325      7.061
REMARK  Name = 11913294
REMARK  9 active torsions:
REMARK  status: ('A' for Active; 'I' for Inactive)
REMARK    1  A    between atoms: S_1  and  N_6
REMARK    2  A    between atoms: S_1  and  C_18
REMARK    3  A    between atoms: N_6  and  C_13
REMARK    4  A    between atoms: N_7  and  C_14
REMARK    5  A    between atoms: C_19  and  C_20
REMARK    6  A    between atoms: C_19  and  C_25
REMARK    7  A    between atoms: C_19  and  C_26
REMARK    8  A    between atoms: C_19  and  C_27
REMARK    9  A    between atoms: C_21  and  C_31
REMARK                            x       y       z     vdW  Elec       q    Type
REMARK                         _______ _______ _______ _____ _____    ______ ____
ROOT
ATOM      2  O   UNL     1      -2.235   3.021  26.528  0.00  0.00    -0.370 OA
ATOM      3  O   UNL     1      -0.882   5.342  24.930  0.00  0.00    -0.370 OA
ATOM     11  C   UNL     1      -1.913   4.392  24.609  0.00  0.00    +0.170 C 
ATOM     12  C   UNL     1      -1.538   3.080  25.271  0.00  0.00    +0.171 C 
ATOM     13  C   UNL     1      -3.209   4.785  25.275  0.00  0.00    +0.133 C 
ATOM     14  C   UNL     1      -0.051   3.192  25.502  0.00  0.00    +0.130 C 
ATOM     15  C   UNL     1      -3.074   4.178  26.658  0.00  0.00    +0.183 C 
ATOM     16  C   UNL     1       0.146   4.686  25.687  0.00  0.00    +0.185 C 
ENDROOT
BRANCH  14   7
ATOM      7  N   UNL     1       0.668   2.734  24.333  0.00  0.00    -0.306 N 
ATOM      8  N   UNL     1       0.055   0.499  24.696  0.00  0.00    -0.219 NA
ATOM      9  N   UNL     1       1.430   1.116  22.815  0.00  0.00    -0.223 NA
ATOM     17  C   UNL     1       0.720   1.410  23.936  0.00  0.00    +0.216 A 
ATOM     20  C   UNL     1       0.126  -0.783  24.280  0.00  0.00    +0.052 A 
ATOM     23  C   UNL     1       0.820  -1.188  23.157  0.00  0.00    +0.043 A 
ATOM     24  C   UNL     1       1.459  -0.185  22.457  0.00  0.00    +0.116 A 
ATOM     33  H   UNL     1       1.122   3.411  23.730  0.00  0.00    +0.149 HD
BRANCH  20  19
ATOM     19  C   UNL     1      -0.596  -1.797  25.102  0.00  0.00    +0.005 C 
ATOM     25  C   UNL     1      -1.396  -1.122  26.259  0.00  0.00    +0.017 C 
ATOM     26  C   UNL     1       0.395  -2.815  25.745  0.00  0.00    +0.017 C 
ATOM     27  C   UNL     1      -1.641  -2.667  24.327  0.00  0.00    +0.017 C 
ENDBRANCH  20  19
ENDBRANCH  14   7
BRANCH  13   6
ATOM      6  N   UNL     1      -4.346   4.152  24.563  0.00  0.00    -0.182 NA
ATOM     32  H   UNL     1      -4.636   4.561  23.666  0.00  0.00    +0.148 HD
BRANCH   6   1
ATOM      1  S   UNL     1      -5.357   3.063  25.385  0.00  0.00    +0.060 S 
ATOM      4  O   UNL     1      -6.715   3.201  24.897  0.00  0.00    -0.153 OA
ATOM      5  O   UNL     1      -5.080   3.152  26.807  0.00  0.00    -0.153 OA
BRANCH   1  18
ATOM     18  C   UNL     1      -4.735   1.503  24.836  0.00  0.00    +0.123 A 
ATOM     21  C   UNL     1      -4.091   1.372  23.614  0.00  0.00    +0.078 A 
ATOM     22  C   UNL     1      -4.910   0.409  25.673  0.00  0.00    +0.030 A 
ATOM     28  C   UNL     1      -3.614   0.122  23.220  0.00  0.00    +0.021 A 
ATOM     29  C   UNL     1      -4.434  -0.840  25.277  0.00  0.00    +0.002 A 
ATOM     30  C   UNL     1      -3.785  -0.984  24.052  0.00  0.00    +0.001 A 
BRANCH  21  31
ATOM     10  N   UNL     1      -3.740   3.387  22.024  0.00  0.00    -0.191 NA
ATOM     31  C   UNL     1      -3.897   2.486  22.735  0.00  0.00    +0.101 C 
ENDBRANCH  21  31
ENDBRANCH   1  18
ENDBRANCH   6   1
ENDBRANCH  13   6
TORSDOF 6
ENDMDL
MODEL 4
REMARK VINA RESULT:       3.4      2.850      6.205
REMARK  Name = 11913294
REMARK  9 active torsions:
REMARK  status: ('A' for Active; 'I' for Inactive)
REMARK    1  A    between atoms: S_1  and  N_6
REMARK    2  A    between atoms: S_1  and  C_18
REMARK    3  A    between atoms: N_6  and  C_13
REMARK    4  A    between atoms: N_7  and  C_14
REMARK    5  A    between atoms: C_19  and  C_20
REMARK    6  A    between atoms: C_19  and  C_25
REMARK    7  A    between atoms: C_19  and  C_26
REMARK    8  A    between atoms: C_19  and  C_27
REMARK    9  A    between atoms: C_21  and  C_31
REMARK                            x       y       z     vdW  Elec       q    Type
REMARK                         _______ _______ _______ _____ _____    ______ ____
ROOT
ATOM      2  O   UNL     1      -3.129  -2.921  24.939  0.00  0.00    -0.370 OA
ATOM      3  O   UNL     1      -1.450  -0.589  26.168  0.00  0.00    -0.370 OA
ATOM     11  C   UNL     1      -2.452  -0.648  25.139  0.00  0.00    +0.170 C 
ATOM     12  C   UNL     1      -2.240  -1.942  24.376  0.00  0.00    +0.171 C 
ATOM     13  C   UNL     1      -3.822  -0.803  25.753  0.00  0.00    +0.133 C 
ATOM     14  C   UNL     1      -0.805  -2.312  24.666  0.00  0.00    +0.130 C 
ATOM     15  C   UNL     1      -3.934  -2.301  25.953  0.00  0.00    +0.183 C 
ATOM     16  C   UNL     1      -0.582  -1.726  26.048  0.00  0.00    +0.185 C 
ENDROOT
BRANCH  14   7
ATOM      7  N   UNL     1       0.073  -1.677  23.707  0.00  0.00    -0.306 N 
ATOM      8  N   UNL     1      -0.124   0.417  24.745  0.00  0.00    -0.219 NA
ATOM      9  N   UNL     1       1.246   0.133  22.783  0.00  0.00    -0.223 NA
ATOM     17  C   UNL     1       0.408  -0.335  23.745  0.00  0.00    +0.216 A 
ATOM     20  C   UNL     1       0.224   1.721  24.754  0.00  0.00    +0.052 A 
ATOM     23  C   UNL     1       1.067   2.296  23.824  0.00  0.00    +0.043 A 
ATOM     24  C   UNL     1       1.552   1.445  22.852  0.00  0.00    +0.116 A 
ATOM     33  H   UNL     1       0.517  -2.240  22.989  0.00  0.00    +0.149 HD
BRANCH  20  19
ATOM     19  C   UNL     1      -0.351   2.562  25.843  0.00  0.00    +0.005 C 
ATOM     25  C   UNL     1      -0.354   4.072  25.450  0.00  0.00    +0.017 C 
ATOM     26  C   UNL     1       0.471   2.421  27.161  0.00  0.00    +0.017 C 
ATOM     27  C   UNL     1      -1.829   2.232  26.237  0.00  0.00    +0.017 C 
ENDBRANCH  20  19
ENDBRANCH  14   7
BRANCH  13   6
ATOM      6  N   UNL     1      -4.854  -0.352  24.787  0.00  0.00    -0.182 NA
ATOM     32  H   UNL     1      -4.944  -0.872  23.906  0.00  0.00    +0.148 HD
BRANCH   6   1
ATOM      1  S   UNL     1      -5.566   1.179  24.966  0.00  0.00    +0.060 S 
ATOM      4  O   UNL     1      -5.580   1.546  26.369  0.00  0.00    -0.153 OA
ATOM      5  O   UNL     1      -6.792   1.218  24.190  0.00  0.00    -0.153 OA
BRANCH   1  18
ATOM     18  C   UNL     1      -4.401   2.221  24.141  0.00  0.00    +0.123 A 
ATOM     21  C   UNL     1      -4.392   3.593  24.342  0.00  0.00    +0.078 A 
ATOM     22  C   UNL     1      -3.491   1.617  23.285  0.00  0.00    +0.030 A 
ATOM     28  C   UNL     1      -3.454   4.379  23.671  0.00  0.00    +0.021 A 
ATOM     29  C   UNL     1      -2.554   2.403  22.614  0.00  0.00    +0.002 A 
ATOM     30  C   UNL     1      -2.535   3.783  22.808  0.00  0.00    +0.001 A 
BRANCH  21  31
ATOM     10  N   UNL     1      -6.070   4.761  25.932  0.00  0.00    -0.191 NA
ATOM     31  C   UNL     1      -5.320   4.239  25.221  0.00  0.00    +0.101 C 
ENDBRANCH  21  31
ENDBRANCH   1  18
ENDBRANCH   6   1
ENDBRANCH  13   6
TORSDOF 6
ENDMDL
MODEL 5
REMARK VINA RESULT:       3.6      3.410      7.195
REMARK  Name = 11913294
REMARK  9 active torsions:
REMARK  status: ('A' for Active; 'I' for Inactive)
REMARK    1  A    between atoms: S_1  and  N_6
REMARK    2  A    between atoms: S_1  and  C_18
REMARK    3  A    between atoms: N_6  and  C_13
REMARK    4  A    between atoms: N_7  and  C_14
REMARK    5  A    between atoms: C_19  and  C_20
REMARK    6  A    between atoms: C_19  and  C_25
REMARK    7  A    between atoms: C_19  and  C_26
REMARK    8  A    between atoms: C_19  and  C_27
REMARK    9  A    between atoms: C_21  and  C_31
REMARK                            x       y       z     vdW  Elec       q    Type
REMARK                         _______ _______ _______ _____ _____    ______ ____
ROOT
ATOM      2  O   UNL     1      -2.464   2.998  26.531  0.00  0.00    -0.370 OA
ATOM      3  O   UNL     1       0.282   4.149  25.581  0.00  0.00    -0.370 OA
ATOM     11  C   UNL     1      -0.977   3.930  24.924  0.00  0.00    +0.170 C 
ATOM     12  C   UNL     1      -1.556   2.641  25.475  0.00  0.00    +0.171 C 
ATOM     13  C   UNL     1      -1.972   4.988  25.335  0.00  0.00    +0.133 C 
ATOM     14  C   UNL     1      -0.362   1.909  26.038  0.00  0.00    +0.130 C 
ATOM     15  C   UNL     1      -2.543   4.429  26.624  0.00  0.00    +0.183 C 
ATOM     16  C   UNL     1       0.559   3.042  26.453  0.00  0.00    +0.185 C 
ENDROOT
BRANCH  14   7
ATOM      7  N   UNL     1       0.261   1.111  25.004  0.00  0.00    -0.306 N 
ATOM      8  N   UNL     1      -1.381  -0.558  25.148  0.00  0.00    -0.219 NA
ATOM      9  N   UNL     1       0.444  -0.748  23.585  0.00  0.00    -0.223 NA
ATOM     17  C   UNL     1      -0.239  -0.102  24.566  0.00  0.00    +0.216 A 
ATOM     20  C   UNL     1      -1.842  -1.743  24.697  0.00  0.00    +0.052 A 
ATOM     23  C   UNL     1      -1.224  -2.480  23.706  0.00  0.00    +0.043 A 
ATOM     24  C   UNL     1      -0.073  -1.928  23.182  0.00  0.00    +0.116 A 
ATOM     33  H   UNL     1       1.082   1.467  24.527  0.00  0.00    +0.149 HD
BRANCH  20  19
ATOM     19  C   UNL     1      -3.093  -2.260  25.324  0.00  0.00    +0.005 C 
ATOM     25  C   UNL     1      -4.208  -2.487  24.257  0.00  0.00    +0.017 C 
ATOM     26  C   UNL     1      -3.650  -1.260  26.383  0.00  0.00    +0.017 C 
ATOM     27  C   UNL     1      -2.951  -3.626  26.075  0.00  0.00    +0.017 C 
ENDBRANCH  20  19
ENDBRANCH  14   7
BRANCH  13   6
ATOM      6  N   UNL     1      -3.045   5.086  24.316  0.00  0.00    -0.182 NA
ATOM     32  H   UNL     1      -3.696   5.877  24.383  0.00  0.00    +0.148 HD
BRANCH   6   1
ATOM      1  S   UNL     1      -3.410   3.743  23.343  0.00  0.00    +0.060 S 
ATOM      4  O   UNL     1      -2.221   2.933  23.171  0.00  0.00    -0.153 OA
ATOM      5  O   UNL     1      -4.159   4.196  22.185  0.00  0.00    -0.153 OA
BRANCH   1  18
ATOM     18  C   UNL     1      -4.539   2.847  24.366  0.00  0.00    +0.123 A 
ATOM     21  C   UNL     1      -4.673   1.471  24.258  0.00  0.00    +0.078 A 
ATOM     22  C   UNL     1      -5.286   3.569  25.286  0.00  0.00    +0.030 A 
ATOM     28  C   UNL     1      -5.574   0.802  25.087  0.00  0.00    +0.021 A 
ATOM     29  C   UNL     1      -6.187   2.900  26.114  0.00  0.00    +0.002 A 
ATOM     30  C   UNL     1      -6.331   1.517  26.014  0.00  0.00    +0.001 A 
BRANCH  21  31
ATOM     10  N   UNL     1      -3.296   0.085  22.557  0.00  0.00    -0.191 NA
ATOM     31  C   UNL     1      -3.912   0.704  23.318  0.00  0.00    +0.101 C 
ENDBRANCH  21  31
ENDBRANCH   1  18
ENDBRANCH   6   1
ENDBRANCH  13   6
TORSDOF 6
ENDMDL
MODEL 6
REMARK VINA RESULT:       3.8      2.558      3.569
REMARK  Name = 11913294
REMARK  9 active torsions:
REMARK  status: ('A' for Active; 'I' for Inactive)
REMARK    1  A    between atoms: S_1  and  N_6
REMARK    2  A    between atoms: S_1  and  C_18
REMARK    3  A    between atoms: N_6  and  C_13
REMARK    4  A    between atoms: N_7  and  C_14
REMARK    5  A    between atoms: C_19  and  C_20
REMARK    6  A    between atoms: C_19  and  C_25
REMARK    7  A    between atoms: C_19  and  C_26
REMARK    8  A    between atoms: C_19  and  C_27
REMARK    9  A    between atoms: C_21  and  C_31
REMARK                            x       y       z     vdW  Elec       q    Type
REMARK                         _______ _______ _______ _____ _____    ______ ____
ROOT
ATOM      2  O   UNL     1      -1.348  -0.969  26.685  0.00  0.00    -0.370 OA
ATOM      3  O   UNL     1      -2.506  -2.553  24.253  0.00  0.00    -0.370 OA
ATOM     11  C   UNL     1      -1.733  -1.347  24.367  0.00  0.00    +0.170 C 
ATOM     12  C   UNL     1      -2.222  -0.613  25.601  0.00  0.00    +0.171 C 
ATOM     13  C   UNL     1      -0.294  -1.677  24.681  0.00  0.00    +0.133 C 
ATOM     14  C   UNL     1      -3.605  -1.170  25.839  0.00  0.00    +0.130 C 
ATOM     15  C   UNL     1      -0.303  -1.819  26.190  0.00  0.00    +0.183 C 
ATOM     16  C   UNL     1      -3.495  -2.581  25.293  0.00  0.00    +0.185 C 
ENDROOT
BRANCH  14   7
ATOM      7  N   UNL     1      -4.580  -0.415  25.082  0.00  0.00    -0.306 N 
ATOM      8  N   UNL     1      -3.707   1.642  25.796  0.00  0.00    -0.219 NA
ATOM      9  N   UNL     1      -5.597   1.550  24.303  0.00  0.00    -0.223 NA
ATOM     17  C   UNL     1      -4.630   0.967  25.060  0.00  0.00    +0.216 A 
ATOM     20  C   UNL     1      -3.784   2.988  25.751  0.00  0.00    +0.052 A 
ATOM     23  C   UNL     1      -4.727   3.679  25.016  0.00  0.00    +0.043 A 
ATOM     24  C   UNL     1      -5.616   2.900  24.305  0.00  0.00    +0.116 A 
ATOM     33  H   UNL     1      -5.239  -0.907  24.488  0.00  0.00    +0.149 HD
BRANCH  20  19
ATOM     19  C   UNL     1      -2.779   3.746  26.553  0.00  0.00    +0.005 C 
ATOM     25  C   UNL     1      -3.409   4.303  27.867  0.00  0.00    +0.017 C 
ATOM     26  C   UNL     1      -2.212   4.957  25.751  0.00  0.00    +0.017 C 
ATOM     27  C   UNL     1      -1.526   2.924  27.007  0.00  0.00    +0.017 C 
ENDBRANCH  20  19
ENDBRANCH  14   7
BRANCH  13   6
ATOM      6  N   UNL     1       0.574  -0.539  24.294  0.00  0.00    -0.182 NA
ATOM     32  H   UNL     1       0.912   0.081  25.041  0.00  0.00    +0.148 HD
BRANCH   6   1
ATOM      1  S   UNL     1       0.669  -0.064  22.666  0.00  0.00    +0.060 S 
ATOM      4  O   UNL     1       0.367  -1.197  21.814  0.00  0.00    -0.153 OA
ATOM      5  O   UNL     1       1.893   0.691  22.470  0.00  0.00    -0.153 OA
BRANCH   1  18
ATOM     18  C   UNL     1      -0.670   1.083  22.543  0.00  0.00    +0.123 A 
ATOM     21  C   UNL     1      -0.818   2.119  23.454  0.00  0.00    +0.078 A 
ATOM     22  C   UNL     1      -1.568   0.914  21.499  0.00  0.00    +0.030 A 
ATOM     28  C   UNL     1      -1.888   3.003  23.319  0.00  0.00    +0.021 A 
ATOM     29  C   UNL     1      -2.638   1.798  21.365  0.00  0.00    +0.002 A 
ATOM     30  C   UNL     1      -2.798   2.843  22.274  0.00  0.00    +0.001 A 
BRANCH  21  31
ATOM     10  N   UNL     1       0.837   2.471  25.415  0.00  0.00    -0.191 NA
ATOM     31  C   UNL     1       0.097   2.314  24.538  0.00  0.00    +0.101 C 
ENDBRANCH  21  31
ENDBRANCH   1  18
ENDBRANCH   6   1
ENDBRANCH  13   6
TORSDOF 6
ENDMDL
MODEL 7
REMARK VINA RESULT:       3.9      1.083      1.762
REMARK  Name = 11913294
REMARK  9 active torsions:
REMARK  status: ('A' for Active; 'I' for Inactive)
REMARK    1  A    between atoms: S_1  and  N_6
REMARK    2  A    between atoms: S_1  and  C_18
REMARK    3  A    between atoms: N_6  and  C_13
REMARK    4  A    between atoms: N_7  and  C_14
REMARK    5  A    between atoms: C_19  and  C_20
REMARK    6  A    between atoms: C_19  and  C_25
REMARK    7  A    between atoms: C_19  and  C_26
REMARK    8  A    between atoms: C_19  and  C_27
REMARK    9  A    between atoms: C_21  and  C_31
REMARK                            x       y       z     vdW  Elec       q    Type
REMARK                         _______ _______ _______ _____ _____    ______ ____
ROOT
ATOM      2  O   UNL     1      -1.340  -1.061  26.592  0.00  0.00    -0.370 OA
ATOM      3  O   UNL     1      -2.720  -2.156  24.010  0.00  0.00    -0.370 OA
ATOM     11  C   UNL     1      -1.822  -1.062  24.261  0.00  0.00    +0.170 C 
ATOM     12  C   UNL     1      -2.200  -0.468  25.604  0.00  0.00    +0.171 C 
ATOM     13  C   UNL     1      -0.418  -1.576  24.467  0.00  0.00    +0.133 C 
ATOM     14  C   UNL     1      -3.627  -0.912  25.818  0.00  0.00    +0.130 C 
ATOM     15  C   UNL     1      -0.403  -1.932  25.941  0.00  0.00    +0.183 C 
ATOM     16  C   UNL     1      -3.679  -2.235  25.076  0.00  0.00    +0.185 C 
ENDROOT
BRANCH  14   7
ATOM      7  N   UNL     1      -4.537   0.037  25.214  0.00  0.00    -0.306 N 
ATOM      8  N   UNL     1      -2.915   1.731  25.166  0.00  0.00    -0.219 NA
ATOM      9  N   UNL     1      -5.140   2.123  24.327  0.00  0.00    -0.223 NA
ATOM     17  C   UNL     1      -4.187   1.336  24.893  0.00  0.00    +0.216 A 
ATOM     20  C   UNL     1      -2.607   3.003  24.840  0.00  0.00    +0.052 A 
ATOM     23  C   UNL     1      -3.500   3.884  24.262  0.00  0.00    +0.043 A 
ATOM     24  C   UNL     1      -4.764   3.384  24.026  0.00  0.00    +0.116 A 
ATOM     33  H   UNL     1      -5.471  -0.263  24.958  0.00  0.00    +0.149 HD
BRANCH  20  19
ATOM     19  C   UNL     1      -1.216   3.454  25.132  0.00  0.00    +0.005 C 
ATOM     25  C   UNL     1      -1.143   5.006  25.279  0.00  0.00    +0.017 C 
ATOM     26  C   UNL     1      -0.236   3.042  23.992  0.00  0.00    +0.017 C 
ATOM     27  C   UNL     1      -0.588   2.883  26.448  0.00  0.00    +0.017 C 
ENDBRANCH  20  19
ENDBRANCH  14   7
BRANCH  13   6
ATOM      6  N   UNL     1       0.554  -0.486  24.208  0.00  0.00    -0.182 NA
ATOM     32  H   UNL     1       0.665   0.237  24.930  0.00  0.00    +0.148 HD
BRANCH   6   1
ATOM      1  S   UNL     1       1.148  -0.239  22.637  0.00  0.00    +0.060 S 
ATOM      4  O   UNL     1       0.564   0.966  22.083  0.00  0.00    -0.153 OA
ATOM      5  O   UNL     1       1.069  -1.491  21.906  0.00  0.00    -0.153 OA
BRANCH   1  18
ATOM     18  C   UNL     1       2.861   0.073  22.939  0.00  0.00    +0.123 A 
ATOM     21  C   UNL     1       3.633  -0.806  23.684  0.00  0.00    +0.078 A 
ATOM     22  C   UNL     1       3.409   1.229  22.402  0.00  0.00    +0.030 A 
ATOM     28  C   UNL     1       4.982  -0.522  23.898  0.00  0.00    +0.021 A 
ATOM     29  C   UNL     1       4.758   1.513  22.617  0.00  0.00    +0.002 A 
ATOM     30  C   UNL     1       5.544   0.638  23.365  0.00  0.00    +0.001 A 
BRANCH  21  31
ATOM     10  N   UNL     1       2.650  -2.976  24.703  0.00  0.00    -0.191 NA
ATOM     31  C   UNL     1       3.090  -2.005  24.247  0.00  0.00    +0.101 C 
ENDBRANCH  21  31
ENDBRANCH   1  18
ENDBRANCH   6   1
ENDBRANCH  13   6
TORSDOF 6
ENDMDL
MODEL 8
REMARK VINA RESULT:       4.0      2.750      6.940
REMARK  Name = 11913294
REMARK  9 active torsions:
REMARK  status: ('A' for Active; 'I' for Inactive)
REMARK    1  A    between atoms: S_1  and  N_6
REMARK    2  A    between atoms: S_1  and  C_18
REMARK    3  A    between atoms: N_6  and  C_13
REMARK    4  A    between atoms: N_7  and  C_14
REMARK    5  A    between atoms: C_19  and  C_20
REMARK    6  A    between atoms: C_19  and  C_25
REMARK    7  A    between atoms: C_19  and  C_26
REMARK    8  A    between atoms: C_19  and  C_27
REMARK    9  A    between atoms: C_21  and  C_31
REMARK                            x       y       z     vdW  Elec       q    Type
REMARK                         _______ _______ _______ _____ _____    ______ ____
ROOT
ATOM      2  O   UNL     1      -0.814   2.374  26.778  0.00  0.00    -0.370 OA
ATOM      3  O   UNL     1      -0.714   4.051  24.142  0.00  0.00    -0.370 OA
ATOM     11  C   UNL     1      -1.718   3.217  24.744  0.00  0.00    +0.170 C 
ATOM     12  C   UNL     1      -1.003   2.046  25.391  0.00  0.00    +0.171 C 
ATOM     13  C   UNL     1      -2.370   3.936  25.900  0.00  0.00    +0.133 C 
ATOM     14  C   UNL     1       0.328   1.986  24.681  0.00  0.00    +0.130 C 
ATOM     15  C   UNL     1      -1.429   3.642  27.052  0.00  0.00    +0.183 C 
ATOM     16  C   UNL     1       0.573   3.437  24.309  0.00  0.00    +0.185 C 
ENDROOT
BRANCH  14   7
ATOM      7  N   UNL     1       0.216   1.176  23.487  0.00  0.00    -0.306 N 
ATOM      8  N   UNL     1       2.513   0.700  23.462  0.00  0.00    -0.219 NA
ATOM      9  N   UNL     1       1.045  -0.191  21.770  0.00  0.00    -0.223 NA
ATOM     17  C   UNL     1       1.290   0.543  22.888  0.00  0.00    +0.216 A 
ATOM     20  C   UNL     1       3.538   0.068  22.853  0.00  0.00    +0.052 A 
ATOM     23  C   UNL     1       3.397  -0.700  21.714  0.00  0.00    +0.043 A 
ATOM     24  C   UNL     1       2.115  -0.795  21.213  0.00  0.00    +0.116 A 
ATOM     33  H   UNL     1      -0.699   1.009  23.082  0.00  0.00    +0.149 HD
BRANCH  20  19
ATOM     19  C   UNL     1       4.887   0.229  23.467  0.00  0.00    +0.005 C 
ATOM     25  C   UNL     1       5.118   1.695  23.950  0.00  0.00    +0.017 C 
ATOM     26  C   UNL     1       6.017  -0.116  22.450  0.00  0.00    +0.017 C 
ATOM     27  C   UNL     1       5.165  -0.669  24.719  0.00  0.00    +0.017 C 
ENDBRANCH  20  19
ENDBRANCH  14   7
BRANCH  13   6
ATOM      6  N   UNL     1      -3.697   3.335  26.176  0.00  0.00    -0.182 NA
ATOM     32  H   UNL     1      -3.904   3.056  27.142  0.00  0.00    +0.148 HD
BRANCH   6   1
ATOM      1  S   UNL     1      -4.656   2.778  24.889  0.00  0.00    +0.060 S 
ATOM      4  O   UNL     1      -4.296   3.486  23.676  0.00  0.00    -0.153 OA
ATOM      5  O   UNL     1      -6.040   2.733  25.324  0.00  0.00    -0.153 OA
BRANCH   1  18
ATOM     18  C   UNL     1      -4.112   1.105  24.727  0.00  0.00    +0.123 A 
ATOM     21  C   UNL     1      -3.401   0.682  23.614  0.00  0.00    +0.078 A 
ATOM     22  C   UNL     1      -4.419   0.226  25.756  0.00  0.00    +0.030 A 
ATOM     28  C   UNL     1      -2.989  -0.648  23.526  0.00  0.00    +0.021 A 
ATOM     29  C   UNL     1      -4.007  -1.104  25.668  0.00  0.00    +0.002 A 
ATOM     30  C   UNL     1      -3.292  -1.540  24.554  0.00  0.00    +0.001 A 
BRANCH  21  31
ATOM     10  N   UNL     1      -2.805   2.291  21.672  0.00  0.00    -0.191 NA
ATOM     31  C   UNL     1      -3.072   1.571  22.540  0.00  0.00    +0.101 C 
ENDBRANCH  21  31
ENDBRANCH   1  18
ENDBRANCH   6   1
ENDBRANCH  13   6
TORSDOF 6
ENDMDL
MODEL 9
REMARK VINA RESULT:       4.6      2.871      7.504
REMARK  Name = 11913294
REMARK  9 active torsions:
REMARK  status: ('A' for Active; 'I' for Inactive)
REMARK    1  A    between atoms: S_1  and  N_6
REMARK    2  A    between atoms: S_1  and  C_18
REMARK    3  A    between atoms: N_6  and  C_13
REMARK    4  A    between atoms: N_7  and  C_14
REMARK    5  A    between atoms: C_19  and  C_20
REMARK    6  A    between atoms: C_19  and  C_25
REMARK    7  A    between atoms: C_19  and  C_26
REMARK    8  A    between atoms: C_19  and  C_27
REMARK    9  A    between atoms: C_21  and  C_31
REMARK                            x       y       z     vdW  Elec       q    Type
REMARK                         _______ _______ _______ _____ _____    ______ ____
ROOT
ATOM      2  O   UNL     1      -0.932   2.505  26.855  0.00  0.00    -0.370 OA
ATOM      3  O   UNL     1      -0.482   4.144  24.231  0.00  0.00    -0.370 OA
ATOM     11  C   UNL     1      -1.626   3.484  24.799  0.00  0.00    +0.170 C 
ATOM     12  C   UNL     1      -1.130   2.212  25.461  0.00  0.00    +0.171 C 
ATOM     13  C   UNL     1      -2.187   4.298  25.938  0.00  0.00    +0.133 C 
ATOM     14  C   UNL     1       0.194   1.937  24.791  0.00  0.00    +0.130 C 
ATOM     15  C   UNL     1      -1.342   3.856  27.116  0.00  0.00    +0.183 C 
ATOM     16  C   UNL     1       0.682   3.329  24.434  0.00  0.00    +0.185 C 
ENDROOT
BRANCH  14   7
ATOM      7  N   UNL     1      -0.011   1.156  23.591  0.00  0.00    -0.306 N 
ATOM      8  N   UNL     1       2.256   0.570  23.451  0.00  0.00    -0.219 NA
ATOM      9  N   UNL     1       0.671  -0.217  21.815  0.00  0.00    -0.223 NA
ATOM     17  C   UNL     1       1.002   0.483  22.932  0.00  0.00    +0.216 A 
ATOM     20  C   UNL     1       3.220  -0.099  22.785  0.00  0.00    +0.052 A 
ATOM     23  C   UNL     1       2.990  -0.838  21.641  0.00  0.00    +0.043 A 
ATOM     24  C   UNL     1       1.684  -0.861  21.199  0.00  0.00    +0.116 A 
ATOM     33  H   UNL     1      -0.951   1.041  23.226  0.00  0.00    +0.149 HD
BRANCH  20  19
ATOM     19  C   UNL     1       4.602  -0.015  23.339  0.00  0.00    +0.005 C 
ATOM     25  C   UNL     1       5.668   0.010  22.200  0.00  0.00    +0.017 C 
ATOM     26  C   UNL     1       4.919  -1.236  24.256  0.00  0.00    +0.017 C 
ATOM     27  C   UNL     1       4.898   1.250  24.213  0.00  0.00    +0.017 C 
ENDBRANCH  20  19
ENDBRANCH  14   7
BRANCH  13   6
ATOM      6  N   UNL     1      -3.602   3.920  26.172  0.00  0.00    -0.182 NA
ATOM     32  H   UNL     1      -3.859   3.582  27.108  0.00  0.00    +0.148 HD
BRANCH   6   1
ATOM      1  S   UNL     1      -4.642   3.684  24.850  0.00  0.00    +0.060 S 
ATOM      4  O   UNL     1      -4.142   4.416  23.704  0.00  0.00    -0.153 OA
ATOM      5  O   UNL     1      -6.011   3.871  25.294  0.00  0.00    -0.153 OA
BRANCH   1  18
ATOM     18  C   UNL     1      -4.436   1.958  24.529  0.00  0.00    +0.123 A 
ATOM     21  C   UNL     1      -5.105   1.001  25.277  0.00  0.00    +0.078 A 
ATOM     22  C   UNL     1      -3.582   1.594  23.497  0.00  0.00    +0.030 A 
ATOM     28  C   UNL     1      -4.915  -0.351  24.989  0.00  0.00    +0.021 A 
ATOM     29  C   UNL     1      -3.392   0.242  23.210  0.00  0.00    +0.002 A 
ATOM     30  C   UNL     1      -4.058  -0.730  23.955  0.00  0.00    +0.001 A 
BRANCH  21  31
ATOM     10  N   UNL     1      -6.709   1.638  27.209  0.00  0.00    -0.191 NA
ATOM     31  C   UNL     1      -5.992   1.353  26.345  0.00  0.00    +0.101 C 
ENDBRANCH  21  31
ENDBRANCH   1  18
ENDBRANCH   6   1
ENDBRANCH  13   6
TORSDOF 6
ENDMDL
MODEL 10
REMARK VINA RESULT:       4.8      2.058      4.168
REMARK  Name = 11913294
REMARK  9 active torsions:
REMARK  status: ('A' for Active; 'I' for Inactive)
REMARK    1  A    between atoms: S_1  and  N_6
REMARK    2  A    between atoms: S_1  and  C_18
REMARK    3  A    between atoms: N_6  and  C_13
REMARK    4  A    between atoms: N_7  and  C_14
REMARK    5  A    between atoms: C_19  and  C_20
REMARK    6  A    between atoms: C_19  and  C_25
REMARK    7  A    between atoms: C_19  and  C_26
REMARK    8  A    between atoms: C_19  and  C_27
REMARK    9  A    between atoms: C_21  and  C_31
REMARK                            x       y       z     vdW  Elec       q    Type
REMARK                         _______ _______ _______ _____ _____    ______ ____
ROOT
ATOM      2  O   UNL     1      -1.066   3.048  23.253  0.00  0.00    -0.370 OA
ATOM      3  O   UNL     1      -0.977   4.523  26.006  0.00  0.00    -0.370 OA
ATOM     11  C   UNL     1      -1.095   3.141  25.631  0.00  0.00    +0.170 C 
ATOM     12  C   UNL     1      -1.954   3.084  24.382  0.00  0.00    +0.171 C 
ATOM     13  C   UNL     1       0.243   2.606  25.182  0.00  0.00    +0.133 C 
ATOM     14  C   UNL     1      -2.722   4.384  24.402  0.00  0.00    +0.130 C 
ATOM     15  C   UNL     1       0.291   3.003  23.720  0.00  0.00    +0.183 C 
ATOM     16  C   UNL     1      -1.768   5.324  25.115  0.00  0.00    +0.185 C 
ENDROOT
BRANCH  14   7
ATOM      7  N   UNL     1      -3.939   4.229  25.169  0.00  0.00    -0.306 N 
ATOM      8  N   UNL     1      -3.982   1.907  24.840  0.00  0.00    -0.219 NA
ATOM      9  N   UNL     1      -5.697   3.007  26.127  0.00  0.00    -0.223 NA
ATOM     17  C   UNL     1      -4.558   3.012  25.385  0.00  0.00    +0.216 A 
ATOM     20  C   UNL     1      -4.611   0.736  25.071  0.00  0.00    +0.052 A 
ATOM     23  C   UNL     1      -5.772   0.622  25.810  0.00  0.00    +0.043 A 
ATOM     24  C   UNL     1      -6.274   1.802  26.318  0.00  0.00    +0.116 A 
ATOM     33  H   UNL     1      -4.347   5.039  25.624  0.00  0.00    +0.149 HD
BRANCH  20  19
ATOM     19  C   UNL     1      -3.994  -0.487  24.481  0.00  0.00    +0.005 C 
ATOM     25  C   UNL     1      -2.962  -1.129  25.460  0.00  0.00    +0.017 C 
ATOM     26  C   UNL     1      -3.242  -0.157  23.154  0.00  0.00    +0.017 C 
ATOM     27  C   UNL     1      -4.994  -1.635  24.118  0.00  0.00    +0.017 C 
ENDBRANCH  20  19
ENDBRANCH  14   7
BRANCH  13   6
ATOM      6  N   UNL     1       0.252   1.127  25.296  0.00  0.00    -0.182 NA
ATOM     32  H   UNL     1       0.507   0.719  26.203  0.00  0.00    +0.148 HD
BRANCH   6   1
ATOM      1  S   UNL     1       0.230   0.172  23.892  0.00  0.00    +0.060 S 
ATOM      4  O   UNL     1      -0.640   0.781  22.906  0.00  0.00    -0.153 OA
ATOM      5  O   UNL     1       0.042  -1.216  24.274  0.00  0.00    -0.153 OA
BRANCH   1  18
ATOM     18  C   UNL     1       1.896   0.326  23.320  0.00  0.00    +0.123 A 
ATOM     21  C   UNL     1       2.250  -0.026  22.027  0.00  0.00    +0.078 A 
ATOM     22  C   UNL     1       2.839   0.817  24.212  0.00  0.00    +0.030 A 
ATOM     28  C   UNL     1       3.576   0.113  21.616  0.00  0.00    +0.021 A 
ATOM     29  C   UNL     1       4.165   0.955  23.801  0.00  0.00    +0.002 A 
ATOM     30  C   UNL     1       4.533   0.604  22.503  0.00  0.00    +0.001 A 
BRANCH  21  31
ATOM     10  N   UNL     1       0.520  -0.942  20.329  0.00  0.00    -0.191 NA
ATOM     31  C   UNL     1       1.293  -0.533  21.088  0.00  0.00    +0.101 C 
ENDBRANCH  21  31
ENDBRANCH   1  18
ENDBRANCH   6   1
ENDBRANCH  13   6
TORSDOF 6
ENDMDL
