MODEL 1
REMARK VINA RESULT:      -4.1      0.000      0.000
REMARK  Name = 56774693
REMARK  9 active torsions:
REMARK  status: ('A' for Active; 'I' for Inactive)
REMARK    1  A    between atoms: O_2  and  C_8
REMARK    2  A    between atoms: N_5  and  C_10
REMARK    3  A    between atoms: N_6  and  C_21
REMARK    4  A    between atoms: C_7  and  C_8
REMARK    5  A    between atoms: C_8  and  C_13
REMARK    6  A    between atoms: C_10  and  C_11
REMARK    7  A    between atoms: C_11  and  C_15
REMARK    8  A    between atoms: C_15  and  C_18
REMARK    9  A    between atoms: C_27  and  C_28
REMARK                            x       y       z     vdW  Elec       q    Type
REMARK                         _______ _______ _______ _____ _____    ______ ____
ROOT
ATOM      1  O   UNL     1      -1.912   4.356  25.742  0.00  0.00    -0.369 OA
ATOM      3  O   UNL     1      -5.493   4.361  25.272  0.00  0.00    -0.273 OA
ATOM      5  N   UNL     1      -3.993   2.589  25.102  0.00  0.00    -0.292 N 
ATOM      7  C   UNL     1      -2.587   2.169  25.054  0.00  0.00    +0.135 C 
ATOM      9  C   UNL     1      -1.768   2.975  26.054  0.00  0.00    +0.185 C 
ATOM     12  C   UNL     1      -4.353   3.906  25.384  0.00  0.00    +0.242 C 
ATOM     14  C   UNL     1      -3.241   4.783  25.946  0.00  0.00    +0.255 C 
ENDROOT
BRANCH   7   8
ATOM      8  C   UNL     1      -2.028   2.316  23.636  0.00  0.00    +0.167 C 
BRANCH   8  13
ATOM     13  C   UNL     1      -0.685   1.647  23.492  0.00  0.00    -0.017 A 
ATOM     16  C   UNL     1      -0.569   0.466  22.758  0.00  0.00    +0.008 A 
ATOM     17  C   UNL     1       0.442   2.208  24.092  0.00  0.00    +0.008 A 
ATOM     19  C   UNL     1       0.673  -0.154  22.625  0.00  0.00    +0.023 A 
ATOM     20  C   UNL     1       1.684   1.588  23.959  0.00  0.00    +0.023 A 
ATOM     21  C   UNL     1       1.800   0.408  23.226  0.00  0.00    +0.033 A 
BRANCH  21   6
ATOM      4  O   UNL     1       4.580   1.560  23.340  0.00  0.00    -0.276 OA
ATOM      6  N   UNL     1       3.044  -0.211  23.092  0.00  0.00    -0.286 N 
ATOM     27  C   UNL     1       4.314   0.377  23.153  0.00  0.00    +0.214 C 
ATOM     28  C   UNL     1       5.410  -0.640  22.959  0.00  0.00    +0.109 C 
ATOM     30  H   UNL     1       3.013  -1.216  22.931  0.00  0.00    +0.155 HD
ENDBRANCH  21   6
ENDBRANCH   8  13
BRANCH   8   2
ATOM      2  O   UNL     1      -2.944   1.749  22.707  0.00  0.00    -0.385 OA
ATOM     29  H   UNL     1      -2.536   1.743  21.825  0.00  0.00    +0.210 HD
ENDBRANCH   8   2
ENDBRANCH   7   8
BRANCH   5  10
ATOM     10  C   UNL     1      -4.998   1.630  24.664  0.00  0.00    +0.108 C 
BRANCH  10  11
ATOM     11  C   UNL     1      -4.916   0.305  25.421  0.00  0.00    +0.024 C 
BRANCH  11  15
ATOM     15  C   UNL     1      -4.450  -0.884  24.573  0.00  0.00    +0.036 C 
BRANCH  15  18
ATOM     18  C   UNL     1      -3.037  -1.322  24.860  0.00  0.00    -0.047 A 
ATOM     22  C   UNL     1      -2.482  -2.393  24.159  0.00  0.00    +0.003 A 
ATOM     23  C   UNL     1      -2.283  -0.657  25.826  0.00  0.00    +0.003 A 
ATOM     24  C   UNL     1      -1.174  -2.798  24.424  0.00  0.00    +0.000 A 
ATOM     25  C   UNL     1      -0.975  -1.062  26.092  0.00  0.00    +0.000 A 
ATOM     26  C   UNL     1      -0.420  -2.132  25.391  0.00  0.00    +0.000 A 
ENDBRANCH  15  18
ENDBRANCH  11  15
ENDBRANCH  10  11
ENDBRANCH   5  10
TORSDOF 8
ENDMDL
MODEL 2
REMARK VINA RESULT:      -2.5      1.343      1.984
REMARK  Name = 56774693
REMARK  9 active torsions:
REMARK  status: ('A' for Active; 'I' for Inactive)
REMARK    1  A    between atoms: O_2  and  C_8
REMARK    2  A    between atoms: N_5  and  C_10
REMARK    3  A    between atoms: N_6  and  C_21
REMARK    4  A    between atoms: C_7  and  C_8
REMARK    5  A    between atoms: C_8  and  C_13
REMARK    6  A    between atoms: C_10  and  C_11
REMARK    7  A    between atoms: C_11  and  C_15
REMARK    8  A    between atoms: C_15  and  C_18
REMARK    9  A    between atoms: C_27  and  C_28
REMARK                            x       y       z     vdW  Elec       q    Type
REMARK                         _______ _______ _______ _____ _____    ______ ____
ROOT
ATOM      1  O   UNL     1      -0.118   2.173  25.944  0.00  0.00    -0.369 OA
ATOM      3  O   UNL     1      -2.577   4.790  26.337  0.00  0.00    -0.273 OA
ATOM      5  N   UNL     1      -2.732   2.796  25.145  0.00  0.00    -0.292 N 
ATOM      7  C   UNL     1      -2.028   1.620  24.619  0.00  0.00    +0.135 C 
ATOM      9  C   UNL     1      -1.020   1.115  25.643  0.00  0.00    +0.185 C 
ATOM     12  C   UNL     1      -2.105   3.703  25.999  0.00  0.00    +0.242 C 
ATOM     14  C   UNL     1      -0.783   3.234  26.595  0.00  0.00    +0.255 C 
ENDROOT
BRANCH   7   8
ATOM      8  C   UNL     1      -1.345   1.951  23.289  0.00  0.00    +0.167 C 
BRANCH   8  13
ATOM     13  C   UNL     1       0.028   1.336  23.196  0.00  0.00    -0.017 A 
ATOM     16  C   UNL     1       0.167  -0.020  22.904  0.00  0.00    +0.008 A 
ATOM     17  C   UNL     1       1.160   2.125  23.403  0.00  0.00    +0.008 A 
ATOM     19  C   UNL     1       1.438  -0.590  22.819  0.00  0.00    +0.023 A 
ATOM     20  C   UNL     1       2.430   1.556  23.318  0.00  0.00    +0.023 A 
ATOM     21  C   UNL     1       2.569   0.200  23.026  0.00  0.00    +0.033 A 
BRANCH  21   6
ATOM      4  O   UNL     1       5.158   0.992  24.344  0.00  0.00    -0.276 OA
ATOM      6  N   UNL     1       3.841  -0.369  22.940  0.00  0.00    -0.286 N 
ATOM     27  C   UNL     1       5.018   0.044  23.579  0.00  0.00    +0.214 C 
ATOM     28  C   UNL     1       6.186  -0.841  23.223  0.00  0.00    +0.109 C 
ATOM     30  H   UNL     1       3.912  -1.186  22.337  0.00  0.00    +0.155 HD
ENDBRANCH  21   6
ENDBRANCH   8  13
BRANCH   8   2
ATOM      2  O   UNL     1      -2.152   1.478  22.215  0.00  0.00    -0.385 OA
ATOM     29  H   UNL     1      -2.123   0.507  22.204  0.00  0.00    +0.210 HD
ENDBRANCH   8   2
ENDBRANCH   7   8
BRANCH   5  10
ATOM     10  C   UNL     1      -4.052   3.089  24.603  0.00  0.00    +0.108 C 
BRANCH  10  11
ATOM     11  C   UNL     1      -4.880   1.829  24.357  0.00  0.00    +0.024 C 
BRANCH  11  15
ATOM     15  C   UNL     1      -4.888   0.836  25.526  0.00  0.00    +0.036 C 
BRANCH  15  18
ATOM     18  C   UNL     1      -4.329  -0.520  25.179  0.00  0.00    -0.047 A 
ATOM     22  C   UNL     1      -3.589  -1.232  26.122  0.00  0.00    +0.003 A 
ATOM     23  C   UNL     1      -4.552  -1.063  23.914  0.00  0.00    +0.003 A 
ATOM     24  C   UNL     1      -3.071  -2.487  25.801  0.00  0.00    +0.000 A 
ATOM     25  C   UNL     1      -4.035  -2.318  23.592  0.00  0.00    +0.000 A 
ATOM     26  C   UNL     1      -3.294  -3.030  24.536  0.00  0.00    +0.000 A 
ENDBRANCH  15  18
ENDBRANCH  11  15
ENDBRANCH  10  11
ENDBRANCH   5  10
TORSDOF 8
ENDMDL
MODEL 3
REMARK VINA RESULT:      -1.9      1.473      2.660
REMARK  Name = 56774693
REMARK  9 active torsions:
REMARK  status: ('A' for Active; 'I' for Inactive)
REMARK    1  A    between atoms: O_2  and  C_8
REMARK    2  A    between atoms: N_5  and  C_10
REMARK    3  A    between atoms: N_6  and  C_21
REMARK    4  A    between atoms: C_7  and  C_8
REMARK    5  A    between atoms: C_8  and  C_13
REMARK    6  A    between atoms: C_10  and  C_11
REMARK    7  A    between atoms: C_11  and  C_15
REMARK    8  A    between atoms: C_15  and  C_18
REMARK    9  A    between atoms: C_27  and  C_28
REMARK                            x       y       z     vdW  Elec       q    Type
REMARK                         _______ _______ _______ _____ _____    ______ ____
ROOT
ATOM      1  O   UNL     1      -4.094   4.925  23.765  0.00  0.00    -0.369 OA
ATOM      3  O   UNL     1      -3.264   1.584  22.675  0.00  0.00    -0.273 OA
ATOM      5  N   UNL     1      -3.946   2.315  24.777  0.00  0.00    -0.292 N 
ATOM      7  C   UNL     1      -4.218   3.462  25.651  0.00  0.00    +0.135 C 
ATOM      9  C   UNL     1      -4.921   4.562  24.864  0.00  0.00    +0.185 C 
ATOM     12  C   UNL     1      -3.666   2.478  23.421  0.00  0.00    +0.242 C 
ATOM     14  C   UNL     1      -3.972   3.858  22.850  0.00  0.00    +0.255 C 
ENDROOT
BRANCH   7   8
ATOM      8  C   UNL     1      -2.922   3.979  26.282  0.00  0.00    +0.167 C 
BRANCH   8  13
ATOM     13  C   UNL     1      -1.703   3.379  25.629  0.00  0.00    -0.017 A 
ATOM     16  C   UNL     1      -1.119   4.009  24.530  0.00  0.00    +0.008 A 
ATOM     17  C   UNL     1      -1.159   2.194  26.123  0.00  0.00    +0.008 A 
ATOM     19  C   UNL     1       0.009   3.454  23.925  0.00  0.00    +0.023 A 
ATOM     20  C   UNL     1      -0.031   1.639  25.519  0.00  0.00    +0.023 A 
ATOM     21  C   UNL     1       0.552   2.269  24.420  0.00  0.00    +0.033 A 
BRANCH  21   6
ATOM      4  O   UNL     1       0.846  -0.205  22.728  0.00  0.00    -0.276 OA
ATOM      6  N   UNL     1       1.681   1.713  23.815  0.00  0.00    -0.286 N 
ATOM     27  C   UNL     1       1.761   0.552  23.035  0.00  0.00    +0.214 C 
ATOM     28  C   UNL     1       3.170   0.292  22.564  0.00  0.00    +0.109 C 
ATOM     30  H   UNL     1       2.549   2.223  23.965  0.00  0.00    +0.155 HD
ENDBRANCH  21   6
ENDBRANCH   8  13
BRANCH   8   2
ATOM      2  O   UNL     1      -2.874   5.396  26.168  0.00  0.00    -0.385 OA
ATOM     29  H   UNL     1      -2.215   5.741  26.793  0.00  0.00    +0.210 HD
ENDBRANCH   8   2
ENDBRANCH   7   8
BRANCH   5  10
ATOM     10  C   UNL     1      -3.797   1.009  25.406  0.00  0.00    +0.108 C 
BRANCH  10  11
ATOM     11  C   UNL     1      -4.915   0.041  25.024  0.00  0.00    +0.024 C 
BRANCH  11  15
ATOM     15  C   UNL     1      -4.432  -1.272  24.396  0.00  0.00    +0.036 C 
BRANCH  15  18
ATOM     18  C   UNL     1      -3.000  -1.613  24.719  0.00  0.00    -0.047 A 
ATOM     22  C   UNL     1      -2.289  -2.487  23.897  0.00  0.00    +0.003 A 
ATOM     23  C   UNL     1      -2.385  -1.052  25.838  0.00  0.00    +0.003 A 
ATOM     24  C   UNL     1      -0.963  -2.802  24.196  0.00  0.00    +0.000 A 
ATOM     25  C   UNL     1      -1.059  -1.367  26.136  0.00  0.00    +0.000 A 
ATOM     26  C   UNL     1      -0.348  -2.242  25.315  0.00  0.00    +0.000 A 
ENDBRANCH  15  18
ENDBRANCH  11  15
ENDBRANCH  10  11
ENDBRANCH   5  10
TORSDOF 8
ENDMDL
MODEL 4
REMARK VINA RESULT:      -1.7     14.815     16.758
REMARK  Name = 56774693
REMARK  9 active torsions:
REMARK  status: ('A' for Active; 'I' for Inactive)
REMARK    1  A    between atoms: O_2  and  C_8
REMARK    2  A    between atoms: N_5  and  C_10
REMARK    3  A    between atoms: N_6  and  C_21
REMARK    4  A    between atoms: C_7  and  C_8
REMARK    5  A    between atoms: C_8  and  C_13
REMARK    6  A    between atoms: C_10  and  C_11
REMARK    7  A    between atoms: C_11  and  C_15
REMARK    8  A    between atoms: C_15  and  C_18
REMARK    9  A    between atoms: C_27  and  C_28
REMARK                            x       y       z     vdW  Elec       q    Type
REMARK                         _______ _______ _______ _____ _____    ______ ____
ROOT
ATOM      1  O   UNL     1      -5.297  -8.912   9.081  0.00  0.00    -0.369 OA
ATOM      3  O   UNL     1      -8.538 -10.495   8.898  0.00  0.00    -0.273 OA
ATOM      5  N   UNL     1      -7.401  -9.690  10.763  0.00  0.00    -0.292 N 
ATOM      7  C   UNL     1      -6.140  -9.168  11.303  0.00  0.00    +0.135 C 
ATOM      9  C   UNL     1      -5.501  -8.212  10.303  0.00  0.00    +0.185 C 
ATOM     12  C   UNL     1      -7.579  -9.904   9.397  0.00  0.00    +0.242 C 
ATOM     14  C   UNL     1      -6.528  -9.270   8.493  0.00  0.00    +0.255 C 
ENDROOT
BRANCH   7   8
ATOM      8  C   UNL     1      -5.188 -10.314  11.656  0.00  0.00    +0.167 C 
BRANCH   8  13
ATOM     13  C   UNL     1      -3.745  -9.885  11.584  0.00  0.00    -0.017 A 
ATOM     16  C   UNL     1      -2.884 -10.153  12.648  0.00  0.00    +0.008 A 
ATOM     17  C   UNL     1      -3.271  -9.221  10.453  0.00  0.00    +0.008 A 
ATOM     19  C   UNL     1      -1.548  -9.755  12.581  0.00  0.00    +0.023 A 
ATOM     20  C   UNL     1      -1.935  -8.824  10.386  0.00  0.00    +0.023 A 
ATOM     21  C   UNL     1      -1.074  -9.091  11.450  0.00  0.00    +0.033 A 
BRANCH  21   6
ATOM      4  O   UNL     1       0.358  -6.809  12.795  0.00  0.00    -0.276 OA
ATOM      6  N   UNL     1       0.262  -8.694  11.382  0.00  0.00    -0.286 N 
ATOM     27  C   UNL     1       0.878  -7.617  12.033  0.00  0.00    +0.214 C 
ATOM     28  C   UNL     1       2.345  -7.527  11.696  0.00  0.00    +0.109 C 
ATOM     30  H   UNL     1       0.855  -9.266  10.784  0.00  0.00    +0.155 HD
ENDBRANCH  21   6
ENDBRANCH   8  13
BRANCH   8   2
ATOM      2  O   UNL     1      -5.480 -10.781  12.968  0.00  0.00    -0.385 OA
ATOM     29  H   UNL     1      -6.336 -10.417  13.250  0.00  0.00    +0.210 HD
ENDBRANCH   8   2
ENDBRANCH   7   8
BRANCH   5  10
ATOM     10  C   UNL     1      -8.401 -10.155  11.716  0.00  0.00    +0.108 C 
BRANCH  10  11
ATOM     11  C   UNL     1      -8.269  -9.483  13.081  0.00  0.00    +0.024 C 
BRANCH  11  15
ATOM     15  C   UNL     1      -9.384  -9.835  14.074  0.00  0.00    +0.036 C 
BRANCH  15  18
ATOM     18  C   UNL     1      -8.936  -9.854  15.513  0.00  0.00    -0.047 A 
ATOM     22  C   UNL     1      -9.874  -9.724  16.537  0.00  0.00    +0.003 A 
ATOM     23  C   UNL     1      -7.584 -10.002  15.821  0.00  0.00    +0.003 A 
ATOM     24  C   UNL     1      -9.460  -9.741  17.869  0.00  0.00    +0.000 A 
ATOM     25  C   UNL     1      -7.170 -10.020  17.153  0.00  0.00    +0.000 A 
ATOM     26  C   UNL     1      -8.107  -9.889  18.177  0.00  0.00    +0.000 A 
ENDBRANCH  15  18
ENDBRANCH  11  15
ENDBRANCH  10  11
ENDBRANCH   5  10
TORSDOF 8
ENDMDL
MODEL 5
REMARK VINA RESULT:      -1.6      1.837      4.014
REMARK  Name = 56774693
REMARK  9 active torsions:
REMARK  status: ('A' for Active; 'I' for Inactive)
REMARK    1  A    between atoms: O_2  and  C_8
REMARK    2  A    between atoms: N_5  and  C_10
REMARK    3  A    between atoms: N_6  and  C_21
REMARK    4  A    between atoms: C_7  and  C_8
REMARK    5  A    between atoms: C_8  and  C_13
REMARK    6  A    between atoms: C_10  and  C_11
REMARK    7  A    between atoms: C_11  and  C_15
REMARK    8  A    between atoms: C_15  and  C_18
REMARK    9  A    between atoms: C_27  and  C_28
REMARK                            x       y       z     vdW  Elec       q    Type
REMARK                         _______ _______ _______ _____ _____    ______ ____
ROOT
ATOM      1  O   UNL     1      -0.734  -1.401  25.142  0.00  0.00    -0.369 OA
ATOM      3  O   UNL     1      -3.850  -0.942  26.910  0.00  0.00    -0.273 OA
ATOM      5  N   UNL     1      -3.390  -0.653  24.646  0.00  0.00    -0.292 N 
ATOM      7  C   UNL     1      -2.363  -0.575  23.600  0.00  0.00    +0.135 C 
ATOM      9  C   UNL     1      -1.285  -1.622  23.849  0.00  0.00    +0.185 C 
ATOM     12  C   UNL     1      -3.076  -1.021  25.953  0.00  0.00    +0.242 C 
ATOM     14  C   UNL     1      -1.695  -1.636  26.147  0.00  0.00    +0.255 C 
ENDROOT
BRANCH   7   8
ATOM      8  C   UNL     1      -1.761   0.832  23.540  0.00  0.00    +0.167 C 
BRANCH   8  13
ATOM     13  C   UNL     1      -0.259   0.794  23.417  0.00  0.00    -0.017 A 
ATOM     16  C   UNL     1       0.526   1.645  24.195  0.00  0.00    +0.008 A 
ATOM     17  C   UNL     1       0.346  -0.092  22.525  0.00  0.00    +0.008 A 
ATOM     19  C   UNL     1       1.916   1.611  24.081  0.00  0.00    +0.023 A 
ATOM     20  C   UNL     1       1.735  -0.127  22.412  0.00  0.00    +0.023 A 
ATOM     21  C   UNL     1       2.520   0.724  23.189  0.00  0.00    +0.033 A 
BRANCH  21   6
ATOM      4  O   UNL     1       4.494  -1.402  23.999  0.00  0.00    -0.276 OA
ATOM      6  N   UNL     1       3.911   0.688  23.076  0.00  0.00    -0.286 N 
ATOM     27  C   UNL     1       4.785  -0.333  23.473  0.00  0.00    +0.214 C 
ATOM     28  C   UNL     1       6.222   0.016  23.175  0.00  0.00    +0.109 C 
ATOM     30  H   UNL     1       4.333   1.511  22.650  0.00  0.00    +0.155 HD
ENDBRANCH  21   6
ENDBRANCH   8  13
BRANCH   8   2
ATOM      2  O   UNL     1      -2.311   1.532  22.429  0.00  0.00    -0.385 OA
ATOM     29  H   UNL     1      -2.543   0.892  21.736  0.00  0.00    +0.210 HD
ENDBRANCH   8   2
ENDBRANCH   7   8
BRANCH   5  10
ATOM     10  C   UNL     1      -4.721  -0.157  24.321  0.00  0.00    +0.108 C 
BRANCH  10  11
ATOM     11  C   UNL     1      -5.183   0.951  25.266  0.00  0.00    +0.024 C 
BRANCH  11  15
ATOM     15  C   UNL     1      -5.200   2.352  24.643  0.00  0.00    +0.036 C 
BRANCH  15  18
ATOM     18  C   UNL     1      -3.941   3.145  24.889  0.00  0.00    -0.047 A 
ATOM     22  C   UNL     1      -3.628   4.228  24.069  0.00  0.00    +0.003 A 
ATOM     23  C   UNL     1      -3.090   2.795  25.937  0.00  0.00    +0.003 A 
ATOM     24  C   UNL     1      -2.463   4.962  24.297  0.00  0.00    +0.000 A 
ATOM     25  C   UNL     1      -1.926   3.528  26.165  0.00  0.00    +0.000 A 
ATOM     26  C   UNL     1      -1.612   4.612  25.345  0.00  0.00    +0.000 A 
ENDBRANCH  15  18
ENDBRANCH  11  15
ENDBRANCH  10  11
ENDBRANCH   5  10
TORSDOF 8
ENDMDL
MODEL 6
REMARK VINA RESULT:      -0.6      2.268      5.537
REMARK  Name = 56774693
REMARK  9 active torsions:
REMARK  status: ('A' for Active; 'I' for Inactive)
REMARK    1  A    between atoms: O_2  and  C_8
REMARK    2  A    between atoms: N_5  and  C_10
REMARK    3  A    between atoms: N_6  and  C_21
REMARK    4  A    between atoms: C_7  and  C_8
REMARK    5  A    between atoms: C_8  and  C_13
REMARK    6  A    between atoms: C_10  and  C_11
REMARK    7  A    between atoms: C_11  and  C_15
REMARK    8  A    between atoms: C_15  and  C_18
REMARK    9  A    between atoms: C_27  and  C_28
REMARK                            x       y       z     vdW  Elec       q    Type
REMARK                         _______ _______ _______ _____ _____    ______ ____
ROOT
ATOM      1  O   UNL     1      -2.386   4.295  26.445  0.00  0.00    -0.369 OA
ATOM      3  O   UNL     1      -0.527   1.226  26.035  0.00  0.00    -0.273 OA
ATOM      5  N   UNL     1      -0.924   2.919  24.488  0.00  0.00    -0.292 N 
ATOM      7  C   UNL     1      -1.666   4.146  24.171  0.00  0.00    +0.135 C 
ATOM      9  C   UNL     1      -1.756   5.034  25.405  0.00  0.00    +0.185 C 
ATOM     12  C   UNL     1      -0.982   2.336  25.753  0.00  0.00    +0.242 C 
ATOM     14  C   UNL     1      -1.585   3.207  26.849  0.00  0.00    +0.255 C 
ENDROOT
BRANCH   7   8
ATOM      8  C   UNL     1      -3.059   3.810  23.630  0.00  0.00    +0.167 C 
BRANCH   8  13
ATOM     13  C   UNL     1      -3.365   2.339  23.748  0.00  0.00    -0.017 A 
ATOM     16  C   UNL     1      -4.092   1.863  24.839  0.00  0.00    +0.008 A 
ATOM     17  C   UNL     1      -2.921   1.453  22.766  0.00  0.00    +0.008 A 
ATOM     19  C   UNL     1      -4.376   0.501  24.948  0.00  0.00    +0.023 A 
ATOM     20  C   UNL     1      -3.205   0.092  22.875  0.00  0.00    +0.023 A 
ATOM     21  C   UNL     1      -3.932  -0.384  23.966  0.00  0.00    +0.033 A 
BRANCH  21   6
ATOM      4  O   UNL     1      -2.123  -2.716  24.563  0.00  0.00    -0.276 OA
ATOM      6  N   UNL     1      -4.216  -1.746  24.074  0.00  0.00    -0.286 N 
ATOM     27  C   UNL     1      -3.329  -2.795  24.355  0.00  0.00    +0.214 C 
ATOM     28  C   UNL     1      -4.034  -4.127  24.385  0.00  0.00    +0.109 C 
ATOM     30  H   UNL     1      -5.191  -1.999  23.931  0.00  0.00    +0.155 HD
ENDBRANCH  21   6
ENDBRANCH   8  13
BRANCH   8   2
ATOM      2  O   UNL     1      -4.035   4.558  24.346  0.00  0.00    -0.385 OA
ATOM     29  H   UNL     1      -4.113   5.439  23.944  0.00  0.00    +0.210 HD
ENDBRANCH   8   2
ENDBRANCH   7   8
BRANCH   5  10
ATOM     10  C   UNL     1      -0.269   2.225  23.387  0.00  0.00    +0.108 C 
BRANCH  10  11
ATOM     11  C   UNL     1       0.399   0.924  23.827  0.00  0.00    +0.024 C 
BRANCH  11  15
ATOM     15  C   UNL     1       1.177   0.202  22.720  0.00  0.00    +0.036 C 
BRANCH  15  18
ATOM     18  C   UNL     1       2.641   0.016  23.024  0.00  0.00    -0.047 A 
ATOM     22  C   UNL     1       3.537   1.063  22.807  0.00  0.00    +0.003 A 
ATOM     23  C   UNL     1       3.101  -1.202  23.523  0.00  0.00    +0.003 A 
ATOM     24  C   UNL     1       4.893   0.891  23.089  0.00  0.00    +0.000 A 
ATOM     25  C   UNL     1       4.456  -1.374  23.805  0.00  0.00    +0.000 A 
ATOM     26  C   UNL     1       5.352  -0.328  23.588  0.00  0.00    +0.000 A 
ENDBRANCH  15  18
ENDBRANCH  11  15
ENDBRANCH  10  11
ENDBRANCH   5  10
TORSDOF 8
ENDMDL
MODEL 7
REMARK VINA RESULT:      -0.4     15.673     17.507
REMARK  Name = 56774693
REMARK  9 active torsions:
REMARK  status: ('A' for Active; 'I' for Inactive)
REMARK    1  A    between atoms: O_2  and  C_8
REMARK    2  A    between atoms: N_5  and  C_10
REMARK    3  A    between atoms: N_6  and  C_21
REMARK    4  A    between atoms: C_7  and  C_8
REMARK    5  A    between atoms: C_8  and  C_13
REMARK    6  A    between atoms: C_10  and  C_11
REMARK    7  A    between atoms: C_11  and  C_15
REMARK    8  A    between atoms: C_15  and  C_18
REMARK    9  A    between atoms: C_27  and  C_28
REMARK                            x       y       z     vdW  Elec       q    Type
REMARK                         _______ _______ _______ _____ _____    ______ ____
ROOT
ATOM      1  O   UNL     1      -7.273  -7.518   8.649  0.00  0.00    -0.369 OA
ATOM      3  O   UNL     1     -10.719  -8.534   8.281  0.00  0.00    -0.273 OA
ATOM      5  N   UNL     1      -9.338  -8.676  10.150  0.00  0.00    -0.292 N 
ATOM      7  C   UNL     1      -7.977  -8.554  10.685  0.00  0.00    +0.135 C 
ATOM      9  C   UNL     1      -7.278  -7.352  10.062  0.00  0.00    +0.185 C 
ATOM     12  C   UNL     1      -9.648  -8.301   8.844  0.00  0.00    +0.242 C 
ATOM     14  C   UNL     1      -8.584  -7.474   8.131  0.00  0.00    +0.255 C 
ENDROOT
BRANCH   7   8
ATOM      8  C   UNL     1      -7.184  -9.841  10.440  0.00  0.00    +0.167 C 
BRANCH   8  13
ATOM     13  C   UNL     1      -5.699  -9.585  10.404  0.00  0.00    -0.017 A 
ATOM     16  C   UNL     1      -4.925  -9.812  11.542  0.00  0.00    +0.008 A 
ATOM     17  C   UNL     1      -5.099  -9.122   9.233  0.00  0.00    +0.008 A 
ATOM     19  C   UNL     1      -3.550  -9.575  11.510  0.00  0.00    +0.023 A 
ATOM     20  C   UNL     1      -3.725  -8.885   9.200  0.00  0.00    +0.023 A 
ATOM     21  C   UNL     1      -2.951  -9.111  10.338  0.00  0.00    +0.033 A 
BRANCH  21   6
ATOM      4  O   UNL     1      -0.821  -9.666  12.394  0.00  0.00    -0.276 OA
ATOM      6  N   UNL     1      -1.575  -8.875  10.305  0.00  0.00    -0.286 N 
ATOM     27  C   UNL     1      -0.626  -9.154  11.296  0.00  0.00    +0.214 C 
ATOM     28  C   UNL     1       0.762  -8.745  10.871  0.00  0.00    +0.109 C 
ATOM     30  H   UNL     1      -1.229  -8.446   9.448  0.00  0.00    +0.155 HD
ENDBRANCH  21   6
ENDBRANCH   8  13
BRANCH   8   2
ATOM      2  O   UNL     1      -7.480 -10.780  11.467  0.00  0.00    -0.385 OA
ATOM     29  H   UNL     1      -7.008 -10.521  12.277  0.00  0.00    +0.210 HD
ENDBRANCH   8   2
ENDBRANCH   7   8
BRANCH   5  10
ATOM     10  C   UNL     1     -10.323  -9.373  10.967  0.00  0.00    +0.108 C 
BRANCH  10  11
ATOM     11  C   UNL     1     -10.359  -8.865  12.407  0.00  0.00    +0.024 C 
BRANCH  11  15
ATOM     15  C   UNL     1      -9.944  -9.902  13.459  0.00  0.00    +0.036 C 
BRANCH  15  18
ATOM     18  C   UNL     1      -9.936  -9.372  14.869  0.00  0.00    -0.047 A 
ATOM     22  C   UNL     1     -10.508  -8.132  15.152  0.00  0.00    +0.003 A 
ATOM     23  C   UNL     1      -9.357 -10.121  15.893  0.00  0.00    +0.003 A 
ATOM     24  C   UNL     1     -10.501  -7.641  16.457  0.00  0.00    +0.000 A 
ATOM     25  C   UNL     1      -9.350  -9.630  17.199  0.00  0.00    +0.000 A 
ATOM     26  C   UNL     1      -9.922  -8.390  17.481  0.00  0.00    +0.000 A 
ENDBRANCH  15  18
ENDBRANCH  11  15
ENDBRANCH  10  11
ENDBRANCH   5  10
TORSDOF 8
ENDMDL
