MODEL 1
REMARK VINA RESULT:      -1.1      0.000      0.000
REMARK  Name = 45783276
REMARK  10 active torsions:
REMARK  status: ('A' for Active; 'I' for Inactive)
REMARK    1  A    between atoms: O_2  and  C_24
REMARK    2  A    between atoms: O_2  and  C_25
REMARK    3  A    between atoms: N_3  and  C_12
REMARK    4  A    between atoms: N_6  and  C_23
REMARK    5  A    between atoms: C_8  and  C_14
REMARK    6  A    between atoms: C_12  and  C_13
REMARK    7  A    between atoms: C_13  and  C_15
REMARK    8  A    between atoms: C_13  and  C_16
REMARK    9  A    between atoms: C_17  and  C_18
REMARK   10  A    between atoms: C_23  and  C_24
REMARK                            x       y       z     vdW  Elec       q    Type
REMARK                         _______ _______ _______ _____ _____    ______ ____
ROOT
ATOM      1  O   UNL     1      -1.579  -0.195  25.930  0.00  0.00    -0.336 OA
ATOM      4  N   UNL     1      -1.553   0.939  23.998  0.00  0.00    -0.190 NA
ATOM      5  N   UNL     1      -0.471  -0.667  25.217  0.00  0.00    -0.056 NA
ATOM     14  C   UNL     1      -2.161   0.748  25.142  0.00  0.00    +0.245 A 
ATOM     17  C   UNL     1      -0.523   0.049  24.089  0.00  0.00    +0.202 A 
ENDROOT
BRANCH  17  18
ATOM      6  N   UNL     1       3.982   0.544  22.387  0.00  0.00    -0.327 N 
ATOM      7  N   UNL     1       2.309  -0.401  20.980  0.00  0.00    -0.240 NA
ATOM     18  C   UNL     1       0.437  -0.102  23.035  0.00  0.00    +0.027 A 
ATOM     19  C   UNL     1       1.754   0.298  23.227  0.00  0.00    +0.055 A 
ATOM     20  C   UNL     1       0.054  -0.652  21.816  0.00  0.00    +0.031 A 
ATOM     21  C   UNL     1       2.644   0.129  22.178  0.00  0.00    +0.119 A 
ATOM     22  C   UNL     1       1.019  -0.779  20.830  0.00  0.00    +0.113 A 
ATOM     26  H   UNL     1       4.624   0.411  21.614  0.00  0.00    +0.148 HD
BRANCH   6  23
ATOM     23  C   UNL     1       4.428   1.114  23.617  0.00  0.00    +0.131 C 
BRANCH  23  24
ATOM     24  C   UNL     1       5.735   0.470  24.046  0.00  0.00    +0.178 C 
BRANCH  24   2
ATOM      2  O   UNL     1       5.459  -0.710  24.791  0.00  0.00    -0.381 OA
ATOM     25  C   UNL     1       4.990  -1.758  23.953  0.00  0.00    +0.194 C 
ENDBRANCH  24   2
ENDBRANCH  23  24
ENDBRANCH   6  23
ENDBRANCH  17  18
BRANCH  14   8
ATOM      3  N   UNL     1      -3.627   2.758  25.112  0.00  0.00    -0.291 NA
ATOM      8  C   UNL     1      -3.399   1.422  25.696  0.00  0.00    +0.146 C 
ATOM      9  C   UNL     1      -4.688   0.637  25.395  0.00  0.00    +0.030 C 
ATOM     10  C   UNL     1      -5.073   2.979  25.138  0.00  0.00    +0.085 C 
ATOM     11  C   UNL     1      -5.604   1.631  24.694  0.00  0.00    +0.017 C 
BRANCH   3  12
ATOM     12  C   UNL     1      -2.898   3.818  25.798  0.00  0.00    +0.088 C 
BRANCH  12  13
ATOM     13  C   UNL     1      -1.578   4.174  25.094  0.00  0.00    -0.003 C 
ATOM     15  C   UNL     1      -1.413   5.696  25.045  0.00  0.00    +0.008 C 
ATOM     16  C   UNL     1      -0.360   3.547  25.778  0.00  0.00    +0.008 C 
ENDBRANCH  12  13
ENDBRANCH   3  12
ENDBRANCH  14   8
TORSDOF 7
ENDMDL
MODEL 2
REMARK VINA RESULT:      -1.0      2.116      3.374
REMARK  Name = 45783276
REMARK  10 active torsions:
REMARK  status: ('A' for Active; 'I' for Inactive)
REMARK    1  A    between atoms: O_2  and  C_24
REMARK    2  A    between atoms: O_2  and  C_25
REMARK    3  A    between atoms: N_3  and  C_12
REMARK    4  A    between atoms: N_6  and  C_23
REMARK    5  A    between atoms: C_8  and  C_14
REMARK    6  A    between atoms: C_12  and  C_13
REMARK    7  A    between atoms: C_13  and  C_15
REMARK    8  A    between atoms: C_13  and  C_16
REMARK    9  A    between atoms: C_17  and  C_18
REMARK   10  A    between atoms: C_23  and  C_24
REMARK                            x       y       z     vdW  Elec       q    Type
REMARK                         _______ _______ _______ _____ _____    ______ ____
ROOT
ATOM      1  O   UNL     1      -5.673   1.051  24.992  0.00  0.00    -0.336 OA
ATOM      4  N   UNL     1      -3.483   1.173  25.446  0.00  0.00    -0.190 NA
ATOM      5  N   UNL     1      -5.114  -0.149  24.537  0.00  0.00    -0.056 NA
ATOM     14  C   UNL     1      -4.646   1.772  25.513  0.00  0.00    +0.245 A 
ATOM     17  C   UNL     1      -3.821  -0.002  24.840  0.00  0.00    +0.202 A 
ENDROOT
BRANCH  17  18
ATOM      6  N   UNL     1       0.676  -1.260  23.561  0.00  0.00    -0.327 N 
ATOM      7  N   UNL     1      -0.929  -2.968  23.987  0.00  0.00    -0.240 NA
ATOM     18  C   UNL     1      -2.840  -1.007  24.549  0.00  0.00    +0.027 A 
ATOM     19  C   UNL     1      -1.548  -0.640  24.193  0.00  0.00    +0.055 A 
ATOM     20  C   UNL     1      -3.179  -2.354  24.624  0.00  0.00    +0.031 A 
ATOM     21  C   UNL     1      -0.637  -1.649  23.924  0.00  0.00    +0.119 A 
ATOM     22  C   UNL     1      -2.196  -3.287  24.336  0.00  0.00    +0.113 A 
ATOM     26  H   UNL     1       1.334  -2.007  23.371  0.00  0.00    +0.148 HD
BRANCH   6  23
ATOM     23  C   UNL     1       1.076   0.107  23.469  0.00  0.00    +0.131 C 
BRANCH  23  24
ATOM     24  C   UNL     1       2.252   0.242  22.518  0.00  0.00    +0.178 C 
BRANCH  24   2
ATOM      2  O   UNL     1       3.219   1.118  23.083  0.00  0.00    -0.381 OA
ATOM     25  C   UNL     1       4.521   0.549  23.050  0.00  0.00    +0.194 C 
ENDBRANCH  24   2
ENDBRANCH  23  24
ENDBRANCH   6  23
ENDBRANCH  17  18
BRANCH  14   8
ATOM      3  N   UNL     1      -4.177   4.216  25.502  0.00  0.00    -0.291 NA
ATOM      8  C   UNL     1      -4.994   3.132  26.082  0.00  0.00    +0.146 C 
ATOM      9  C   UNL     1      -6.450   3.541  25.793  0.00  0.00    +0.030 C 
ATOM     10  C   UNL     1      -5.002   5.423  25.544  0.00  0.00    +0.085 C 
ATOM     11  C   UNL     1      -6.353   4.895  25.104  0.00  0.00    +0.017 C 
BRANCH   3  12
ATOM     12  C   UNL     1      -2.901   4.400  26.182  0.00  0.00    +0.088 C 
BRANCH  12  13
ATOM     13  C   UNL     1      -1.701   4.068  25.279  0.00  0.00    -0.003 C 
ATOM     15  C   UNL     1      -0.951   5.355  24.923  0.00  0.00    +0.008 C 
ATOM     16  C   UNL     1      -0.736   3.072  25.929  0.00  0.00    +0.008 C 
ENDBRANCH  12  13
ENDBRANCH   3  12
ENDBRANCH  14   8
TORSDOF 7
ENDMDL
MODEL 3
REMARK VINA RESULT:      -0.6      2.759      4.548
REMARK  Name = 45783276
REMARK  10 active torsions:
REMARK  status: ('A' for Active; 'I' for Inactive)
REMARK    1  A    between atoms: O_2  and  C_24
REMARK    2  A    between atoms: O_2  and  C_25
REMARK    3  A    between atoms: N_3  and  C_12
REMARK    4  A    between atoms: N_6  and  C_23
REMARK    5  A    between atoms: C_8  and  C_14
REMARK    6  A    between atoms: C_12  and  C_13
REMARK    7  A    between atoms: C_13  and  C_15
REMARK    8  A    between atoms: C_13  and  C_16
REMARK    9  A    between atoms: C_17  and  C_18
REMARK   10  A    between atoms: C_23  and  C_24
REMARK                            x       y       z     vdW  Elec       q    Type
REMARK                         _______ _______ _______ _____ _____    ______ ____
ROOT
ATOM      1  O   UNL     1      -5.521   2.314  25.061  0.00  0.00    -0.336 OA
ATOM      4  N   UNL     1      -3.407   1.619  24.800  0.00  0.00    -0.190 NA
ATOM      5  N   UNL     1      -5.588   0.930  24.863  0.00  0.00    -0.056 NA
ATOM     14  C   UNL     1      -4.202   2.638  25.010  0.00  0.00    +0.245 A 
ATOM     17  C   UNL     1      -4.303   0.593  24.717  0.00  0.00    +0.202 A 
ENDROOT
BRANCH  17  18
ATOM      6  N   UNL     1      -0.851  -2.802  24.712  0.00  0.00    -0.327 N 
ATOM      7  N   UNL     1      -3.058  -3.392  24.035  0.00  0.00    -0.240 NA
ATOM     18  C   UNL     1      -3.880  -0.758  24.484  0.00  0.00    +0.027 A 
ATOM     19  C   UNL     1      -2.559  -1.125  24.713  0.00  0.00    +0.055 A 
ATOM     20  C   UNL     1      -4.791  -1.706  24.031  0.00  0.00    +0.031 A 
ATOM     21  C   UNL     1      -2.201  -2.443  24.476  0.00  0.00    +0.119 A 
ATOM     22  C   UNL     1      -4.334  -2.997  23.824  0.00  0.00    +0.113 A 
ATOM     26  H   UNL     1      -0.604  -3.770  24.539  0.00  0.00    +0.148 HD
BRANCH   6  23
ATOM     23  C   UNL     1       0.123  -1.870  25.177  0.00  0.00    +0.131 C 
BRANCH  23  24
ATOM     24  C   UNL     1       0.012  -0.570  24.399  0.00  0.00    +0.178 C 
BRANCH  24   2
ATOM      2  O   UNL     1       0.571  -0.745  23.102  0.00  0.00    -0.381 OA
ATOM     25  C   UNL     1       1.715   0.076  22.912  0.00  0.00    +0.194 C 
ENDBRANCH  24   2
ENDBRANCH  23  24
ENDBRANCH   6  23
ENDBRANCH  17  18
BRANCH  14   8
ATOM      3  N   UNL     1      -2.452   4.402  24.864  0.00  0.00    -0.291 NA
ATOM      8  C   UNL     1      -3.858   4.101  25.200  0.00  0.00    +0.146 C 
ATOM      9  C   UNL     1      -4.685   5.029  24.292  0.00  0.00    +0.030 C 
ATOM     10  C   UNL     1      -2.426   5.791  24.405  0.00  0.00    +0.085 C 
ATOM     11  C   UNL     1      -3.660   5.854  23.527  0.00  0.00    +0.017 C 
BRANCH   3  12
ATOM     12  C   UNL     1      -1.535   4.173  25.973  0.00  0.00    +0.088 C 
BRANCH  12  13
ATOM     13  C   UNL     1      -0.253   3.446  25.535  0.00  0.00    -0.003 C 
ATOM     15  C   UNL     1       0.029   2.278  26.485  0.00  0.00    +0.008 C 
ATOM     16  C   UNL     1      -0.333   2.930  24.095  0.00  0.00    +0.008 C 
ENDBRANCH  12  13
ENDBRANCH   3  12
ENDBRANCH  14   8
TORSDOF 7
ENDMDL
MODEL 4
REMARK VINA RESULT:      -0.4      1.347      2.658
REMARK  Name = 45783276
REMARK  10 active torsions:
REMARK  status: ('A' for Active; 'I' for Inactive)
REMARK    1  A    between atoms: O_2  and  C_24
REMARK    2  A    between atoms: O_2  and  C_25
REMARK    3  A    between atoms: N_3  and  C_12
REMARK    4  A    between atoms: N_6  and  C_23
REMARK    5  A    between atoms: C_8  and  C_14
REMARK    6  A    between atoms: C_12  and  C_13
REMARK    7  A    between atoms: C_13  and  C_15
REMARK    8  A    between atoms: C_13  and  C_16
REMARK    9  A    between atoms: C_17  and  C_18
REMARK   10  A    between atoms: C_23  and  C_24
REMARK                            x       y       z     vdW  Elec       q    Type
REMARK                         _______ _______ _______ _____ _____    ______ ____
ROOT
ATOM      1  O   UNL     1      -1.283   2.243  25.507  0.00  0.00    -0.336 OA
ATOM      4  N   UNL     1      -1.619   1.620  23.382  0.00  0.00    -0.190 NA
ATOM      5  N   UNL     1      -0.090   1.646  25.084  0.00  0.00    -0.056 NA
ATOM     14  C   UNL     1      -2.130   2.187  24.445  0.00  0.00    +0.245 A 
ATOM     17  C   UNL     1      -0.366   1.304  23.821  0.00  0.00    +0.202 A 
ENDROOT
BRANCH  17  18
ATOM      6  N   UNL     1       4.210   0.425  22.508  0.00  0.00    -0.327 N 
ATOM      7  N   UNL     1       2.439  -0.641  21.324  0.00  0.00    -0.240 NA
ATOM     18  C   UNL     1       0.585   0.646  22.973  0.00  0.00    +0.027 A 
ATOM     19  C   UNL     1       1.947   0.859  23.155  0.00  0.00    +0.055 A 
ATOM     20  C   UNL     1       0.149  -0.209  21.968  0.00  0.00    +0.031 A 
ATOM     21  C   UNL     1       2.825   0.197  22.312  0.00  0.00    +0.119 A 
ATOM     22  C   UNL     1       1.107  -0.823  21.178  0.00  0.00    +0.113 A 
ATOM     26  H   UNL     1       4.842  -0.067  21.888  0.00  0.00    +0.148 HD
BRANCH   6  23
ATOM     23  C   UNL     1       4.711   1.293  23.524  0.00  0.00    +0.131 C 
BRANCH  23  24
ATOM     24  C   UNL     1       5.783   0.583  24.332  0.00  0.00    +0.178 C 
BRANCH  24   2
ATOM      2  O   UNL     1       6.036  -0.696  23.763  0.00  0.00    -0.381 OA
ATOM     25  C   UNL     1       5.063  -1.649  24.170  0.00  0.00    +0.194 C 
ENDBRANCH  24   2
ENDBRANCH  23  24
ENDBRANCH   6  23
ENDBRANCH  17  18
BRANCH  14   8
ATOM      3  N   UNL     1      -4.401   1.885  25.417  0.00  0.00    -0.291 NA
ATOM      8  C   UNL     1      -3.510   2.778  24.650  0.00  0.00    +0.146 C 
ATOM      9  C   UNL     1      -3.481   4.089  25.455  0.00  0.00    +0.030 C 
ATOM     10  C   UNL     1      -5.341   2.752  26.129  0.00  0.00    +0.085 C 
ATOM     11  C   UNL     1      -4.432   3.861  26.621  0.00  0.00    +0.017 C 
BRANCH   3  12
ATOM     12  C   UNL     1      -5.084   0.903  24.585  0.00  0.00    +0.088 C 
BRANCH  12  13
ATOM     13  C   UNL     1      -4.564  -0.526  24.816  0.00  0.00    -0.003 C 
ATOM     15  C   UNL     1      -3.937  -1.063  23.526  0.00  0.00    +0.008 C 
ATOM     16  C   UNL     1      -3.544  -0.602  25.955  0.00  0.00    +0.008 C 
ENDBRANCH  12  13
ENDBRANCH   3  12
ENDBRANCH  14   8
TORSDOF 7
ENDMDL
MODEL 5
REMARK VINA RESULT:       0.5      1.786      3.430
REMARK  Name = 45783276
REMARK  10 active torsions:
REMARK  status: ('A' for Active; 'I' for Inactive)
REMARK    1  A    between atoms: O_2  and  C_24
REMARK    2  A    between atoms: O_2  and  C_25
REMARK    3  A    between atoms: N_3  and  C_12
REMARK    4  A    between atoms: N_6  and  C_23
REMARK    5  A    between atoms: C_8  and  C_14
REMARK    6  A    between atoms: C_12  and  C_13
REMARK    7  A    between atoms: C_13  and  C_15
REMARK    8  A    between atoms: C_13  and  C_16
REMARK    9  A    between atoms: C_17  and  C_18
REMARK   10  A    between atoms: C_23  and  C_24
REMARK                            x       y       z     vdW  Elec       q    Type
REMARK                         _______ _______ _______ _____ _____    ______ ____
ROOT
ATOM      1  O   UNL     1      -2.946   2.373  22.725  0.00  0.00    -0.336 OA
ATOM      4  N   UNL     1      -1.955   1.975  24.694  0.00  0.00    -0.190 NA
ATOM      5  N   UNL     1      -2.113   1.266  22.524  0.00  0.00    -0.056 NA
ATOM     14  C   UNL     1      -2.794   2.728  24.028  0.00  0.00    +0.245 A 
ATOM     17  C   UNL     1      -1.563   1.092  23.730  0.00  0.00    +0.202 A 
ENDROOT
BRANCH  17  18
ATOM      6  N   UNL     1       2.806  -0.904  23.124  0.00  0.00    -0.327 N 
ATOM      7  N   UNL     1       1.226  -1.983  24.543  0.00  0.00    -0.240 NA
ATOM     18  C   UNL     1      -0.618   0.049  24.004  0.00  0.00    +0.027 A 
ATOM     19  C   UNL     1       0.645   0.081  23.425  0.00  0.00    +0.055 A 
ATOM     20  C   UNL     1      -0.961  -0.998  24.853  0.00  0.00    +0.031 A 
ATOM     21  C   UNL     1       1.523  -0.949  23.723  0.00  0.00    +0.119 A 
ATOM     22  C   UNL     1      -0.012  -1.980  25.088  0.00  0.00    +0.113 A 
ATOM     26  H   UNL     1       3.440  -1.661  23.353  0.00  0.00    +0.148 HD
BRANCH   6  23
ATOM     23  C   UNL     1       3.209   0.146  22.246  0.00  0.00    +0.131 C 
BRANCH  23  24
ATOM     24  C   UNL     1       4.318   0.963  22.886  0.00  0.00    +0.178 C 
BRANCH  24   2
ATOM      2  O   UNL     1       5.484   0.159  23.013  0.00  0.00    -0.381 OA
ATOM     25  C   UNL     1       5.703  -0.235  24.361  0.00  0.00    +0.194 C 
ENDBRANCH  24   2
ENDBRANCH  23  24
ENDBRANCH   6  23
ENDBRANCH  17  18
BRANCH  14   8
ATOM      3  N   UNL     1      -4.610   3.550  25.517  0.00  0.00    -0.291 NA
ATOM      8  C   UNL     1      -3.602   3.917  24.503  0.00  0.00    +0.146 C 
ATOM      9  C   UNL     1      -2.734   4.991  25.184  0.00  0.00    +0.030 C 
ATOM     10  C   UNL     1      -4.794   4.729  26.363  0.00  0.00    +0.085 C 
ATOM     11  C   UNL     1      -3.367   5.205  26.552  0.00  0.00    +0.017 C 
BRANCH   3  12
ATOM     12  C   UNL     1      -5.865   3.089  24.938  0.00  0.00    +0.088 C 
BRANCH  12  13
ATOM     13  C   UNL     1      -6.230   1.663  25.385  0.00  0.00    -0.003 C 
ATOM     15  C   UNL     1      -5.097   0.701  25.014  0.00  0.00    +0.008 C 
ATOM     16  C   UNL     1      -6.511   1.572  26.886  0.00  0.00    +0.008 C 
ENDBRANCH  12  13
ENDBRANCH   3  12
ENDBRANCH  14   8
TORSDOF 7
ENDMDL
MODEL 6
REMARK VINA RESULT:       2.7      2.566      4.758
REMARK  Name = 45783276
REMARK  10 active torsions:
REMARK  status: ('A' for Active; 'I' for Inactive)
REMARK    1  A    between atoms: O_2  and  C_24
REMARK    2  A    between atoms: O_2  and  C_25
REMARK    3  A    between atoms: N_3  and  C_12
REMARK    4  A    between atoms: N_6  and  C_23
REMARK    5  A    between atoms: C_8  and  C_14
REMARK    6  A    between atoms: C_12  and  C_13
REMARK    7  A    between atoms: C_13  and  C_15
REMARK    8  A    between atoms: C_13  and  C_16
REMARK    9  A    between atoms: C_17  and  C_18
REMARK   10  A    between atoms: C_23  and  C_24
REMARK                            x       y       z     vdW  Elec       q    Type
REMARK                         _______ _______ _______ _____ _____    ______ ____
ROOT
ATOM      1  O   UNL     1      -0.678   4.513  24.266  0.00  0.00    -0.336 OA
ATOM      4  N   UNL     1      -1.537   2.452  24.446  0.00  0.00    -0.190 NA
ATOM      5  N   UNL     1       0.362   3.629  23.954  0.00  0.00    -0.056 NA
ATOM     14  C   UNL     1      -1.760   3.738  24.543  0.00  0.00    +0.245 A 
ATOM     17  C   UNL     1      -0.222   2.433  24.082  0.00  0.00    +0.202 A 
ENDROOT
BRANCH  17  18
ATOM      6  N   UNL     1       0.103  -2.376  24.528  0.00  0.00    -0.327 N 
ATOM      7  N   UNL     1       1.845  -1.195  23.413  0.00  0.00    -0.240 NA
ATOM     18  C   UNL     1       0.480   1.203  23.857  0.00  0.00    +0.027 A 
ATOM     19  C   UNL     1      -0.056   0.002  24.307  0.00  0.00    +0.055 A 
ATOM     20  C   UNL     1       1.698   1.207  23.186  0.00  0.00    +0.031 A 
ATOM     21  C   UNL     1       0.660  -1.160  24.062  0.00  0.00    +0.119 A 
ATOM     22  C   UNL     1       2.335  -0.008  22.991  0.00  0.00    +0.113 A 
ATOM     26  H   UNL     1       0.633  -3.219  24.339  0.00  0.00    +0.148 HD
BRANCH   6  23
ATOM     23  C   UNL     1      -1.142  -2.437  25.222  0.00  0.00    +0.131 C 
BRANCH  23  24
ATOM     24  C   UNL     1      -2.247  -2.864  24.272  0.00  0.00    +0.178 C 
BRANCH  24   2
ATOM      2  O   UNL     1      -3.512  -2.599  24.866  0.00  0.00    -0.381 OA
ATOM     25  C   UNL     1      -3.390  -1.738  25.990  0.00  0.00    +0.194 C 
ENDBRANCH  24   2
ENDBRANCH  23  24
ENDBRANCH   6  23
ENDBRANCH  17  18
BRANCH  14   8
ATOM      3  N   UNL     1      -4.124   3.546  25.296  0.00  0.00    -0.291 NA
ATOM      8  C   UNL     1      -3.035   4.467  24.914  0.00  0.00    +0.146 C 
ATOM      9  C   UNL     1      -2.858   5.391  26.132  0.00  0.00    +0.030 C 
ATOM     10  C   UNL     1      -4.964   4.273  26.248  0.00  0.00    +0.085 C 
ATOM     11  C   UNL     1      -3.929   4.955  27.121  0.00  0.00    +0.017 C 
BRANCH   3  12
ATOM     12  C   UNL     1      -4.887   3.055  24.156  0.00  0.00    +0.088 C 
BRANCH  12  13
ATOM     13  C   UNL     1      -5.257   1.568  24.293  0.00  0.00    -0.003 C 
ATOM     15  C   UNL     1      -4.029   0.701  23.999  0.00  0.00    +0.008 C 
ATOM     16  C   UNL     1      -5.808   1.226  25.680  0.00  0.00    +0.008 C 
ENDBRANCH  12  13
ENDBRANCH   3  12
ENDBRANCH  14   8
TORSDOF 7
ENDMDL
MODEL 7
REMARK VINA RESULT:       2.9      3.028      4.790
REMARK  Name = 45783276
REMARK  10 active torsions:
REMARK  status: ('A' for Active; 'I' for Inactive)
REMARK    1  A    between atoms: O_2  and  C_24
REMARK    2  A    between atoms: O_2  and  C_25
REMARK    3  A    between atoms: N_3  and  C_12
REMARK    4  A    between atoms: N_6  and  C_23
REMARK    5  A    between atoms: C_8  and  C_14
REMARK    6  A    between atoms: C_12  and  C_13
REMARK    7  A    between atoms: C_13  and  C_15
REMARK    8  A    between atoms: C_13  and  C_16
REMARK    9  A    between atoms: C_17  and  C_18
REMARK   10  A    between atoms: C_23  and  C_24
REMARK                            x       y       z     vdW  Elec       q    Type
REMARK                         _______ _______ _______ _____ _____    ______ ____
ROOT
ATOM      1  O   UNL     1      -3.248   2.430  22.579  0.00  0.00    -0.336 OA
ATOM      4  N   UNL     1      -3.400   1.485  24.605  0.00  0.00    -0.190 NA
ATOM      5  N   UNL     1      -3.149   1.049  22.373  0.00  0.00    -0.056 NA
ATOM     14  C   UNL     1      -3.394   2.601  23.920  0.00  0.00    +0.245 A 
ATOM     17  C   UNL     1      -3.247   0.561  23.613  0.00  0.00    +0.202 A 
ENDROOT
BRANCH  17  18
ATOM      6  N   UNL     1      -0.826  -3.342  25.144  0.00  0.00    -0.327 N 
ATOM      7  N   UNL     1      -3.092  -3.582  24.451  0.00  0.00    -0.240 NA
ATOM     18  C   UNL     1      -3.194  -0.844  23.895  0.00  0.00    +0.027 A 
ATOM     19  C   UNL     1      -2.025  -1.414  24.386  0.00  0.00    +0.055 A 
ATOM     20  C   UNL     1      -4.313  -1.642  23.681  0.00  0.00    +0.031 A 
ATOM     21  C   UNL     1      -2.025  -2.776  24.646  0.00  0.00    +0.119 A 
ATOM     22  C   UNL     1      -4.211  -2.993  23.972  0.00  0.00    +0.113 A 
ATOM     26  H   UNL     1      -0.841  -4.338  25.334  0.00  0.00    +0.148 HD
BRANCH   6  23
ATOM     23  C   UNL     1       0.350  -2.570  25.381  0.00  0.00    +0.131 C 
BRANCH  23  24
ATOM     24  C   UNL     1       0.177  -1.172  24.813  0.00  0.00    +0.178 C 
BRANCH  24   2
ATOM      2  O   UNL     1       1.170  -0.938  23.822  0.00  0.00    -0.381 OA
ATOM     25  C   UNL     1       0.827   0.161  22.989  0.00  0.00    +0.194 C 
ENDBRANCH  24   2
ENDBRANCH  23  24
ENDBRANCH   6  23
ENDBRANCH  17  18
BRANCH  14   8
ATOM      3  N   UNL     1      -4.277   4.128  25.675  0.00  0.00    -0.291 NA
ATOM      8  C   UNL     1      -3.525   4.029  24.409  0.00  0.00    +0.146 C 
ATOM      9  C   UNL     1      -2.164   4.682  24.709  0.00  0.00    +0.030 C 
ATOM     10  C   UNL     1      -3.759   5.306  26.372  0.00  0.00    +0.085 C 
ATOM     11  C   UNL     1      -2.266   5.171  26.146  0.00  0.00    +0.017 C 
BRANCH   3  12
ATOM     12  C   UNL     1      -5.720   4.195  25.483  0.00  0.00    +0.088 C 
BRANCH  12  13
ATOM     13  C   UNL     1      -6.426   2.885  25.871  0.00  0.00    -0.003 C 
ATOM     15  C   UNL     1      -6.615   2.012  24.627  0.00  0.00    +0.008 C 
ATOM     16  C   UNL     1      -5.661   2.100  26.939  0.00  0.00    +0.008 C 
ENDBRANCH  12  13
ENDBRANCH   3  12
ENDBRANCH  14   8
TORSDOF 7
ENDMDL
