MODEL 1
REMARK VINA RESULT:      -0.8      0.000      0.000
REMARK  Name = 56775017
REMARK  6 active torsions:
REMARK  status: ('A' for Active; 'I' for Inactive)
REMARK    1  A    between atoms: O_3  and  C_27
REMARK    2  A    between atoms: N_5  and  C_12
REMARK    3  A    between atoms: N_6  and  C_15
REMARK    4  A    between atoms: C_12  and  C_16
REMARK    5  A    between atoms: C_15  and  C_17
REMARK    6  A    between atoms: C_24  and  C_27
REMARK                            x       y       z     vdW  Elec       q    Type
REMARK                         _______ _______ _______ _____ _____    ______ ____
ROOT
ATOM      1  O   UNL     1      -3.362   5.199  24.354  0.00  0.00    -0.364 OA
ATOM      2  O   UNL     1       0.149   5.043  24.093  0.00  0.00    -0.273 OA
ATOM      5  N   UNL     1      -4.629   2.663  26.033  0.00  0.00    -0.294 NA
ATOM      6  N   UNL     1      -1.245   3.970  25.617  0.00  0.00    -0.288 N 
ATOM      8  C   UNL     1      -2.596   3.758  26.131  0.00  0.00    +0.120 C 
ATOM      9  C   UNL     1      -3.622   4.799  25.697  0.00  0.00    +0.154 C 
ATOM     10  C   UNL     1      -3.234   2.458  25.645  0.00  0.00    +0.110 C 
ATOM     11  C   UNL     1      -4.962   4.057  25.714  0.00  0.00    +0.118 C 
ATOM     13  C   UNL     1      -0.956   4.895  24.618  0.00  0.00    +0.242 C 
ATOM     14  C   UNL     1      -2.099   5.814  24.246  0.00  0.00    +0.256 C 
ENDROOT
BRANCH   5  12
ATOM     12  C   UNL     1      -5.533   1.709  25.411  0.00  0.00    +0.119 C 
BRANCH  12  16
ATOM     16  C   UNL     1      -4.837   0.419  25.068  0.00  0.00    -0.033 A 
ATOM     18  C   UNL     1      -4.301  -0.374  26.082  0.00  0.00    +0.006 A 
ATOM     19  C   UNL     1      -4.727   0.018  23.737  0.00  0.00    +0.006 A 
ATOM     22  C   UNL     1      -3.655  -1.569  25.765  0.00  0.00    +0.015 A 
ATOM     23  C   UNL     1      -4.082  -1.177  23.419  0.00  0.00    +0.015 A 
ATOM     24  C   UNL     1      -3.546  -1.972  24.434  0.00  0.00    +0.059 A 
BRANCH  24  27
ATOM      4  O   UNL     1      -1.658  -3.355  23.940  0.00  0.00    -0.245 OA
ATOM     27  C   UNL     1      -2.875  -3.218  24.102  0.00  0.00    +0.337 C 
BRANCH  27   3
ATOM      3  O   UNL     1      -3.743  -4.260  23.982  0.00  0.00    -0.477 OA
ATOM     28  H   UNL     1      -3.497  -4.856  23.242  0.00  0.00    +0.295 HD
ENDBRANCH  27   3
ENDBRANCH  24  27
ENDBRANCH  12  16
ENDBRANCH   5  12
BRANCH   6  15
ATOM     15  C   UNL     1      -0.198   3.094  26.127  0.00  0.00    +0.145 C 
BRANCH  15  17
ATOM      7  N   UNL     1       0.763   0.711  23.347  0.00  0.00    -0.263 NA
ATOM     17  C   UNL     1      -0.081   1.831  25.316  0.00  0.00    -0.012 A 
ATOM     20  C   UNL     1      -0.677   0.649  25.741  0.00  0.00    +0.008 A 
ATOM     21  C   UNL     1       0.622   1.810  24.122  0.00  0.00    +0.115 A 
ATOM     25  C   UNL     1      -0.554  -0.502  24.970  0.00  0.00    +0.020 A 
ATOM     26  C   UNL     1       0.171  -0.419  23.792  0.00  0.00    +0.111 A 
ENDBRANCH  15  17
ENDBRANCH   6  15
TORSDOF 6
ENDMDL
MODEL 2
REMARK VINA RESULT:      -0.4      2.359      5.195
REMARK  Name = 56775017
REMARK  6 active torsions:
REMARK  status: ('A' for Active; 'I' for Inactive)
REMARK    1  A    between atoms: O_3  and  C_27
REMARK    2  A    between atoms: N_5  and  C_12
REMARK    3  A    between atoms: N_6  and  C_15
REMARK    4  A    between atoms: C_12  and  C_16
REMARK    5  A    between atoms: C_15  and  C_17
REMARK    6  A    between atoms: C_24  and  C_27
REMARK                            x       y       z     vdW  Elec       q    Type
REMARK                         _______ _______ _______ _____ _____    ______ ____
ROOT
ATOM      1  O   UNL     1       0.802   1.765  22.962  0.00  0.00    -0.364 OA
ATOM      2  O   UNL     1       0.184  -1.704  22.970  0.00  0.00    -0.273 OA
ATOM      5  N   UNL     1      -0.632   3.321  25.488  0.00  0.00    -0.294 NA
ATOM      6  N   UNL     1       0.013  -0.193  24.731  0.00  0.00    -0.288 N 
ATOM      8  C   UNL     1       0.181   1.174  25.218  0.00  0.00    +0.120 C 
ATOM      9  C   UNL     1       1.041   2.072  24.333  0.00  0.00    +0.154 C 
ATOM     10  C   UNL     1      -1.127   1.958  25.294  0.00  0.00    +0.110 C 
ATOM     11  C   UNL     1       0.520   3.489  24.594  0.00  0.00    +0.118 C 
ATOM     13  C   UNL     1       0.390  -0.588  23.452  0.00  0.00    +0.242 C 
ATOM     14  C   UNL     1       1.177   0.439  22.669  0.00  0.00    +0.256 C 
ENDROOT
BRANCH   5  12
ATOM     12  C   UNL     1      -1.660   4.328  25.282  0.00  0.00    +0.119 C 
BRANCH  12  16
ATOM     16  C   UNL     1      -3.038   3.724  25.246  0.00  0.00    -0.033 A 
ATOM     18  C   UNL     1      -3.478   3.062  24.099  0.00  0.00    +0.006 A 
ATOM     19  C   UNL     1      -3.875   3.826  26.356  0.00  0.00    +0.006 A 
ATOM     22  C   UNL     1      -4.755   2.502  24.064  0.00  0.00    +0.015 A 
ATOM     23  C   UNL     1      -5.152   3.267  26.321  0.00  0.00    +0.015 A 
ATOM     24  C   UNL     1      -5.592   2.604  25.175  0.00  0.00    +0.059 A 
BRANCH  24  27
ATOM      4  O   UNL     1      -7.614   1.872  24.126  0.00  0.00    -0.245 OA
ATOM     27  C   UNL     1      -6.923   2.019  25.140  0.00  0.00    +0.337 C 
BRANCH  27   3
ATOM      3  O   UNL     1      -7.355   1.633  26.372  0.00  0.00    -0.477 OA
ATOM     28  H   UNL     1      -6.767   1.963  27.085  0.00  0.00    +0.295 HD
ENDBRANCH  27   3
ENDBRANCH  24  27
ENDBRANCH  12  16
ENDBRANCH   5  12
BRANCH   6  15
ATOM     15  C   UNL     1      -0.667  -1.131  25.616  0.00  0.00    +0.145 C 
BRANCH  15  17
ATOM      7  N   UNL     1      -3.468  -3.244  24.195  0.00  0.00    -0.263 NA
ATOM     17  C   UNL     1      -2.019  -1.524  25.081  0.00  0.00    -0.012 A 
ATOM     20  C   UNL     1      -3.043  -0.592  24.969  0.00  0.00    +0.008 A 
ATOM     21  C   UNL     1      -2.279  -2.826  24.684  0.00  0.00    +0.115 A 
ATOM     25  C   UNL     1      -4.281  -0.984  24.470  0.00  0.00    +0.020 A 
ATOM     26  C   UNL     1      -4.441  -2.310  24.100  0.00  0.00    +0.111 A 
ENDBRANCH  15  17
ENDBRANCH   6  15
TORSDOF 6
ENDMDL
MODEL 3
REMARK VINA RESULT:      -0.4      3.509      7.092
REMARK  Name = 56775017
REMARK  6 active torsions:
REMARK  status: ('A' for Active; 'I' for Inactive)
REMARK    1  A    between atoms: O_3  and  C_27
REMARK    2  A    between atoms: N_5  and  C_12
REMARK    3  A    between atoms: N_6  and  C_15
REMARK    4  A    between atoms: C_12  and  C_16
REMARK    5  A    between atoms: C_15  and  C_17
REMARK    6  A    between atoms: C_24  and  C_27
REMARK                            x       y       z     vdW  Elec       q    Type
REMARK                         _______ _______ _______ _____ _____    ______ ____
ROOT
ATOM      1  O   UNL     1      -2.177  -1.948  24.531  0.00  0.00    -0.364 OA
ATOM      2  O   UNL     1      -5.467  -0.709  24.283  0.00  0.00    -0.273 OA
ATOM      5  N   UNL     1       0.084   0.233  23.541  0.00  0.00    -0.294 NA
ATOM      6  N   UNL     1      -3.467   0.479  24.354  0.00  0.00    -0.288 N 
ATOM      8  C   UNL     1      -2.013   0.459  24.486  0.00  0.00    +0.120 C 
ATOM      9  C   UNL     1      -1.434  -0.841  25.035  0.00  0.00    +0.154 C 
ATOM     10  C   UNL     1      -1.278   0.600  23.155  0.00  0.00    +0.110 C 
ATOM     11  C   UNL     1      -0.022  -0.919  24.444  0.00  0.00    +0.118 C 
ATOM     13  C   UNL     1      -4.251  -0.664  24.476  0.00  0.00    +0.242 C 
ATOM     14  C   UNL     1      -3.517  -1.895  24.964  0.00  0.00    +0.256 C 
ENDROOT
BRANCH   5  12
ATOM     12  C   UNL     1       0.944  -0.022  22.396  0.00  0.00    +0.119 C 
BRANCH  12  16
ATOM     16  C   UNL     1       2.391  -0.129  22.795  0.00  0.00    -0.033 A 
ATOM     18  C   UNL     1       3.253   0.949  22.586  0.00  0.00    +0.006 A 
ATOM     19  C   UNL     1       2.872  -1.304  23.371  0.00  0.00    +0.006 A 
ATOM     22  C   UNL     1       4.594   0.850  22.954  0.00  0.00    +0.015 A 
ATOM     23  C   UNL     1       4.213  -1.403  23.740  0.00  0.00    +0.015 A 
ATOM     24  C   UNL     1       5.075  -0.325  23.532  0.00  0.00    +0.059 A 
BRANCH  24  27
ATOM      4  O   UNL     1       7.419   0.111  23.333  0.00  0.00    -0.245 OA
ATOM     27  C   UNL     1       6.473  -0.428  23.918  0.00  0.00    +0.337 C 
BRANCH  27   3
ATOM      3  O   UNL     1       6.652  -1.202  25.024  0.00  0.00    -0.477 OA
ATOM     28  H   UNL     1       7.472  -1.737  24.966  0.00  0.00    +0.295 HD
ENDBRANCH  27   3
ENDBRANCH  24  27
ENDBRANCH  12  16
ENDBRANCH   5  12
BRANCH   6  15
ATOM     15  C   UNL     1      -4.080   1.749  23.983  0.00  0.00    +0.145 C 
BRANCH  15  17
ATOM      7  N   UNL     1      -3.614   4.364  26.680  0.00  0.00    -0.263 NA
ATOM     17  C   UNL     1      -3.498   2.899  24.761  0.00  0.00    -0.012 A 
ATOM     20  C   UNL     1      -2.355   3.556  24.319  0.00  0.00    +0.008 A 
ATOM     21  C   UNL     1      -4.085   3.338  25.936  0.00  0.00    +0.115 A 
ATOM     25  C   UNL     1      -1.841   4.617  25.057  0.00  0.00    +0.020 A 
ATOM     26  C   UNL     1      -2.502   4.978  26.220  0.00  0.00    +0.111 A 
ENDBRANCH  15  17
ENDBRANCH   6  15
TORSDOF 6
ENDMDL
MODEL 4
REMARK VINA RESULT:      -0.0      1.646      4.259
REMARK  Name = 56775017
REMARK  6 active torsions:
REMARK  status: ('A' for Active; 'I' for Inactive)
REMARK    1  A    between atoms: O_3  and  C_27
REMARK    2  A    between atoms: N_5  and  C_12
REMARK    3  A    between atoms: N_6  and  C_15
REMARK    4  A    between atoms: C_12  and  C_16
REMARK    5  A    between atoms: C_15  and  C_17
REMARK    6  A    between atoms: C_24  and  C_27
REMARK                            x       y       z     vdW  Elec       q    Type
REMARK                         _______ _______ _______ _____ _____    ______ ____
ROOT
ATOM      1  O   UNL     1      -2.836   4.611  26.502  0.00  0.00    -0.364 OA
ATOM      2  O   UNL     1      -5.900   2.895  26.796  0.00  0.00    -0.273 OA
ATOM      5  N   UNL     1      -1.048   3.594  23.929  0.00  0.00    -0.294 NA
ATOM      6  N   UNL     1      -4.526   3.106  24.930  0.00  0.00    -0.288 N 
ATOM      8  C   UNL     1      -3.323   3.678  24.331  0.00  0.00    +0.120 C 
ATOM      9  C   UNL     1      -2.709   4.842  25.101  0.00  0.00    +0.154 C 
ATOM     10  C   UNL     1      -2.156   2.696  24.252  0.00  0.00    +0.110 C 
ATOM     11  C   UNL     1      -1.217   4.796  24.754  0.00  0.00    +0.118 C 
ATOM     13  C   UNL     1      -4.947   3.420  26.219  0.00  0.00    +0.242 C 
ATOM     14  C   UNL     1      -4.192   4.552  26.882  0.00  0.00    +0.256 C 
ENDROOT
BRANCH   5  12
ATOM     12  C   UNL     1       0.252   2.967  24.100  0.00  0.00    +0.119 C 
BRANCH  12  16
ATOM     16  C   UNL     1       0.135   1.485  24.331  0.00  0.00    -0.033 A 
ATOM     18  C   UNL     1      -0.511   1.006  25.471  0.00  0.00    +0.006 A 
ATOM     19  C   UNL     1       0.674   0.589  23.407  0.00  0.00    +0.006 A 
ATOM     22  C   UNL     1      -0.620  -0.368  25.686  0.00  0.00    +0.015 A 
ATOM     23  C   UNL     1       0.565  -0.784  23.622  0.00  0.00    +0.015 A 
ATOM     24  C   UNL     1      -0.082  -1.264  24.762  0.00  0.00    +0.059 A 
BRANCH  24  27
ATOM      4  O   UNL     1       0.521  -3.363  25.736  0.00  0.00    -0.245 OA
ATOM     27  C   UNL     1      -0.197  -2.696  24.984  0.00  0.00    +0.337 C 
BRANCH  27   3
ATOM      3  O   UNL     1      -1.204  -3.256  24.260  0.00  0.00    -0.477 OA
ATOM     28  H   UNL     1      -1.942  -3.558  24.833  0.00  0.00    +0.295 HD
ENDBRANCH  27   3
ENDBRANCH  24  27
ENDBRANCH  12  16
ENDBRANCH   5  12
BRANCH   6  15
ATOM     15  C   UNL     1      -5.237   2.098  24.154  0.00  0.00    +0.145 C 
BRANCH  15  17
ATOM      7  N   UNL     1      -4.026  -0.968  26.015  0.00  0.00    -0.263 NA
ATOM     17  C   UNL     1      -4.708   0.713  24.418  0.00  0.00    -0.012 A 
ATOM     20  C   UNL     1      -4.412  -0.151  23.370  0.00  0.00    +0.008 A 
ATOM     21  C   UNL     1      -4.500   0.261  25.711  0.00  0.00    +0.115 A 
ATOM     25  C   UNL     1      -3.923  -1.425  23.644  0.00  0.00    +0.020 A 
ATOM     26  C   UNL     1      -3.750  -1.781  24.972  0.00  0.00    +0.111 A 
ENDBRANCH  15  17
ENDBRANCH   6  15
TORSDOF 6
ENDMDL
MODEL 5
REMARK VINA RESULT:       0.1      3.380      7.312
REMARK  Name = 56775017
REMARK  6 active torsions:
REMARK  status: ('A' for Active; 'I' for Inactive)
REMARK    1  A    between atoms: O_3  and  C_27
REMARK    2  A    between atoms: N_5  and  C_12
REMARK    3  A    between atoms: N_6  and  C_15
REMARK    4  A    between atoms: C_12  and  C_16
REMARK    5  A    between atoms: C_15  and  C_17
REMARK    6  A    between atoms: C_24  and  C_27
REMARK                            x       y       z     vdW  Elec       q    Type
REMARK                         _______ _______ _______ _____ _____    ______ ____
ROOT
ATOM      1  O   UNL     1      -1.399  -2.381  24.522  0.00  0.00    -0.364 OA
ATOM      2  O   UNL     1      -4.909  -2.401  24.204  0.00  0.00    -0.273 OA
ATOM      5  N   UNL     1      -0.035   0.402  23.405  0.00  0.00    -0.294 NA
ATOM      6  N   UNL     1      -3.460  -0.581  24.204  0.00  0.00    -0.288 N 
ATOM      8  C   UNL     1      -2.095  -0.078  24.337  0.00  0.00    +0.120 C 
ATOM      9  C   UNL     1      -1.105  -1.057  24.960  0.00  0.00    +0.154 C 
ATOM     10  C   UNL     1      -1.431   0.241  23.000  0.00  0.00    +0.110 C 
ATOM     11  C   UNL     1       0.255  -0.663  24.374  0.00  0.00    +0.118 C 
ATOM     13  C   UNL     1      -3.791  -1.919  24.394  0.00  0.00    +0.242 C 
ATOM     14  C   UNL     1      -2.680  -2.782  24.951  0.00  0.00    +0.256 C 
ENDROOT
BRANCH   5  12
ATOM     12  C   UNL     1       0.882   0.406  22.277  0.00  0.00    +0.119 C 
BRANCH  12  16
ATOM     16  C   UNL     1       2.304   0.165  22.709  0.00  0.00    -0.033 A 
ATOM     18  C   UNL     1       3.245   1.191  22.612  0.00  0.00    +0.006 A 
ATOM     19  C   UNL     1       2.682  -1.082  23.204  0.00  0.00    +0.006 A 
ATOM     22  C   UNL     1       4.562   0.970  23.011  0.00  0.00    +0.015 A 
ATOM     23  C   UNL     1       4.000  -1.304  23.603  0.00  0.00    +0.015 A 
ATOM     24  C   UNL     1       4.940  -0.278  23.507  0.00  0.00    +0.059 A 
BRANCH  24  27
ATOM      4  O   UNL     1       7.319  -0.241  23.261  0.00  0.00    -0.245 OA
ATOM     27  C   UNL     1       6.313  -0.510  23.926  0.00  0.00    +0.337 C 
BRANCH  27   3
ATOM      3  O   UNL     1       6.393  -1.072  25.164  0.00  0.00    -0.477 OA
ATOM     28  H   UNL     1       5.589  -1.590  25.381  0.00  0.00    +0.295 HD
ENDBRANCH  27   3
ENDBRANCH  24  27
ENDBRANCH  12  16
ENDBRANCH   5  12
BRANCH   6  15
ATOM     15  C   UNL     1      -4.474   0.368  23.761  0.00  0.00    +0.145 C 
BRANCH  15  17
ATOM      7  N   UNL     1      -5.494   2.978  26.307  0.00  0.00    -0.263 NA
ATOM     17  C   UNL     1      -4.463   1.626  24.588  0.00  0.00    -0.012 A 
ATOM     20  C   UNL     1      -3.466   2.582  24.424  0.00  0.00    +0.008 A 
ATOM     21  C   UNL     1      -5.445   1.869  25.534  0.00  0.00    +0.115 A 
ATOM     25  C   UNL     1      -3.483   3.736  25.201  0.00  0.00    +0.020 A 
ATOM     26  C   UNL     1      -4.509   3.884  26.120  0.00  0.00    +0.111 A 
ENDBRANCH  15  17
ENDBRANCH   6  15
TORSDOF 6
ENDMDL
MODEL 6
REMARK VINA RESULT:       0.1      2.798      5.432
REMARK  Name = 56775017
REMARK  6 active torsions:
REMARK  status: ('A' for Active; 'I' for Inactive)
REMARK    1  A    between atoms: O_3  and  C_27
REMARK    2  A    between atoms: N_5  and  C_12
REMARK    3  A    between atoms: N_6  and  C_15
REMARK    4  A    between atoms: C_12  and  C_16
REMARK    5  A    between atoms: C_15  and  C_17
REMARK    6  A    between atoms: C_24  and  C_27
REMARK                            x       y       z     vdW  Elec       q    Type
REMARK                         _______ _______ _______ _____ _____    ______ ____
ROOT
ATOM      1  O   UNL     1      -4.276   3.974  25.019  0.00  0.00    -0.364 OA
ATOM      2  O   UNL     1      -6.382   1.866  26.901  0.00  0.00    -0.273 OA
ATOM      5  N   UNL     1      -2.557   2.343  22.730  0.00  0.00    -0.294 NA
ATOM      6  N   UNL     1      -5.430   1.482  24.812  0.00  0.00    -0.288 N 
ATOM      8  C   UNL     1      -4.622   1.982  23.703  0.00  0.00    +0.120 C 
ATOM      9  C   UNL     1      -4.416   3.493  23.685  0.00  0.00    +0.154 C 
ATOM     10  C   UNL     1      -3.186   1.463  23.715  0.00  0.00    +0.110 C 
ATOM     11  C   UNL     1      -3.076   3.695  22.971  0.00  0.00    +0.118 C 
ATOM     13  C   UNL     1      -5.781   2.270  25.903  0.00  0.00    +0.242 C 
ATOM     14  C   UNL     1      -5.448   3.740  25.766  0.00  0.00    +0.256 C 
ENDROOT
BRANCH   5  12
ATOM     12  C   UNL     1      -1.105   2.280  22.765  0.00  0.00    +0.119 C 
BRANCH  12  16
ATOM     16  C   UNL     1      -0.573   2.352  24.171  0.00  0.00    -0.033 A 
ATOM     18  C   UNL     1      -0.407   1.182  24.914  0.00  0.00    +0.006 A 
ATOM     19  C   UNL     1      -0.247   3.587  24.732  0.00  0.00    +0.006 A 
ATOM     22  C   UNL     1       0.086   1.248  26.217  0.00  0.00    +0.015 A 
ATOM     23  C   UNL     1       0.245   3.652  26.035  0.00  0.00    +0.015 A 
ATOM     24  C   UNL     1       0.412   2.483  26.778  0.00  0.00    +0.059 A 
BRANCH  24  27
ATOM      4  O   UNL     1       0.243   2.515  29.164  0.00  0.00    -0.245 OA
ATOM     27  C   UNL     1       0.927   2.553  28.136  0.00  0.00    +0.337 C 
BRANCH  27   3
ATOM      3  O   UNL     1       2.284   2.668  28.173  0.00  0.00    -0.477 OA
ATOM     28  H   UNL     1       2.727   1.801  28.050  0.00  0.00    +0.295 HD
ENDBRANCH  27   3
ENDBRANCH  24  27
ENDBRANCH  12  16
ENDBRANCH   5  12
BRANCH   6  15
ATOM     15  C   UNL     1      -5.786   0.068  24.788  0.00  0.00    +0.145 C 
BRANCH  15  17
ATOM      7  N   UNL     1      -3.278  -2.610  23.854  0.00  0.00    -0.263 NA
ATOM     17  C   UNL     1      -4.568  -0.816  24.835  0.00  0.00    -0.012 A 
ATOM     20  C   UNL     1      -3.630  -0.688  25.853  0.00  0.00    +0.008 A 
ATOM     21  C   UNL     1      -4.348  -1.783  23.868  0.00  0.00    +0.115 A 
ATOM     25  C   UNL     1      -2.515  -1.521  25.873  0.00  0.00    +0.020 A 
ATOM     26  C   UNL     1      -2.387  -2.456  24.859  0.00  0.00    +0.111 A 
ENDBRANCH  15  17
ENDBRANCH   6  15
TORSDOF 6
ENDMDL
MODEL 7
REMARK VINA RESULT:       0.6      2.610      5.302
REMARK  Name = 56775017
REMARK  6 active torsions:
REMARK  status: ('A' for Active; 'I' for Inactive)
REMARK    1  A    between atoms: O_3  and  C_27
REMARK    2  A    between atoms: N_5  and  C_12
REMARK    3  A    between atoms: N_6  and  C_15
REMARK    4  A    between atoms: C_12  and  C_16
REMARK    5  A    between atoms: C_15  and  C_17
REMARK    6  A    between atoms: C_24  and  C_27
REMARK                            x       y       z     vdW  Elec       q    Type
REMARK                         _______ _______ _______ _____ _____    ______ ____
ROOT
ATOM      1  O   UNL     1      -5.718   1.123  24.334  0.00  0.00    -0.364 OA
ATOM      2  O   UNL     1      -6.464   4.231  25.817  0.00  0.00    -0.273 OA
ATOM      5  N   UNL     1      -2.481   0.625  23.977  0.00  0.00    -0.294 NA
ATOM      6  N   UNL     1      -4.466   3.039  25.866  0.00  0.00    -0.288 N 
ATOM      8  C   UNL     1      -3.730   1.831  25.504  0.00  0.00    +0.120 C 
ATOM      9  C   UNL     1      -4.598   0.651  25.077  0.00  0.00    +0.154 C 
ATOM     10  C   UNL     1      -2.820   2.013  24.291  0.00  0.00    +0.110 C 
ATOM     11  C   UNL     1      -3.713  -0.160  24.125  0.00  0.00    +0.118 C 
ATOM     13  C   UNL     1      -5.825   3.198  25.612  0.00  0.00    +0.242 C 
ATOM     14  C   UNL     1      -6.536   1.954  25.126  0.00  0.00    +0.256 C 
ENDROOT
BRANCH   5  12
ATOM     12  C   UNL     1      -1.869   0.477  22.667  0.00  0.00    +0.119 C 
BRANCH  12  16
ATOM     16  C   UNL     1      -0.370   0.376  22.756  0.00  0.00    -0.033 A 
ATOM     18  C   UNL     1       0.333  -0.383  21.820  0.00  0.00    +0.006 A 
ATOM     19  C   UNL     1       0.315   1.040  23.773  0.00  0.00    +0.006 A 
ATOM     22  C   UNL     1       1.722  -0.478  21.902  0.00  0.00    +0.015 A 
ATOM     23  C   UNL     1       1.704   0.945  23.854  0.00  0.00    +0.015 A 
ATOM     24  C   UNL     1       2.409   0.187  22.919  0.00  0.00    +0.059 A 
BRANCH  24  27
ATOM      4  O   UNL     1       4.659   0.859  22.462  0.00  0.00    -0.245 OA
ATOM     27  C   UNL     1       3.857   0.090  23.004  0.00  0.00    +0.337 C 
BRANCH  27   3
ATOM      3  O   UNL     1       4.265  -0.965  23.762  0.00  0.00    -0.477 OA
ATOM     28  H   UNL     1       5.217  -0.903  23.990  0.00  0.00    +0.295 HD
ENDBRANCH  27   3
ENDBRANCH  24  27
ENDBRANCH  12  16
ENDBRANCH   5  12
BRANCH   6  15
ATOM     15  C   UNL     1      -3.694   4.140  26.428  0.00  0.00    +0.145 C 
BRANCH  15  17
ATOM      7  N   UNL     1      -0.062   3.148  26.041  0.00  0.00    -0.263 NA
ATOM     17  C   UNL     1      -2.268   4.129  25.944  0.00  0.00    -0.012 A 
ATOM     20  C   UNL     1      -1.828   5.043  24.993  0.00  0.00    +0.008 A 
ATOM     21  C   UNL     1      -1.354   3.210  26.432  0.00  0.00    +0.115 A 
ATOM     25  C   UNL     1      -0.505   5.010  24.566  0.00  0.00    +0.020 A 
ATOM     26  C   UNL     1       0.330   4.051  25.116  0.00  0.00    +0.111 A 
ENDBRANCH  15  17
ENDBRANCH   6  15
TORSDOF 6
ENDMDL
MODEL 8
REMARK VINA RESULT:       0.7      2.008      5.920
REMARK  Name = 56775017
REMARK  6 active torsions:
REMARK  status: ('A' for Active; 'I' for Inactive)
REMARK    1  A    between atoms: O_3  and  C_27
REMARK    2  A    between atoms: N_5  and  C_12
REMARK    3  A    between atoms: N_6  and  C_15
REMARK    4  A    between atoms: C_12  and  C_16
REMARK    5  A    between atoms: C_15  and  C_17
REMARK    6  A    between atoms: C_24  and  C_27
REMARK                            x       y       z     vdW  Elec       q    Type
REMARK                         _______ _______ _______ _____ _____    ______ ____
ROOT
ATOM      1  O   UNL     1       1.089   0.368  22.313  0.00  0.00    -0.364 OA
ATOM      2  O   UNL     1      -0.627  -2.672  22.796  0.00  0.00    -0.273 OA
ATOM      5  N   UNL     1       0.441   2.585  24.663  0.00  0.00    -0.294 NA
ATOM      6  N   UNL     1      -0.158  -1.004  24.350  0.00  0.00    -0.288 N 
ATOM      8  C   UNL     1       0.485   0.273  24.647  0.00  0.00    +0.120 C 
ATOM      9  C   UNL     1       1.520   0.728  23.623  0.00  0.00    +0.154 C 
ATOM     10  C   UNL     1      -0.485   1.453  24.667  0.00  0.00    +0.110 C 
ATOM     11  C   UNL     1       1.513   2.257  23.714  0.00  0.00    +0.118 C 
ATOM     13  C   UNL     1      -0.031  -1.643  23.120  0.00  0.00    +0.242 C 
ATOM     14  C   UNL     1       0.986  -1.031  22.182  0.00  0.00    +0.256 C 
ENDROOT
BRANCH   5  12
ATOM     12  C   UNL     1      -0.214   3.848  24.365  0.00  0.00    +0.119 C 
BRANCH  12  16
ATOM     16  C   UNL     1      -1.680   3.812  24.700  0.00  0.00    -0.033 A 
ATOM     18  C   UNL     1      -2.112   4.165  25.979  0.00  0.00    +0.006 A 
ATOM     19  C   UNL     1      -2.609   3.425  23.733  0.00  0.00    +0.006 A 
ATOM     22  C   UNL     1      -3.471   4.132  26.291  0.00  0.00    +0.015 A 
ATOM     23  C   UNL     1      -3.968   3.392  24.045  0.00  0.00    +0.015 A 
ATOM     24  C   UNL     1      -4.399   3.746  25.324  0.00  0.00    +0.059 A 
BRANCH  24  27
ATOM      4  O   UNL     1      -6.554   4.701  25.735  0.00  0.00    -0.245 OA
ATOM     27  C   UNL     1      -5.816   3.713  25.647  0.00  0.00    +0.337 C 
BRANCH  27   3
ATOM      3  O   UNL     1      -6.274   2.448  25.853  0.00  0.00    -0.477 OA
ATOM     28  H   UNL     1      -7.192   2.443  26.201  0.00  0.00    +0.295 HD
ENDBRANCH  27   3
ENDBRANCH  24  27
ENDBRANCH  12  16
ENDBRANCH   5  12
BRANCH   6  15
ATOM     15  C   UNL     1      -1.038  -1.556  25.373  0.00  0.00    +0.145 C 
BRANCH  15  17
ATOM      7  N   UNL     1      -4.435   0.110  25.258  0.00  0.00    -0.263 NA
ATOM     17  C   UNL     1      -2.489  -1.310  25.056  0.00  0.00    -0.012 A 
ATOM     20  C   UNL     1      -3.222  -2.221  24.304  0.00  0.00    +0.008 A 
ATOM     21  C   UNL     1      -3.135  -0.170  25.505  0.00  0.00    +0.115 A 
ATOM     25  C   UNL     1      -4.562  -1.967  24.029  0.00  0.00    +0.020 A 
ATOM     26  C   UNL     1      -5.115  -0.797  24.524  0.00  0.00    +0.111 A 
ENDBRANCH  15  17
ENDBRANCH   6  15
TORSDOF 6
ENDMDL
MODEL 9
REMARK VINA RESULT:       1.5      1.694      5.894
REMARK  Name = 56775017
REMARK  6 active torsions:
REMARK  status: ('A' for Active; 'I' for Inactive)
REMARK    1  A    between atoms: O_3  and  C_27
REMARK    2  A    between atoms: N_5  and  C_12
REMARK    3  A    between atoms: N_6  and  C_15
REMARK    4  A    between atoms: C_12  and  C_16
REMARK    5  A    between atoms: C_15  and  C_17
REMARK    6  A    between atoms: C_24  and  C_27
REMARK                            x       y       z     vdW  Elec       q    Type
REMARK                         _______ _______ _______ _____ _____    ______ ____
ROOT
ATOM      1  O   UNL     1      -3.652  -2.560  25.672  0.00  0.00    -0.364 OA
ATOM      2  O   UNL     1      -0.157  -3.011  25.677  0.00  0.00    -0.273 OA
ATOM      5  N   UNL     1      -4.595   0.077  23.937  0.00  0.00    -0.294 NA
ATOM      6  N   UNL     1      -1.463  -1.783  24.192  0.00  0.00    -0.288 N 
ATOM      8  C   UNL     1      -2.793  -1.361  23.762  0.00  0.00    +0.120 C 
ATOM      9  C   UNL     1      -3.945  -2.185  24.329  0.00  0.00    +0.154 C 
ATOM     10  C   UNL     1      -3.158   0.051  24.213  0.00  0.00    +0.110 C 
ATOM     11  C   UNL     1      -5.135  -1.220  24.362  0.00  0.00    +0.118 C 
ATOM     13  C   UNL     1      -1.258  -2.696  25.222  0.00  0.00    +0.242 C 
ATOM     14  C   UNL     1      -2.509  -3.382  25.728  0.00  0.00    +0.256 C 
ENDROOT
BRANCH   5  12
ATOM     12  C   UNL     1      -5.268   1.203  24.562  0.00  0.00    +0.119 C 
BRANCH  12  16
ATOM     16  C   UNL     1      -4.354   2.389  24.715  0.00  0.00    -0.033 A 
ATOM     18  C   UNL     1      -3.603   2.835  23.627  0.00  0.00    +0.006 A 
ATOM     19  C   UNL     1      -4.257   3.042  25.943  0.00  0.00    +0.006 A 
ATOM     22  C   UNL     1      -2.755   3.933  23.768  0.00  0.00    +0.015 A 
ATOM     23  C   UNL     1      -3.409   4.141  26.085  0.00  0.00    +0.015 A 
ATOM     24  C   UNL     1      -2.658   4.587  24.997  0.00  0.00    +0.059 A 
BRANCH  24  27
ATOM      4  O   UNL     1      -2.124   6.861  25.510  0.00  0.00    -0.245 OA
ATOM     27  C   UNL     1      -1.776   5.733  25.144  0.00  0.00    +0.337 C 
BRANCH  27   3
ATOM      3  O   UNL     1      -0.484   5.440  24.830  0.00  0.00    -0.477 OA
ATOM     28  H   UNL     1      -0.104   6.092  24.203  0.00  0.00    +0.295 HD
ENDBRANCH  27   3
ENDBRANCH  24  27
ENDBRANCH  12  16
ENDBRANCH   5  12
BRANCH   6  15
ATOM     15  C   UNL     1      -0.324  -1.130  23.558  0.00  0.00    +0.145 C 
BRANCH  15  17
ATOM      7  N   UNL     1       1.086   2.352  24.027  0.00  0.00    -0.263 NA
ATOM     17  C   UNL     1      -0.045   0.220  24.165  0.00  0.00    -0.012 A 
ATOM     20  C   UNL     1      -0.618   0.594  25.375  0.00  0.00    +0.008 A 
ATOM     21  C   UNL     1       0.793   1.126  23.536  0.00  0.00    +0.115 A 
ATOM     25  C   UNL     1      -0.340   1.846  25.912  0.00  0.00    +0.020 A 
ATOM     26  C   UNL     1       0.511   2.681  25.204  0.00  0.00    +0.111 A 
ENDBRANCH  15  17
ENDBRANCH   6  15
TORSDOF 6
ENDMDL
