MODEL 1
REMARK VINA RESULT:      -1.9      0.000      0.000
REMARK  Name = 44716918
REMARK  14 active torsions:
REMARK  status: ('A' for Active; 'I' for Inactive)
REMARK    1  A    between atoms: O_2  and  C_15
REMARK    2  A    between atoms: O_2  and  C_24
REMARK    3  A    between atoms: O_3  and  C_16
REMARK    4  A    between atoms: O_4  and  C_20
REMARK    5  A    between atoms: N_7  and  C_25
REMARK    6  A    between atoms: N_8  and  C_26
REMARK    7  A    between atoms: C_9  and  C_19
REMARK    8  A    between atoms: C_11  and  C_20
REMARK    9  A    between atoms: C_11  and  C_21
REMARK   10  A    between atoms: C_12  and  C_22
REMARK   11  A    between atoms: C_22  and  C_23
REMARK   12  A    between atoms: C_25  and  C_27
REMARK   13  A    between atoms: C_26  and  C_28
REMARK   14  A    between atoms: C_28  and  C_31
REMARK                            x       y       z     vdW  Elec       q    Type
REMARK                         _______ _______ _______ _____ _____    ______ ____
ROOT
ATOM      9  C   UNL     1      -3.416   2.908  24.589  0.00  0.00    -0.023 C 
ATOM     10  C   UNL     1      -2.245   3.248  25.590  0.00  0.00    +0.007 C 
ATOM     11  C   UNL     1      -0.789   3.293  24.987  0.00  0.00    +0.031 C 
ATOM     12  C   UNL     1      -4.701   2.608  25.465  0.00  0.00    +0.032 C 
ATOM     13  C   UNL     1      -3.029   1.631  23.796  0.00  0.00    +0.011 C 
ATOM     14  C   UNL     1      -2.612   4.458  26.477  0.00  0.00    +0.007 C 
ATOM     15  C   UNL     1      -0.550   1.999  24.151  0.00  0.00    +0.186 C 
ATOM     16  C   UNL     1      -5.064   3.754  26.439  0.00  0.00    +0.119 C 
ATOM     17  C   UNL     1      -1.654   1.706  23.141  0.00  0.00    +0.046 C 
ATOM     18  C   UNL     1      -3.876   4.185  27.293  0.00  0.00    +0.032 C 
ATOM     19  C   UNL     1      -3.705   4.036  23.567  0.00  0.00    +0.012 C 
ATOM     21  C   UNL     1       0.244   3.291  26.152  0.00  0.00    +0.017 C 
ENDROOT
BRANCH  16   3
ATOM      3  O   UNL     1      -5.581   4.877  25.732  0.00  0.00    -0.391 OA
ATOM     35  H   UNL     1      -6.415   4.604  25.313  0.00  0.00    +0.210 HD
ENDBRANCH  16   3
BRANCH  15   2
ATOM      2  O   UNL     1       0.678   2.056  23.424  0.00  0.00    -0.446 OA
BRANCH   2  24
ATOM      6  O   UNL     1       0.775  -0.231  23.245  0.00  0.00    -0.226 OA
ATOM      8  N   UNL     1       2.676   1.087  23.076  0.00  0.00    -0.281 N 
ATOM     24  C   UNL     1       1.326   0.864  23.248  0.00  0.00    +0.401 C 
ATOM     38  H   UNL     1       3.009   2.046  23.096  0.00  0.00    +0.152 HD
BRANCH   8  26
ATOM     26  C   UNL     1       3.642   0.033  22.865  0.00  0.00    +0.107 C 
BRANCH  26  28
ATOM     28  C   UNL     1       5.028   0.403  23.380  0.00  0.00    +0.015 C 
ATOM     31  C   UNL     1       5.633  -0.676  24.268  0.00  0.00    +0.005 C 
ENDBRANCH  26  28
ENDBRANCH   8  26
ENDBRANCH   2  24
ENDBRANCH  15   2
BRANCH  11  20
ATOM     20  C   UNL     1      -0.487   4.560  24.162  0.00  0.00    +0.166 C 
BRANCH  20   4
ATOM      4  O   UNL     1      -0.863   5.680  24.933  0.00  0.00    -0.394 OA
ATOM     36  H   UNL     1      -0.325   6.433  24.632  0.00  0.00    +0.209 HD
ENDBRANCH  20   4
ENDBRANCH  11  20
BRANCH  12  22
ATOM     22  C   UNL     1      -5.946   2.190  24.665  0.00  0.00    +0.102 C 
BRANCH  22  23
ATOM      5  O   UNL     1      -6.955   0.106  23.963  0.00  0.00    -0.276 OA
ATOM      7  N   UNL     1      -4.769   0.115  24.751  0.00  0.00    -0.311 N 
ATOM     23  C   UNL     1      -5.979   0.702  24.410  0.00  0.00    +0.214 C 
ATOM     37  H   UNL     1      -4.029   0.686  25.147  0.00  0.00    +0.149 HD
BRANCH   7  25
ATOM     25  C   UNL     1      -4.513  -1.301  24.615  0.00  0.00    +0.139 C 
BRANCH  25  27
ATOM      1  F   UNL     1       0.867  -2.577  25.682  0.00  0.00    -0.205 F 
ATOM     27  C   UNL     1      -3.078  -1.642  24.899  0.00  0.00    -0.030 A 
ATOM     29  C   UNL     1      -2.474  -2.716  24.247  0.00  0.00    +0.008 A 
ATOM     30  C   UNL     1      -2.350  -0.883  25.816  0.00  0.00    +0.008 A 
ATOM     32  C   UNL     1      -1.141  -3.033  24.512  0.00  0.00    +0.038 A 
ATOM     33  C   UNL     1      -1.018  -1.200  26.082  0.00  0.00    +0.038 A 
ATOM     34  C   UNL     1      -0.413  -2.275  25.430  0.00  0.00    +0.123 A 
ENDBRANCH  25  27
ENDBRANCH   7  25
ENDBRANCH  22  23
ENDBRANCH  12  22
TORSDOF 11
ENDMDL
MODEL 2
REMARK VINA RESULT:       1.1      1.933      5.599
REMARK  Name = 44716918
REMARK  14 active torsions:
REMARK  status: ('A' for Active; 'I' for Inactive)
REMARK    1  A    between atoms: O_2  and  C_15
REMARK    2  A    between atoms: O_2  and  C_24
REMARK    3  A    between atoms: O_3  and  C_16
REMARK    4  A    between atoms: O_4  and  C_20
REMARK    5  A    between atoms: N_7  and  C_25
REMARK    6  A    between atoms: N_8  and  C_26
REMARK    7  A    between atoms: C_9  and  C_19
REMARK    8  A    between atoms: C_11  and  C_20
REMARK    9  A    between atoms: C_11  and  C_21
REMARK   10  A    between atoms: C_12  and  C_22
REMARK   11  A    between atoms: C_22  and  C_23
REMARK   12  A    between atoms: C_25  and  C_27
REMARK   13  A    between atoms: C_26  and  C_28
REMARK   14  A    between atoms: C_28  and  C_31
REMARK                            x       y       z     vdW  Elec       q    Type
REMARK                         _______ _______ _______ _____ _____    ______ ____
ROOT
ATOM      9  C   UNL     1      -2.371   2.503  24.515  0.00  0.00    -0.023 C 
ATOM     10  C   UNL     1      -3.919   2.791  24.416  0.00  0.00    +0.007 C 
ATOM     11  C   UNL     1      -4.885   1.578  24.700  0.00  0.00    +0.031 C 
ATOM     12  C   UNL     1      -1.626   3.752  23.886  0.00  0.00    +0.032 C 
ATOM     13  C   UNL     1      -2.052   1.239  23.672  0.00  0.00    +0.011 C 
ATOM     14  C   UNL     1      -4.286   4.094  25.159  0.00  0.00    +0.007 C 
ATOM     15  C   UNL     1      -4.415   0.353  23.859  0.00  0.00    +0.186 C 
ATOM     16  C   UNL     1      -2.024   5.098  24.536  0.00  0.00    +0.119 C 
ATOM     17  C   UNL     1      -2.930   0.039  24.005  0.00  0.00    +0.046 C 
ATOM     18  C   UNL     1      -3.536   5.294  24.579  0.00  0.00    +0.032 C 
ATOM     19  C   UNL     1      -1.880   2.248  25.962  0.00  0.00    +0.012 C 
ATOM     21  C   UNL     1      -6.320   1.948  24.221  0.00  0.00    +0.017 C 
ENDROOT
BRANCH  16   3
ATOM      3  O   UNL     1      -1.487   5.206  25.850  0.00  0.00    -0.391 OA
ATOM     35  H   UNL     1      -2.096   5.752  26.375  0.00  0.00    +0.210 HD
ENDBRANCH  16   3
BRANCH  15   2
ATOM      2  O   UNL     1      -5.130  -0.834  24.205  0.00  0.00    -0.446 OA
BRANCH   2  24
ATOM      6  O   UNL     1      -4.535  -2.863  23.310  0.00  0.00    -0.226 OA
ATOM      8  N   UNL     1      -3.541  -2.043  25.238  0.00  0.00    -0.281 N 
ATOM     24  C   UNL     1      -4.412  -1.998  24.170  0.00  0.00    +0.401 C 
ATOM     38  H   UNL     1      -3.533  -1.257  25.881  0.00  0.00    +0.152 HD
BRANCH   8  26
ATOM     26  C   UNL     1      -2.637  -3.141  25.491  0.00  0.00    +0.107 C 
BRANCH  26  28
ATOM     28  C   UNL     1      -1.281  -2.942  24.826  0.00  0.00    +0.015 C 
ATOM     31  C   UNL     1      -0.469  -1.825  25.467  0.00  0.00    +0.005 C 
ENDBRANCH  26  28
ENDBRANCH   8  26
ENDBRANCH   2  24
ENDBRANCH  15   2
BRANCH  11  20
ATOM     20  C   UNL     1      -5.021   1.217  26.192  0.00  0.00    +0.166 C 
BRANCH  20   4
ATOM      4  O   UNL     1      -6.171   1.864  26.692  0.00  0.00    -0.394 OA
ATOM     36  H   UNL     1      -6.918   1.609  26.123  0.00  0.00    +0.209 HD
ENDBRANCH  20   4
ENDBRANCH  11  20
BRANCH  12  22
ATOM     22  C   UNL     1      -0.094   3.631  23.833  0.00  0.00    +0.102 C 
BRANCH  22  23
ATOM      5  O   UNL     1       0.554   1.836  25.322  0.00  0.00    -0.276 OA
ATOM      7  N   UNL     1       0.570   1.485  23.025  0.00  0.00    -0.311 N 
ATOM     23  C   UNL     1       0.374   2.236  24.175  0.00  0.00    +0.214 C 
ATOM     37  H   UNL     1       0.427   1.914  22.115  0.00  0.00    +0.149 HD
BRANCH   7  25
ATOM     25  C   UNL     1       1.020   0.111  23.046  0.00  0.00    +0.139 C 
BRANCH  25  27
ATOM      1  F   UNL     1       6.622  -0.263  23.473  0.00  0.00    -0.205 F 
ATOM     27  C   UNL     1       2.514   0.011  23.160  0.00  0.00    -0.030 A 
ATOM     29  C   UNL     1       3.099  -1.152  23.659  0.00  0.00    +0.008 A 
ATOM     30  C   UNL     1       3.317   1.082  22.767  0.00  0.00    +0.008 A 
ATOM     32  C   UNL     1       4.487  -1.245  23.766  0.00  0.00    +0.038 A 
ATOM     33  C   UNL     1       4.704   0.990  22.874  0.00  0.00    +0.038 A 
ATOM     34  C   UNL     1       5.289  -0.174  23.373  0.00  0.00    +0.123 A 
ENDBRANCH  25  27
ENDBRANCH   7  25
ENDBRANCH  22  23
ENDBRANCH  12  22
TORSDOF 11
ENDMDL
MODEL 3
REMARK VINA RESULT:       1.3      2.212      6.178
REMARK  Name = 44716918
REMARK  14 active torsions:
REMARK  status: ('A' for Active; 'I' for Inactive)
REMARK    1  A    between atoms: O_2  and  C_15
REMARK    2  A    between atoms: O_2  and  C_24
REMARK    3  A    between atoms: O_3  and  C_16
REMARK    4  A    between atoms: O_4  and  C_20
REMARK    5  A    between atoms: N_7  and  C_25
REMARK    6  A    between atoms: N_8  and  C_26
REMARK    7  A    between atoms: C_9  and  C_19
REMARK    8  A    between atoms: C_11  and  C_20
REMARK    9  A    between atoms: C_11  and  C_21
REMARK   10  A    between atoms: C_12  and  C_22
REMARK   11  A    between atoms: C_22  and  C_23
REMARK   12  A    between atoms: C_25  and  C_27
REMARK   13  A    between atoms: C_26  and  C_28
REMARK   14  A    between atoms: C_28  and  C_31
REMARK                            x       y       z     vdW  Elec       q    Type
REMARK                         _______ _______ _______ _____ _____    ______ ____
ROOT
ATOM      9  C   UNL     1      -2.531   0.055  24.923  0.00  0.00    -0.023 C 
ATOM     10  C   UNL     1      -4.107   0.090  24.961  0.00  0.00    +0.007 C 
ATOM     11  C   UNL     1      -4.787   1.508  24.843  0.00  0.00    +0.031 C 
ATOM     12  C   UNL     1      -2.089  -1.399  25.375  0.00  0.00    +0.032 C 
ATOM     13  C   UNL     1      -1.992   1.093  25.944  0.00  0.00    +0.011 C 
ATOM     14  C   UNL     1      -4.705  -0.990  24.032  0.00  0.00    +0.007 C 
ATOM     15  C   UNL     1      -4.109   2.477  25.858  0.00  0.00    +0.186 C 
ATOM     16  C   UNL     1      -2.730  -2.526  24.532  0.00  0.00    +0.119 C 
ATOM     17  C   UNL     1      -2.587   2.487  25.778  0.00  0.00    +0.046 C 
ATOM     18  C   UNL     1      -4.247  -2.390  24.442  0.00  0.00    +0.032 C 
ATOM     19  C   UNL     1      -1.936   0.398  23.535  0.00  0.00    +0.012 C 
ATOM     21  C   UNL     1      -6.286   1.388  25.245  0.00  0.00    +0.017 C 
ENDROOT
BRANCH  16   3
ATOM      3  O   UNL     1      -2.171  -2.563  23.223  0.00  0.00    -0.391 OA
ATOM     35  H   UNL     1      -1.472  -1.889  23.181  0.00  0.00    +0.210 HD
ENDBRANCH  16   3
BRANCH  15   2
ATOM      2  O   UNL     1      -4.546   3.824  25.678  0.00  0.00    -0.446 OA
BRANCH   2  24
ATOM      6  O   UNL     1      -3.607   5.513  26.919  0.00  0.00    -0.226 OA
ATOM      8  N   UNL     1      -2.698   4.836  24.896  0.00  0.00    -0.281 N 
ATOM     24  C   UNL     1      -3.614   4.795  25.925  0.00  0.00    +0.401 C 
ATOM     38  H   UNL     1      -2.812   4.182  24.127  0.00  0.00    +0.152 HD
BRANCH   8  26
ATOM     26  C   UNL     1      -1.582   5.754  24.852  0.00  0.00    +0.107 C 
BRANCH  26  28
ATOM     28  C   UNL     1      -0.239   5.034  24.823  0.00  0.00    +0.015 C 
ATOM     31  C   UNL     1      -0.253   3.798  23.933  0.00  0.00    +0.005 C 
ENDBRANCH  26  28
ENDBRANCH   8  26
ENDBRANCH   2  24
ENDBRANCH  15   2
BRANCH  11  20
ATOM     20  C   UNL     1      -4.781   2.093  23.416  0.00  0.00    +0.166 C 
BRANCH  20   4
ATOM      4  O   UNL     1      -3.558   2.772  23.231  0.00  0.00    -0.394 OA
ATOM     36  H   UNL     1      -3.654   3.330  22.441  0.00  0.00    +0.209 HD
ENDBRANCH  20   4
ENDBRANCH  11  20
BRANCH  12  22
ATOM     22  C   UNL     1      -0.569  -1.614  25.464  0.00  0.00    +0.102 C 
BRANCH  22  23
ATOM      5  O   UNL     1       0.382   0.576  25.069  0.00  0.00    -0.276 OA
ATOM      7  N   UNL     1       0.642  -1.094  23.474  0.00  0.00    -0.311 N 
ATOM     23  C   UNL     1       0.194  -0.573  24.679  0.00  0.00    +0.214 C 
ATOM     37  H   UNL     1       0.407  -2.050  23.223  0.00  0.00    +0.149 HD
BRANCH   7  25
ATOM     25  C   UNL     1       1.401  -0.324  22.515  0.00  0.00    +0.139 C 
BRANCH  25  27
ATOM      1  F   UNL     1       6.827   0.083  23.963  0.00  0.00    -0.205 F 
ATOM     27  C   UNL     1       2.848  -0.215  22.901  0.00  0.00    -0.030 A 
ATOM     29  C   UNL     1       3.491  -1.295  23.506  0.00  0.00    +0.008 A 
ATOM     30  C   UNL     1       3.550   0.965  22.655  0.00  0.00    +0.008 A 
ATOM     32  C   UNL     1       4.836  -1.194  23.866  0.00  0.00    +0.038 A 
ATOM     33  C   UNL     1       4.893   1.067  23.014  0.00  0.00    +0.038 A 
ATOM     34  C   UNL     1       5.536  -0.013  23.620  0.00  0.00    +0.123 A 
ENDBRANCH  25  27
ENDBRANCH   7  25
ENDBRANCH  22  23
ENDBRANCH  12  22
TORSDOF 11
ENDMDL
MODEL 4
REMARK VINA RESULT:       1.5      2.225      5.086
REMARK  Name = 44716918
REMARK  14 active torsions:
REMARK  status: ('A' for Active; 'I' for Inactive)
REMARK    1  A    between atoms: O_2  and  C_15
REMARK    2  A    between atoms: O_2  and  C_24
REMARK    3  A    between atoms: O_3  and  C_16
REMARK    4  A    between atoms: O_4  and  C_20
REMARK    5  A    between atoms: N_7  and  C_25
REMARK    6  A    between atoms: N_8  and  C_26
REMARK    7  A    between atoms: C_9  and  C_19
REMARK    8  A    between atoms: C_11  and  C_20
REMARK    9  A    between atoms: C_11  and  C_21
REMARK   10  A    between atoms: C_12  and  C_22
REMARK   11  A    between atoms: C_22  and  C_23
REMARK   12  A    between atoms: C_25  and  C_27
REMARK   13  A    between atoms: C_26  and  C_28
REMARK   14  A    between atoms: C_28  and  C_31
REMARK                            x       y       z     vdW  Elec       q    Type
REMARK                         _______ _______ _______ _____ _____    ______ ____
ROOT
ATOM      9  C   UNL     1      -2.316  -0.430  24.554  0.00  0.00    -0.023 C 
ATOM     10  C   UNL     1      -1.245  -1.243  23.730  0.00  0.00    +0.007 C 
ATOM     11  C   UNL     1       0.232  -0.692  23.750  0.00  0.00    +0.031 C 
ATOM     12  C   UNL     1      -3.742  -0.976  24.126  0.00  0.00    +0.032 C 
ATOM     13  C   UNL     1      -2.204   1.068  24.163  0.00  0.00    +0.011 C 
ATOM     14  C   UNL     1      -1.370  -2.758  24.007  0.00  0.00    +0.007 C 
ATOM     15  C   UNL     1       0.204   0.832  23.420  0.00  0.00    +0.186 C 
ATOM     16  C   UNL     1      -3.893  -2.506  24.300  0.00  0.00    +0.119 C 
ATOM     17  C   UNL     1      -0.789   1.626  24.262  0.00  0.00    +0.046 C 
ATOM     18  C   UNL     1      -2.759  -3.278  23.632  0.00  0.00    +0.032 C 
ATOM     19  C   UNL     1      -2.131  -0.538  26.088  0.00  0.00    +0.012 C 
ATOM     21  C   UNL     1       1.052  -1.395  22.629  0.00  0.00    +0.017 C 
ENDROOT
BRANCH  16   3
ATOM      3  O   UNL     1      -3.968  -2.856  25.678  0.00  0.00    -0.391 OA
ATOM     35  H   UNL     1      -3.405  -2.236  26.172  0.00  0.00    +0.210 HD
ENDBRANCH  16   3
BRANCH  15   2
ATOM      2  O   UNL     1       1.485   1.437  23.602  0.00  0.00    -0.446 OA
BRANCH   2  24
ATOM      6  O   UNL     1       2.375   0.329  21.798  0.00  0.00    -0.226 OA
ATOM      8  N   UNL     1       3.705   1.088  23.541  0.00  0.00    -0.281 N 
ATOM     24  C   UNL     1       2.512   0.896  22.877  0.00  0.00    +0.401 C 
ATOM     38  H   UNL     1       3.684   1.579  24.429  0.00  0.00    +0.152 HD
BRANCH   8  26
ATOM     26  C   UNL     1       4.983   0.636  23.040  0.00  0.00    +0.107 C 
BRANCH  26  28
ATOM     28  C   UNL     1       5.592  -0.459  23.908  0.00  0.00    +0.015 C 
ATOM     31  C   UNL     1       4.736  -1.717  23.955  0.00  0.00    +0.005 C 
ENDBRANCH  26  28
ENDBRANCH   8  26
ENDBRANCH   2  24
ENDBRANCH  15   2
BRANCH  11  20
ATOM     20  C   UNL     1       0.991  -0.970  25.062  0.00  0.00    +0.166 C 
BRANCH  20   4
ATOM      4  O   UNL     1       0.538  -2.206  25.571  0.00  0.00    -0.394 OA
ATOM     36  H   UNL     1      -0.261  -2.028  26.096  0.00  0.00    +0.209 HD
ENDBRANCH  20   4
ENDBRANCH  11  20
BRANCH  12  22
ATOM     22  C   UNL     1      -4.932  -0.257  24.782  0.00  0.00    +0.102 C 
BRANCH  22  23
ATOM      5  O   UNL     1      -4.575   1.749  23.475  0.00  0.00    -0.276 OA
ATOM      7  N   UNL     1      -5.250   1.927  25.691  0.00  0.00    -0.311 N 
ATOM     23  C   UNL     1      -4.891   1.234  24.545  0.00  0.00    +0.214 C 
ATOM     37  H   UNL     1      -5.463   1.414  26.541  0.00  0.00    +0.149 HD
BRANCH   7  25
ATOM     25  C   UNL     1      -5.298   3.371  25.759  0.00  0.00    +0.139 C 
BRANCH  25  27
ATOM      1  F   UNL     1      -0.251   5.689  24.832  0.00  0.00    -0.205 F 
ATOM     27  C   UNL     1      -3.952   3.989  25.511  0.00  0.00    -0.030 A 
ATOM     29  C   UNL     1      -3.743   4.774  24.378  0.00  0.00    +0.008 A 
ATOM     30  C   UNL     1      -2.910   3.778  26.415  0.00  0.00    +0.008 A 
ATOM     32  C   UNL     1      -2.492   5.348  24.147  0.00  0.00    +0.038 A 
ATOM     33  C   UNL     1      -1.661   4.351  26.185  0.00  0.00    +0.038 A 
ATOM     34  C   UNL     1      -1.451   5.136  25.051  0.00  0.00    +0.123 A 
ENDBRANCH  25  27
ENDBRANCH   7  25
ENDBRANCH  22  23
ENDBRANCH  12  22
TORSDOF 11
ENDMDL
