MODEL 1
REMARK VINA RESULT:      -1.6      0.000      0.000
REMARK  Name = 45783597
REMARK  8 active torsions:
REMARK  status: ('A' for Active; 'I' for Inactive)
REMARK    1  A    between atoms: S_1  and  N_9
REMARK    2  A    between atoms: S_1  and  C_30
REMARK    3  A    between atoms: O_3  and  C_24
REMARK    4  A    between atoms: O_3  and  C_29
REMARK    5  A    between atoms: N_6  and  C_15
REMARK    6  A    between atoms: C_11  and  C_16
REMARK    7  A    between atoms: C_15  and  C_17
REMARK    8  A    between atoms: C_20  and  C_23
REMARK                            x       y       z     vdW  Elec       q    Type
REMARK                         _______ _______ _______ _____ _____    ______ ____
ROOT
ATOM      2  O   UNL     1      -0.662   2.732  25.780  0.00  0.00    -0.336 OA
ATOM      7  N   UNL     1      -1.085   2.225  23.640  0.00  0.00    -0.190 NA
ATOM      8  N   UNL     1       0.429   1.972  25.337  0.00  0.00    -0.056 NA
ATOM     16  C   UNL     1      -1.506   2.833  24.720  0.00  0.00    +0.245 A 
ATOM     20  C   UNL     1       0.105   1.712  24.067  0.00  0.00    +0.202 A 
ENDROOT
BRANCH  20  23
ATOM      9  N   UNL     1       4.510   0.539  22.315  0.00  0.00    -0.204 N 
ATOM     10  N   UNL     1       2.586  -0.561  21.504  0.00  0.00    -0.239 NA
ATOM     23  C   UNL     1       0.947   0.941  23.199  0.00  0.00    +0.027 A 
ATOM     25  C   UNL     1       2.323   1.139  23.202  0.00  0.00    +0.056 A 
ATOM     26  C   UNL     1       0.389  -0.009  22.349  0.00  0.00    +0.031 A 
ATOM     27  C   UNL     1       3.092   0.369  22.344  0.00  0.00    +0.138 A 
ATOM     28  C   UNL     1       1.245  -0.727  21.528  0.00  0.00    +0.113 A 
ATOM     31  H   UNL     1       4.917   0.314  21.397  0.00  0.00    +0.175 HD
BRANCH   9   1
ATOM      1  S   UNL     1       5.422  -0.007  23.670  0.00  0.00    +0.041 S 
ATOM      4  O   UNL     1       6.771  -0.300  23.225  0.00  0.00    -0.155 OA
ATOM      5  O   UNL     1       5.194   0.842  24.822  0.00  0.00    -0.155 OA
ATOM     30  C   UNL     1       4.628  -1.568  23.976  0.00  0.00    +0.218 C 
ENDBRANCH   9   1
ENDBRANCH  20  23
BRANCH  16  11
ATOM      6  N   UNL     1      -3.802   2.850  25.682  0.00  0.00    -0.287 NA
ATOM     11  C   UNL     1      -2.780   3.620  24.944  0.00  0.00    +0.146 C 
ATOM     12  C   UNL     1      -2.555   4.885  25.793  0.00  0.00    +0.030 C 
ATOM     13  C   UNL     1      -3.535   4.766  26.951  0.00  0.00    +0.017 C 
ATOM     14  C   UNL     1      -4.601   3.826  26.423  0.00  0.00    +0.085 C 
BRANCH   6  15
ATOM     15  C   UNL     1      -4.623   2.011  24.818  0.00  0.00    +0.120 C 
BRANCH  15  17
ATOM     17  C   UNL     1      -4.122   0.592  24.773  0.00  0.00    -0.033 A 
ATOM     18  C   UNL     1      -4.663  -0.311  23.858  0.00  0.00    +0.008 A 
ATOM     19  C   UNL     1      -3.116   0.181  25.647  0.00  0.00    +0.008 A 
ATOM     21  C   UNL     1      -4.198  -1.625  23.817  0.00  0.00    +0.046 A 
ATOM     22  C   UNL     1      -2.651  -1.134  25.607  0.00  0.00    +0.046 A 
ATOM     24  C   UNL     1      -3.192  -2.037  24.691  0.00  0.00    +0.120 A 
BRANCH  24   3
ATOM      3  O   UNL     1      -2.738  -3.319  24.650  0.00  0.00    -0.495 OA
ATOM     29  C   UNL     1      -1.689  -3.606  23.726  0.00  0.00    +0.277 C 
ENDBRANCH  24   3
ENDBRANCH  15  17
ENDBRANCH   6  15
ENDBRANCH  16  11
TORSDOF 6
ENDMDL
MODEL 2
REMARK VINA RESULT:       0.7      1.632      4.162
REMARK  Name = 45783597
REMARK  8 active torsions:
REMARK  status: ('A' for Active; 'I' for Inactive)
REMARK    1  A    between atoms: S_1  and  N_9
REMARK    2  A    between atoms: S_1  and  C_30
REMARK    3  A    between atoms: O_3  and  C_24
REMARK    4  A    between atoms: O_3  and  C_29
REMARK    5  A    between atoms: N_6  and  C_15
REMARK    6  A    between atoms: C_11  and  C_16
REMARK    7  A    between atoms: C_15  and  C_17
REMARK    8  A    between atoms: C_20  and  C_23
REMARK                            x       y       z     vdW  Elec       q    Type
REMARK                         _______ _______ _______ _____ _____    ______ ____
ROOT
ATOM      2  O   UNL     1      -1.314   0.081  25.653  0.00  0.00    -0.336 OA
ATOM      7  N   UNL     1      -1.115  -0.964  23.681  0.00  0.00    -0.190 NA
ATOM      8  N   UNL     1      -0.086   0.489  25.117  0.00  0.00    -0.056 NA
ATOM     16  C   UNL     1      -1.855  -0.774  24.745  0.00  0.00    +0.245 A 
ATOM     20  C   UNL     1      -0.041  -0.169  23.955  0.00  0.00    +0.202 A 
ENDROOT
BRANCH  20  23
ATOM      9  N   UNL     1       4.568   1.101  22.962  0.00  0.00    -0.204 N 
ATOM     10  N   UNL     1       3.213   0.164  21.274  0.00  0.00    -0.239 NA
ATOM     23  C   UNL     1       1.063  -0.057  23.047  0.00  0.00    +0.027 A 
ATOM     25  C   UNL     1       2.272   0.475  23.479  0.00  0.00    +0.056 A 
ATOM     26  C   UNL     1       0.927  -0.479  21.728  0.00  0.00    +0.031 A 
ATOM     27  C   UNL     1       3.308   0.562  22.562  0.00  0.00    +0.138 A 
ATOM     28  C   UNL     1       2.023  -0.348  20.890  0.00  0.00    +0.113 A 
ATOM     31  H   UNL     1       5.073   1.549  22.186  0.00  0.00    +0.175 HD
BRANCH   9   1
ATOM      1  S   UNL     1       5.550   0.168  24.027  0.00  0.00    +0.041 S 
ATOM      4  O   UNL     1       6.852  -0.009  23.411  0.00  0.00    -0.155 OA
ATOM      5  O   UNL     1       5.438   0.650  25.389  0.00  0.00    -0.155 OA
ATOM     30  C   UNL     1       4.716  -1.399  23.931  0.00  0.00    +0.218 C 
ENDBRANCH   9   1
ENDBRANCH  20  23
BRANCH  16  11
ATOM      6  N   UNL     1      -4.273  -0.921  24.173  0.00  0.00    -0.287 NA
ATOM     11  C   UNL     1      -3.206  -1.363  25.093  0.00  0.00    +0.146 C 
ATOM     12  C   UNL     1      -3.224  -2.900  25.005  0.00  0.00    +0.030 C 
ATOM     13  C   UNL     1      -4.372  -3.230  24.061  0.00  0.00    +0.017 C 
ATOM     14  C   UNL     1      -5.258  -2.002  24.132  0.00  0.00    +0.085 C 
BRANCH   6  15
ATOM     15  C   UNL     1      -4.871   0.351  24.556  0.00  0.00    +0.120 C 
BRANCH  15  17
ATOM     17  C   UNL     1      -3.889   1.488  24.449  0.00  0.00    -0.033 A 
ATOM     18  C   UNL     1      -3.714   2.362  25.522  0.00  0.00    +0.008 A 
ATOM     19  C   UNL     1      -3.155   1.666  23.276  0.00  0.00    +0.008 A 
ATOM     21  C   UNL     1      -2.803   3.414  25.422  0.00  0.00    +0.046 A 
ATOM     22  C   UNL     1      -2.245   2.719  23.176  0.00  0.00    +0.046 A 
ATOM     24  C   UNL     1      -2.069   3.592  24.249  0.00  0.00    +0.120 A 
BRANCH  24   3
ATOM      3  O   UNL     1      -1.181   4.618  24.153  0.00  0.00    -0.495 OA
ATOM     29  C   UNL     1      -1.321   5.688  25.087  0.00  0.00    +0.277 C 
ENDBRANCH  24   3
ENDBRANCH  15  17
ENDBRANCH   6  15
ENDBRANCH  16  11
TORSDOF 6
ENDMDL
