MODEL 1
REMARK VINA RESULT:       4.7      0.000      0.000
REMARK  Name = 7144101
REMARK  4 active torsions:
REMARK  status: ('A' for Active; 'I' for Inactive)
REMARK    1  A    between atoms: O_3  and  C_27
REMARK    2  A    between atoms: O_3  and  C_30
REMARK    3  A    between atoms: C_14  and  C_19
REMARK    4  A    between atoms: C_16  and  C_20
REMARK                            x       y       z     vdW  Elec       q    Type
REMARK                         _______ _______ _______ _____ _____    ______ ____
ROOT
ATOM      1  O   UNL     1      -3.096   4.113  27.674  0.00  0.00    -0.268 OA
ATOM      2  O   UNL     1      -5.793   0.605  25.189  0.00  0.00    -0.270 OA
ATOM      4  N   UNL     1      -4.246   1.453  23.655  0.00  0.00    -0.297 N 
ATOM      5  N   UNL     1      -2.604   3.431  25.488  0.00  0.00    -0.311 N 
ATOM      7  C   UNL     1      -4.193   3.932  23.537  0.00  0.00    +0.027 C 
ATOM      8  C   UNL     1      -2.129   2.651  23.146  0.00  0.00    +0.054 C 
ATOM      9  C   UNL     1      -2.934   3.866  22.686  0.00  0.00    +0.018 C 
ATOM     10  C   UNL     1      -5.030   2.653  23.365  0.00  0.00    +0.113 C 
ATOM     11  C   UNL     1      -3.783   4.157  24.994  0.00  0.00    +0.130 C 
ATOM     12  C   UNL     1      -2.965   1.370  22.940  0.00  0.00    +0.117 C 
ATOM     13  C   UNL     1      -1.714   2.774  24.615  0.00  0.00    +0.034 A 
ATOM     14  C   UNL     1      -0.556   2.251  25.096  0.00  0.00    +0.002 A 
ATOM     15  C   UNL     1      -2.361   3.539  26.869  0.00  0.00    +0.252 A 
ATOM     16  C   UNL     1      -4.720   0.532  24.593  0.00  0.00    +0.247 C 
ATOM     17  C   UNL     1      -0.274   2.340  26.515  0.00  0.00    +0.015 A 
ATOM     18  C   UNL     1      -1.111   2.925  27.372  0.00  0.00    +0.071 A 
ENDROOT
BRANCH  16  20
ATOM      6  N   UNL     1      -2.266  -2.813  25.549  0.00  0.00    -0.263 NA
ATOM     20  C   UNL     1      -3.874  -0.620  24.923  0.00  0.00    +0.040 A 
ATOM     23  C   UNL     1      -4.103  -1.845  24.312  0.00  0.00    +0.033 A 
ATOM     24  C   UNL     1      -2.847  -0.485  25.846  0.00  0.00    +0.033 A 
ATOM     28  C   UNL     1      -3.277  -2.903  24.656  0.00  0.00    +0.111 A 
ATOM     29  C   UNL     1      -2.077  -1.604  26.123  0.00  0.00    +0.111 A 
ENDBRANCH  16  20
BRANCH  14  19
ATOM     19  C   UNL     1       0.419   1.575  24.211  0.00  0.00    -0.016 A 
ATOM     21  C   UNL     1       0.136   0.307  23.713  0.00  0.00    +0.012 A 
ATOM     22  C   UNL     1       1.613   2.211  23.886  0.00  0.00    +0.012 A 
ATOM     25  C   UNL     1       1.055  -0.330  22.879  0.00  0.00    +0.046 A 
ATOM     26  C   UNL     1       2.532   1.574  23.053  0.00  0.00    +0.046 A 
ATOM     27  C   UNL     1       2.254   0.303  22.550  0.00  0.00    +0.120 A 
BRANCH  27   3
ATOM      3  O   UNL     1       3.152  -0.319  21.738  0.00  0.00    -0.495 OA
ATOM     30  C   UNL     1       4.531  -0.017  21.942  0.00  0.00    +0.277 C 
ENDBRANCH  27   3
ENDBRANCH  14  19
TORSDOF 3
ENDMDL
