MODEL 1
REMARK VINA RESULT:      -4.8      0.000      0.000
REMARK  Name = 56775199
REMARK  3 active torsions:
REMARK  status: ('A' for Active; 'I' for Inactive)
REMARK    1  A    between atoms: N_5  and  C_13
REMARK    2  A    between atoms: N_6  and  C_17
REMARK    3  A    between atoms: C_17  and  C_21
REMARK                            x       y       z     vdW  Elec       q    Type
REMARK                         _______ _______ _______ _____ _____    ______ ____
ROOT
ATOM      1  O   UNL     1      -1.658  -2.498  24.431  0.00  0.00    -0.364 OA
ATOM      2  O   UNL     1      -4.866  -1.268  23.740  0.00  0.00    -0.273 OA
ATOM      3  O   UNL     1       1.507   0.721  22.244  0.00  0.00    -0.253 OA
ATOM      4  N   UNL     1       0.442  -0.437  23.930  0.00  0.00    -0.281 N 
ATOM      5  N   UNL     1      -3.108  -0.104  24.793  0.00  0.00    -0.262 N 
ATOM      6  N   UNL     1       2.708  -0.810  23.480  0.00  0.00    -0.300 N 
ATOM      7  C   UNL     1      -1.653  -0.149  24.988  0.00  0.00    +0.129 C 
ATOM      8  C   UNL     1      -1.109  -1.539  25.328  0.00  0.00    +0.158 C 
ATOM      9  C   UNL     1      -0.855   0.197  23.724  0.00  0.00    +0.135 C 
ATOM     10  C   UNL     1       0.380  -1.411  25.022  0.00  0.00    +0.143 C 
ATOM     11  C   UNL     1      -3.056  -2.557  24.567  0.00  0.00    +0.256 C 
ATOM     12  C   UNL     1      -3.769  -1.243  24.298  0.00  0.00    +0.246 C 
ATOM     14  C   UNL     1       1.550  -0.115  23.151  0.00  0.00    +0.302 C 
ATOM     22  H   UNL     1       2.708  -1.457  24.261  0.00  0.00    +0.150 HD
ENDROOT
BRANCH   5  13
ATOM     13  C   UNL     1      -3.802   1.154  24.984  0.00  0.00    +0.037 A 
ATOM     15  C   UNL     1      -3.122   2.358  24.807  0.00  0.00    +0.023 A 
ATOM     16  C   UNL     1      -5.149   1.160  25.345  0.00  0.00    +0.023 A 
ATOM     18  C   UNL     1      -3.789   3.570  24.991  0.00  0.00    +0.002 A 
ATOM     19  C   UNL     1      -5.816   2.371  25.529  0.00  0.00    +0.002 A 
ATOM     20  C   UNL     1      -5.136   3.576  25.352  0.00  0.00    +0.000 A 
ENDBRANCH   5  13
BRANCH   6  17
ATOM     17  C   UNL     1       3.958  -0.607  22.785  0.00  0.00    +0.102 C 
ATOM     21  C   UNL     1       4.834   0.400  23.501  0.00  0.00    +0.024 C 
ENDBRANCH   6  17
TORSDOF 2
ENDMDL
MODEL 2
REMARK VINA RESULT:      -1.4      2.137      6.501
REMARK  Name = 56775199
REMARK  3 active torsions:
REMARK  status: ('A' for Active; 'I' for Inactive)
REMARK    1  A    between atoms: N_5  and  C_13
REMARK    2  A    between atoms: N_6  and  C_17
REMARK    3  A    between atoms: C_17  and  C_21
REMARK                            x       y       z     vdW  Elec       q    Type
REMARK                         _______ _______ _______ _____ _____    ______ ____
ROOT
ATOM      1  O   UNL     1      -3.447  -1.014  25.228  0.00  0.00    -0.364 OA
ATOM      2  O   UNL     1      -0.107  -2.017  25.578  0.00  0.00    -0.273 OA
ATOM      3  O   UNL     1      -3.469   3.909  26.190  0.00  0.00    -0.253 OA
ATOM      4  N   UNL     1      -3.685   1.952  24.990  0.00  0.00    -0.281 N 
ATOM      5  N   UNL     1      -0.927  -0.321  24.162  0.00  0.00    -0.262 N 
ATOM      6  N   UNL     1      -5.563   3.262  25.474  0.00  0.00    -0.300 N 
ATOM      7  C   UNL     1      -2.103   0.534  23.952  0.00  0.00    +0.129 C 
ATOM      8  C   UNL     1      -3.441  -0.203  24.058  0.00  0.00    +0.158 C 
ATOM      9  C   UNL     1      -2.264   1.626  25.018  0.00  0.00    +0.135 C 
ATOM     10  C   UNL     1      -4.443   0.928  24.267  0.00  0.00    +0.143 C 
ATOM     11  C   UNL     1      -2.441  -1.992  25.156  0.00  0.00    +0.256 C 
ATOM     12  C   UNL     1      -1.034  -1.437  25.012  0.00  0.00    +0.246 C 
ATOM     14  C   UNL     1      -4.188   3.101  25.596  0.00  0.00    +0.302 C 
ATOM     22  H   UNL     1      -6.107   2.594  24.940  0.00  0.00    +0.150 HD
ENDROOT
BRANCH   5  13
ATOM     13  C   UNL     1       0.344   0.086  23.599  0.00  0.00    +0.037 A 
ATOM     15  C   UNL     1       0.993   1.219  24.090  0.00  0.00    +0.023 A 
ATOM     16  C   UNL     1       0.919  -0.654  22.565  0.00  0.00    +0.023 A 
ATOM     18  C   UNL     1       2.217   1.611  23.548  0.00  0.00    +0.002 A 
ATOM     19  C   UNL     1       2.143  -0.261  22.023  0.00  0.00    +0.002 A 
ATOM     20  C   UNL     1       2.791   0.872  22.515  0.00  0.00    +0.000 A 
ENDBRANCH   5  13
BRANCH   6  17
ATOM     17  C   UNL     1      -6.263   4.394  26.034  0.00  0.00    +0.102 C 
ATOM     21  C   UNL     1      -6.289   5.563  25.072  0.00  0.00    +0.024 C 
ENDBRANCH   6  17
TORSDOF 2
ENDMDL
MODEL 3
REMARK VINA RESULT:      -1.3      2.485      3.777
REMARK  Name = 56775199
REMARK  3 active torsions:
REMARK  status: ('A' for Active; 'I' for Inactive)
REMARK    1  A    between atoms: N_5  and  C_13
REMARK    2  A    between atoms: N_6  and  C_17
REMARK    3  A    between atoms: C_17  and  C_21
REMARK                            x       y       z     vdW  Elec       q    Type
REMARK                         _______ _______ _______ _____ _____    ______ ____
ROOT
ATOM      1  O   UNL     1      -0.312   4.234  24.956  0.00  0.00    -0.364 OA
ATOM      2  O   UNL     1      -3.116   4.151  27.057  0.00  0.00    -0.273 OA
ATOM      3  O   UNL     1       1.012  -0.561  24.307  0.00  0.00    -0.253 OA
ATOM      4  N   UNL     1       0.257   1.552  23.775  0.00  0.00    -0.281 N 
ATOM      5  N   UNL     1      -2.868   3.037  24.995  0.00  0.00    -0.262 N 
ATOM      6  N   UNL     1       2.306   0.779  22.948  0.00  0.00    -0.300 N 
ATOM      7  C   UNL     1      -1.842   2.609  24.034  0.00  0.00    +0.129 C 
ATOM      8  C   UNL     1      -0.781   3.672  23.735  0.00  0.00    +0.158 C 
ATOM      9  C   UNL     1      -0.981   1.443  24.537  0.00  0.00    +0.135 C 
ATOM     10  C   UNL     1       0.358   2.861  23.125  0.00  0.00    +0.143 C 
ATOM     11  C   UNL     1      -1.359   4.876  25.639  0.00  0.00    +0.256 C 
ATOM     12  C   UNL     1      -2.528   3.971  25.990  0.00  0.00    +0.246 C 
ATOM     14  C   UNL     1       1.181   0.511  23.720  0.00  0.00    +0.302 C 
ATOM     22  H   UNL     1       2.381   1.658  22.448  0.00  0.00    +0.150 HD
ENDROOT
BRANCH   5  13
ATOM     13  C   UNL     1      -4.161   2.383  24.976  0.00  0.00    +0.037 A 
ATOM     15  C   UNL     1      -5.307   3.094  25.332  0.00  0.00    +0.023 A 
ATOM     16  C   UNL     1      -4.259   1.044  24.600  0.00  0.00    +0.023 A 
ATOM     18  C   UNL     1      -6.551   2.465  25.314  0.00  0.00    +0.002 A 
ATOM     19  C   UNL     1      -5.504   0.414  24.582  0.00  0.00    +0.002 A 
ATOM     20  C   UNL     1      -6.650   1.125  24.939  0.00  0.00    +0.000 A 
ENDBRANCH   5  13
BRANCH   6  17
ATOM     17  C   UNL     1       3.370  -0.181  22.769  0.00  0.00    +0.102 C 
ATOM     21  C   UNL     1       4.713   0.398  23.164  0.00  0.00    +0.024 C 
ENDBRANCH   6  17
TORSDOF 2
ENDMDL
MODEL 4
REMARK VINA RESULT:      -1.2      3.522      4.923
REMARK  Name = 56775199
REMARK  3 active torsions:
REMARK  status: ('A' for Active; 'I' for Inactive)
REMARK    1  A    between atoms: N_5  and  C_13
REMARK    2  A    between atoms: N_6  and  C_17
REMARK    3  A    between atoms: C_17  and  C_21
REMARK                            x       y       z     vdW  Elec       q    Type
REMARK                         _______ _______ _______ _____ _____    ______ ____
ROOT
ATOM      1  O   UNL     1      -2.116   3.718  24.883  0.00  0.00    -0.364 OA
ATOM      2  O   UNL     1      -5.126   1.926  24.756  0.00  0.00    -0.273 OA
ATOM      3  O   UNL     1       0.467   1.720  28.690  0.00  0.00    -0.253 OA
ATOM      4  N   UNL     1      -0.063   2.303  26.523  0.00  0.00    -0.281 N 
ATOM      5  N   UNL     1      -2.948   1.031  24.649  0.00  0.00    -0.262 N 
ATOM      6  N   UNL     1       1.792   3.252  27.589  0.00  0.00    -0.300 N 
ATOM      7  C   UNL     1      -1.549   1.371  24.937  0.00  0.00    +0.129 C 
ATOM      8  C   UNL     1      -1.136   2.770  24.473  0.00  0.00    +0.158 C 
ATOM      9  C   UNL     1      -1.231   1.434  26.437  0.00  0.00    +0.135 C 
ATOM     10  C   UNL     1       0.136   3.038  25.272  0.00  0.00    +0.143 C 
ATOM     11  C   UNL     1      -3.356   3.433  24.286  0.00  0.00    +0.256 C 
ATOM     12  C   UNL     1      -3.910   2.057  24.612  0.00  0.00    +0.246 C 
ATOM     14  C   UNL     1       0.715   2.378  27.676  0.00  0.00    +0.302 C 
ATOM     22  H   UNL     1       1.982   3.739  26.721  0.00  0.00    +0.150 HD
ENDROOT
BRANCH   5  13
ATOM     13  C   UNL     1      -3.322  -0.366  24.547  0.00  0.00    +0.037 A 
ATOM     15  C   UNL     1      -2.972  -1.257  25.561  0.00  0.00    +0.023 A 
ATOM     16  C   UNL     1      -4.033  -0.818  23.435  0.00  0.00    +0.023 A 
ATOM     18  C   UNL     1      -3.332  -2.601  25.464  0.00  0.00    +0.002 A 
ATOM     19  C   UNL     1      -4.392  -2.163  23.338  0.00  0.00    +0.002 A 
ATOM     20  C   UNL     1      -4.041  -3.054  24.352  0.00  0.00    +0.000 A 
ENDBRANCH   5  13
BRANCH   6  17
ATOM     17  C   UNL     1       2.712   3.459  28.683  0.00  0.00    +0.102 C 
ATOM     21  C   UNL     1       2.462   2.480  29.813  0.00  0.00    +0.024 C 
ENDBRANCH   6  17
TORSDOF 2
ENDMDL
