MODEL 1
REMARK VINA RESULT:      -5.4      0.000      0.000
REMARK  Name = 75536520
REMARK  11 active torsions:
REMARK  status: ('A' for Active; 'I' for Inactive)
REMARK    1  A    between atoms: O_3  and  C_8
REMARK    2  A    between atoms: N_5  and  C_7
REMARK    3  A    between atoms: N_5  and  C_13
REMARK    4  A    between atoms: N_6  and  C_11
REMARK    5  A    between atoms: C_9  and  C_11
REMARK    6  A    between atoms: C_12  and  C_14
REMARK    7  A    between atoms: C_12  and  C_16
REMARK    8  A    between atoms: C_12  and  C_17
REMARK    9  A    between atoms: C_12  and  C_18
REMARK   10  A    between atoms: C_13  and  C_19
REMARK   11  A    between atoms: C_14  and  C_15
REMARK                            x       y       z     vdW  Elec       q    Type
REMARK                         _______ _______ _______ _____ _____    ______ ____
ROOT
ATOM      2  O   UNL     1      -2.922   4.250  23.706  0.00  0.00    -0.371 OA
ATOM      7  C   UNL     1      -4.535   3.414  25.236  0.00  0.00    +0.111 C 
ATOM      8  C   UNL     1      -3.277   3.790  25.999  0.00  0.00    +0.164 C 
ATOM      9  C   UNL     1      -2.617   4.750  25.019  0.00  0.00    +0.165 C 
ATOM     10  C   UNL     1      -4.004   3.310  23.816  0.00  0.00    +0.181 C 
ENDROOT
BRANCH   8   3
ATOM      3  O   UNL     1      -3.556   4.412  27.238  0.00  0.00    -0.388 OA
ATOM     27  H   UNL     1      -3.060   3.945  27.932  0.00  0.00    +0.210 HD
ENDBRANCH   8   3
BRANCH   7   5
ATOM      5  N   UNL     1      -5.152   2.183  25.702  0.00  0.00    -0.305 NA
ATOM     25  H   UNL     1      -6.041   2.405  26.149  0.00  0.00    +0.123 HD
BRANCH   5  13
ATOM     13  C   UNL     1      -5.395   1.266  24.595  0.00  0.00    +0.116 C 
BRANCH  13  19
ATOM      1  F   UNL     1      -2.592  -3.581  25.231  0.00  0.00    -0.205 F 
ATOM     19  C   UNL     1      -4.646  -0.029  24.766  0.00  0.00    -0.033 A 
ATOM     20  C   UNL     1      -4.627  -0.964  23.731  0.00  0.00    +0.008 A 
ATOM     21  C   UNL     1      -3.972  -0.294  25.958  0.00  0.00    +0.008 A 
ATOM     22  C   UNL     1      -3.934  -2.164  23.889  0.00  0.00    +0.038 A 
ATOM     23  C   UNL     1      -3.278  -1.494  26.115  0.00  0.00    +0.038 A 
ATOM     24  C   UNL     1      -3.259  -2.429  25.080  0.00  0.00    +0.123 A 
ENDBRANCH  13  19
ENDBRANCH   5  13
ENDBRANCH   7   5
BRANCH   9  11
ATOM     11  C   UNL     1      -1.112   4.845  25.194  0.00  0.00    +0.138 C 
BRANCH  11   6
ATOM      4  O   UNL     1      -0.026   2.440  26.387  0.00  0.00    -0.276 OA
ATOM      6  N   UNL     1      -0.431   3.763  24.520  0.00  0.00    -0.313 N 
ATOM     15  C   UNL     1       0.057   2.647  25.177  0.00  0.00    +0.214 C 
ATOM     26  H   UNL     1      -0.320   3.835  23.512  0.00  0.00    +0.149 HD
BRANCH  15  14
ATOM     14  C   UNL     1       0.739   1.659  24.246  0.00  0.00    +0.102 C 
BRANCH  14  12
ATOM     12  C   UNL     1      -0.150   0.475  23.797  0.00  0.00    -0.029 C 
ATOM     16  C   UNL     1      -0.384  -0.521  24.944  0.00  0.00    +0.011 C 
ATOM     17  C   UNL     1      -1.508   0.970  23.271  0.00  0.00    +0.011 C 
ATOM     18  C   UNL     1       0.576  -0.261  22.653  0.00  0.00    +0.011 C 
ENDBRANCH  14  12
ENDBRANCH  15  14
ENDBRANCH  11   6
ENDBRANCH   9  11
TORSDOF 8
ENDMDL
MODEL 2
REMARK VINA RESULT:      -4.8      3.671      5.363
REMARK  Name = 75536520
REMARK  11 active torsions:
REMARK  status: ('A' for Active; 'I' for Inactive)
REMARK    1  A    between atoms: O_3  and  C_8
REMARK    2  A    between atoms: N_5  and  C_7
REMARK    3  A    between atoms: N_5  and  C_13
REMARK    4  A    between atoms: N_6  and  C_11
REMARK    5  A    between atoms: C_9  and  C_11
REMARK    6  A    between atoms: C_12  and  C_14
REMARK    7  A    between atoms: C_12  and  C_16
REMARK    8  A    between atoms: C_12  and  C_17
REMARK    9  A    between atoms: C_12  and  C_18
REMARK   10  A    between atoms: C_13  and  C_19
REMARK   11  A    between atoms: C_14  and  C_15
REMARK                            x       y       z     vdW  Elec       q    Type
REMARK                         _______ _______ _______ _____ _____    ______ ____
ROOT
ATOM      2  O   UNL     1      -0.290   0.401  25.320  0.00  0.00    -0.371 OA
ATOM      7  C   UNL     1      -2.125  -1.069  25.654  0.00  0.00    +0.111 C 
ATOM      8  C   UNL     1      -1.553  -1.299  24.266  0.00  0.00    +0.164 C 
ATOM      9  C   UNL     1      -0.155  -0.716  24.426  0.00  0.00    +0.165 C 
ATOM     10  C   UNL     1      -1.558   0.301  25.989  0.00  0.00    +0.181 C 
ENDROOT
BRANCH   8   3
ATOM      3  O   UNL     1      -1.516  -2.667  23.909  0.00  0.00    -0.388 OA
ATOM     27  H   UNL     1      -0.587  -2.950  23.880  0.00  0.00    +0.210 HD
ENDBRANCH   8   3
BRANCH   7   5
ATOM      5  N   UNL     1      -3.577  -1.109  25.699  0.00  0.00    -0.305 NA
ATOM     25  H   UNL     1      -3.897  -0.615  26.532  0.00  0.00    +0.123 HD
BRANCH   5  13
ATOM     13  C   UNL     1      -4.156  -0.476  24.521  0.00  0.00    +0.116 C 
BRANCH  13  19
ATOM      1  F   UNL     1      -5.767   4.822  25.564  0.00  0.00    -0.205 F 
ATOM     19  C   UNL     1      -4.586   0.940  24.799  0.00  0.00    -0.033 A 
ATOM     20  C   UNL     1      -5.648   1.187  25.670  0.00  0.00    +0.008 A 
ATOM     21  C   UNL     1      -3.924   2.004  24.186  0.00  0.00    +0.008 A 
ATOM     22  C   UNL     1      -6.046   2.499  25.928  0.00  0.00    +0.038 A 
ATOM     23  C   UNL     1      -4.323   3.315  24.445  0.00  0.00    +0.038 A 
ATOM     24  C   UNL     1      -5.384   3.562  25.315  0.00  0.00    +0.123 A 
ENDBRANCH  13  19
ENDBRANCH   5  13
ENDBRANCH   7   5
BRANCH   9  11
ATOM     11  C   UNL     1       0.456  -0.254  23.115  0.00  0.00    +0.138 C 
BRANCH  11   6
ATOM      4  O   UNL     1       2.619  -0.180  21.190  0.00  0.00    -0.276 OA
ATOM      6  N   UNL     1       1.785   0.280  23.309  0.00  0.00    -0.313 N 
ATOM     15  C   UNL     1       2.758   0.271  22.326  0.00  0.00    +0.214 C 
ATOM     26  H   UNL     1       1.998   0.688  24.216  0.00  0.00    +0.149 HD
BRANCH  15  14
ATOM     14  C   UNL     1       4.072   0.884  22.783  0.00  0.00    +0.102 C 
BRANCH  14  12
ATOM     12  C   UNL     1       5.040  -0.105  23.475  0.00  0.00    -0.029 C 
ATOM     16  C   UNL     1       4.342  -1.433  23.813  0.00  0.00    +0.011 C 
ATOM     17  C   UNL     1       6.268  -0.388  22.594  0.00  0.00    +0.011 C 
ATOM     18  C   UNL     1       5.522   0.540  24.789  0.00  0.00    +0.011 C 
ENDBRANCH  14  12
ENDBRANCH  15  14
ENDBRANCH  11   6
ENDBRANCH   9  11
TORSDOF 8
ENDMDL
MODEL 3
REMARK VINA RESULT:      -4.7      2.291      4.423
REMARK  Name = 75536520
REMARK  11 active torsions:
REMARK  status: ('A' for Active; 'I' for Inactive)
REMARK    1  A    between atoms: O_3  and  C_8
REMARK    2  A    between atoms: N_5  and  C_7
REMARK    3  A    between atoms: N_5  and  C_13
REMARK    4  A    between atoms: N_6  and  C_11
REMARK    5  A    between atoms: C_9  and  C_11
REMARK    6  A    between atoms: C_12  and  C_14
REMARK    7  A    between atoms: C_12  and  C_16
REMARK    8  A    between atoms: C_12  and  C_17
REMARK    9  A    between atoms: C_12  and  C_18
REMARK   10  A    between atoms: C_13  and  C_19
REMARK   11  A    between atoms: C_14  and  C_15
REMARK                            x       y       z     vdW  Elec       q    Type
REMARK                         _______ _______ _______ _____ _____    ______ ____
ROOT
ATOM      2  O   UNL     1      -0.427   2.221  23.353  0.00  0.00    -0.371 OA
ATOM      7  C   UNL     1      -0.755   3.386  25.397  0.00  0.00    +0.111 C 
ATOM      8  C   UNL     1       0.033   2.118  25.671  0.00  0.00    +0.164 C 
ATOM      9  C   UNL     1       0.587   1.812  24.287  0.00  0.00    +0.165 C 
ATOM     10  C   UNL     1      -1.359   3.076  24.037  0.00  0.00    +0.181 C 
ENDROOT
BRANCH   8   3
ATOM      3  O   UNL     1       1.063   2.310  26.621  0.00  0.00    -0.388 OA
ATOM     27  H   UNL     1       1.638   3.029  26.307  0.00  0.00    +0.210 HD
ENDBRANCH   8   3
BRANCH   7   5
ATOM      5  N   UNL     1      -1.757   3.681  26.408  0.00  0.00    -0.305 NA
ATOM     25  H   UNL     1      -1.320   4.204  27.166  0.00  0.00    +0.123 HD
BRANCH   5  13
ATOM     13  C   UNL     1      -2.847   4.473  25.852  0.00  0.00    +0.116 C 
BRANCH  13  19
ATOM      1  F   UNL     1      -7.274   1.272  24.472  0.00  0.00    -0.205 F 
ATOM     19  C   UNL     1      -4.030   3.618  25.483  0.00  0.00    -0.033 A 
ATOM     20  C   UNL     1      -4.864   3.114  26.481  0.00  0.00    +0.008 A 
ATOM     21  C   UNL     1      -4.290   3.328  24.143  0.00  0.00    +0.008 A 
ATOM     22  C   UNL     1      -5.960   2.322  26.139  0.00  0.00    +0.038 A 
ATOM     23  C   UNL     1      -5.387   2.536  23.802  0.00  0.00    +0.038 A 
ATOM     24  C   UNL     1      -6.221   2.033  24.800  0.00  0.00    +0.123 A 
ENDBRANCH  13  19
ENDBRANCH   5  13
ENDBRANCH   7   5
BRANCH   9  11
ATOM     11  C   UNL     1       0.912   0.343  24.081  0.00  0.00    +0.138 C 
BRANCH  11   6
ATOM      4  O   UNL     1      -0.127  -1.818  25.704  0.00  0.00    -0.276 OA
ATOM      6  N   UNL     1      -0.283  -0.435  23.844  0.00  0.00    -0.313 N 
ATOM     15  C   UNL     1      -0.703  -1.454  24.680  0.00  0.00    +0.214 C 
ATOM     26  H   UNL     1      -0.838  -0.204  23.024  0.00  0.00    +0.149 HD
BRANCH  15  14
ATOM     14  C   UNL     1      -1.983  -2.123  24.208  0.00  0.00    +0.102 C 
BRANCH  14  12
ATOM     12  C   UNL     1      -3.272  -1.308  24.468  0.00  0.00    -0.029 C 
ATOM     16  C   UNL     1      -3.498  -1.077  25.972  0.00  0.00    +0.011 C 
ATOM     17  C   UNL     1      -3.225   0.050  23.748  0.00  0.00    +0.011 C 
ATOM     18  C   UNL     1      -4.465  -2.112  23.915  0.00  0.00    +0.011 C 
ENDBRANCH  14  12
ENDBRANCH  15  14
ENDBRANCH  11   6
ENDBRANCH   9  11
TORSDOF 8
ENDMDL
MODEL 4
REMARK VINA RESULT:      -4.6      1.848      3.062
REMARK  Name = 75536520
REMARK  11 active torsions:
REMARK  status: ('A' for Active; 'I' for Inactive)
REMARK    1  A    between atoms: O_3  and  C_8
REMARK    2  A    between atoms: N_5  and  C_7
REMARK    3  A    between atoms: N_5  and  C_13
REMARK    4  A    between atoms: N_6  and  C_11
REMARK    5  A    between atoms: C_9  and  C_11
REMARK    6  A    between atoms: C_12  and  C_14
REMARK    7  A    between atoms: C_12  and  C_16
REMARK    8  A    between atoms: C_12  and  C_17
REMARK    9  A    between atoms: C_12  and  C_18
REMARK   10  A    between atoms: C_13  and  C_19
REMARK   11  A    between atoms: C_14  and  C_15
REMARK                            x       y       z     vdW  Elec       q    Type
REMARK                         _______ _______ _______ _____ _____    ______ ____
ROOT
ATOM      2  O   UNL     1      -0.319   4.463  24.098  0.00  0.00    -0.371 OA
ATOM      7  C   UNL     1      -1.778   4.276  25.963  0.00  0.00    +0.111 C 
ATOM      8  C   UNL     1      -1.034   2.965  25.783  0.00  0.00    +0.164 C 
ATOM      9  C   UNL     1       0.163   3.418  24.959  0.00  0.00    +0.165 C 
ATOM     10  C   UNL     1      -1.588   4.919  24.598  0.00  0.00    +0.181 C 
ENDROOT
BRANCH   8   3
ATOM      3  O   UNL     1      -0.640   2.388  27.012  0.00  0.00    -0.388 OA
ATOM     27  H   UNL     1      -1.393   2.430  27.626  0.00  0.00    +0.210 HD
ENDBRANCH   8   3
BRANCH   7   5
ATOM      5  N   UNL     1      -3.177   4.108  26.320  0.00  0.00    -0.305 NA
ATOM     25  H   UNL     1      -3.492   4.934  26.829  0.00  0.00    +0.123 HD
BRANCH   5  13
ATOM     13  C   UNL     1      -4.005   3.940  25.132  0.00  0.00    +0.116 C 
BRANCH  13  19
ATOM      1  F   UNL     1      -4.595  -1.488  23.737  0.00  0.00    -0.205 F 
ATOM     19  C   UNL     1      -4.163   2.489  24.760  0.00  0.00    -0.033 A 
ATOM     20  C   UNL     1      -3.507   1.983  23.638  0.00  0.00    +0.008 A 
ATOM     21  C   UNL     1      -4.966   1.653  25.536  0.00  0.00    +0.008 A 
ATOM     22  C   UNL     1      -3.653   0.640  23.293  0.00  0.00    +0.038 A 
ATOM     23  C   UNL     1      -5.112   0.310  25.190  0.00  0.00    +0.038 A 
ATOM     24  C   UNL     1      -4.455  -0.197  24.069  0.00  0.00    +0.123 A 
ENDBRANCH  13  19
ENDBRANCH   5  13
ENDBRANCH   7   5
BRANCH   9  11
ATOM     11  C   UNL     1       0.774   2.306  24.125  0.00  0.00    +0.138 C 
BRANCH  11   6
ATOM      4  O   UNL     1       1.367  -0.281  22.968  0.00  0.00    -0.276 OA
ATOM      6  N   UNL     1      -0.098   1.156  24.058  0.00  0.00    -0.313 N 
ATOM     15  C   UNL     1       0.274  -0.046  23.482  0.00  0.00    +0.214 C 
ATOM     26  H   UNL     1      -1.025   1.245  24.466  0.00  0.00    +0.149 HD
BRANCH  15  14
ATOM     14  C   UNL     1      -0.823  -1.095  23.530  0.00  0.00    +0.102 C 
BRANCH  14  12
ATOM     12  C   UNL     1      -1.039  -1.742  24.919  0.00  0.00    -0.029 C 
ATOM     16  C   UNL     1       0.248  -2.404  25.438  0.00  0.00    +0.011 C 
ATOM     17  C   UNL     1      -1.524  -0.704  25.945  0.00  0.00    +0.011 C 
ATOM     18  C   UNL     1      -2.123  -2.829  24.778  0.00  0.00    +0.011 C 
ENDBRANCH  14  12
ENDBRANCH  15  14
ENDBRANCH  11   6
ENDBRANCH   9  11
TORSDOF 8
ENDMDL
MODEL 5
REMARK VINA RESULT:      -4.4      2.823      3.776
REMARK  Name = 75536520
REMARK  11 active torsions:
REMARK  status: ('A' for Active; 'I' for Inactive)
REMARK    1  A    between atoms: O_3  and  C_8
REMARK    2  A    between atoms: N_5  and  C_7
REMARK    3  A    between atoms: N_5  and  C_13
REMARK    4  A    between atoms: N_6  and  C_11
REMARK    5  A    between atoms: C_9  and  C_11
REMARK    6  A    between atoms: C_12  and  C_14
REMARK    7  A    between atoms: C_12  and  C_16
REMARK    8  A    between atoms: C_12  and  C_17
REMARK    9  A    between atoms: C_12  and  C_18
REMARK   10  A    between atoms: C_13  and  C_19
REMARK   11  A    between atoms: C_14  and  C_15
REMARK                            x       y       z     vdW  Elec       q    Type
REMARK                         _______ _______ _______ _____ _____    ______ ____
ROOT
ATOM      2  O   UNL     1      -1.340   1.915  22.755  0.00  0.00    -0.371 OA
ATOM      7  C   UNL     1      -2.319   2.602  24.807  0.00  0.00    +0.111 C 
ATOM      8  C   UNL     1      -1.174   1.649  25.100  0.00  0.00    +0.164 C 
ATOM      9  C   UNL     1      -0.375   1.746  23.807  0.00  0.00    +0.165 C 
ATOM     10  C   UNL     1      -2.595   2.300  23.343  0.00  0.00    +0.181 C 
ENDROOT
BRANCH   8   3
ATOM      3  O   UNL     1      -0.410   2.042  26.223  0.00  0.00    -0.388 OA
ATOM     27  H   UNL     1       0.420   1.535  26.220  0.00  0.00    +0.210 HD
ENDBRANCH   8   3
BRANCH   7   5
ATOM      5  N   UNL     1      -3.481   2.394  25.657  0.00  0.00    -0.305 NA
ATOM     25  H   UNL     1      -3.861   3.301  25.928  0.00  0.00    +0.123 HD
BRANCH   5  13
ATOM     13  C   UNL     1      -4.513   1.638  24.959  0.00  0.00    +0.116 C 
BRANCH  13  19
ATOM      1  F   UNL     1      -3.349  -3.875  24.839  0.00  0.00    -0.205 F 
ATOM     19  C   UNL     1      -4.202   0.165  24.926  0.00  0.00    -0.033 A 
ATOM     20  C   UNL     1      -3.601  -0.445  26.028  0.00  0.00    +0.008 A 
ATOM     21  C   UNL     1      -4.514  -0.590  23.795  0.00  0.00    +0.008 A 
ATOM     22  C   UNL     1      -3.313  -1.809  25.998  0.00  0.00    +0.038 A 
ATOM     23  C   UNL     1      -4.226  -1.954  23.766  0.00  0.00    +0.038 A 
ATOM     24  C   UNL     1      -3.626  -2.564  24.867  0.00  0.00    +0.123 A 
ENDBRANCH  13  19
ENDBRANCH   5  13
ENDBRANCH   7   5
BRANCH   9  11
ATOM     11  C   UNL     1       0.474   0.518  23.532  0.00  0.00    +0.138 C 
BRANCH  11   6
ATOM      4  O   UNL     1       2.402  -0.189  21.490  0.00  0.00    -0.276 OA
ATOM      6  N   UNL     1       1.882   0.843  23.506  0.00  0.00    -0.313 N 
ATOM     15  C   UNL     1       2.731   0.460  22.483  0.00  0.00    +0.214 C 
ATOM     26  H   UNL     1       2.251   1.388  24.280  0.00  0.00    +0.149 HD
BRANCH  15  14
ATOM     14  C   UNL     1       4.164   0.917  22.695  0.00  0.00    +0.102 C 
BRANCH  14  12
ATOM     12  C   UNL     1       5.054  -0.082  23.471  0.00  0.00    -0.029 C 
ATOM     16  C   UNL     1       4.304  -1.392  23.765  0.00  0.00    +0.011 C 
ATOM     17  C   UNL     1       6.342  -0.398  22.693  0.00  0.00    +0.011 C 
ATOM     18  C   UNL     1       5.443   0.568  24.814  0.00  0.00    +0.011 C 
ENDBRANCH  14  12
ENDBRANCH  15  14
ENDBRANCH  11   6
ENDBRANCH   9  11
TORSDOF 8
ENDMDL
MODEL 6
REMARK VINA RESULT:      -4.3      2.813      4.955
REMARK  Name = 75536520
REMARK  11 active torsions:
REMARK  status: ('A' for Active; 'I' for Inactive)
REMARK    1  A    between atoms: O_3  and  C_8
REMARK    2  A    between atoms: N_5  and  C_7
REMARK    3  A    between atoms: N_5  and  C_13
REMARK    4  A    between atoms: N_6  and  C_11
REMARK    5  A    between atoms: C_9  and  C_11
REMARK    6  A    between atoms: C_12  and  C_14
REMARK    7  A    between atoms: C_12  and  C_16
REMARK    8  A    between atoms: C_12  and  C_17
REMARK    9  A    between atoms: C_12  and  C_18
REMARK   10  A    between atoms: C_13  and  C_19
REMARK   11  A    between atoms: C_14  and  C_15
REMARK                            x       y       z     vdW  Elec       q    Type
REMARK                         _______ _______ _______ _____ _____    ______ ____
ROOT
ATOM      2  O   UNL     1      -0.695  -0.496  26.011  0.00  0.00    -0.371 OA
ATOM      7  C   UNL     1      -2.683  -1.727  25.594  0.00  0.00    +0.111 C 
ATOM      8  C   UNL     1      -1.831  -1.725  24.338  0.00  0.00    +0.164 C 
ATOM      9  C   UNL     1      -0.460  -1.397  24.915  0.00  0.00    +0.165 C 
ATOM     10  C   UNL     1      -2.088  -0.560  26.364  0.00  0.00    +0.181 C 
ENDROOT
BRANCH   8   3
ATOM      3  O   UNL     1      -1.837  -2.971  23.671  0.00  0.00    -0.388 OA
ATOM     27  H   UNL     1      -2.760  -3.264  23.580  0.00  0.00    +0.210 HD
ENDBRANCH   8   3
BRANCH   7   5
ATOM      5  N   UNL     1      -4.105  -1.567  25.334  0.00  0.00    -0.305 NA
ATOM     25  H   UNL     1      -4.546  -1.139  26.147  0.00  0.00    +0.123 HD
BRANCH   5  13
ATOM     13  C   UNL     1      -4.333  -0.721  24.169  0.00  0.00    +0.116 C 
BRANCH  13  19
ATOM      1  F   UNL     1      -5.836   4.507  25.642  0.00  0.00    -0.205 F 
ATOM     19  C   UNL     1      -4.734   0.677  24.562  0.00  0.00    -0.033 A 
ATOM     20  C   UNL     1      -5.568   0.878  25.662  0.00  0.00    +0.008 A 
ATOM     21  C   UNL     1      -4.273   1.768  23.827  0.00  0.00    +0.008 A 
ATOM     22  C   UNL     1      -5.940   2.172  26.026  0.00  0.00    +0.038 A 
ATOM     23  C   UNL     1      -4.645   3.062  24.192  0.00  0.00    +0.038 A 
ATOM     24  C   UNL     1      -5.479   3.264  25.291  0.00  0.00    +0.123 A 
ENDBRANCH  13  19
ENDBRANCH   5  13
ENDBRANCH   7   5
BRANCH   9  11
ATOM     11  C   UNL     1       0.476  -0.750  23.910  0.00  0.00    +0.138 C 
BRANCH  11   6
ATOM      4  O   UNL     1      -1.451   1.182  22.940  0.00  0.00    -0.276 OA
ATOM      6  N   UNL     1       0.516   0.685  24.072  0.00  0.00    -0.313 N 
ATOM     15  C   UNL     1      -0.455   1.534  23.571  0.00  0.00    +0.214 C 
ATOM     26  H   UNL     1       1.298   1.076  24.591  0.00  0.00    +0.149 HD
BRANCH  15  14
ATOM     14  C   UNL     1      -0.178   2.998  23.868  0.00  0.00    +0.102 C 
BRANCH  14  12
ATOM     12  C   UNL     1      -0.666   3.480  25.256  0.00  0.00    -0.029 C 
ATOM     16  C   UNL     1      -1.998   2.819  25.645  0.00  0.00    +0.011 C 
ATOM     17  C   UNL     1       0.382   3.188  26.343  0.00  0.00    +0.011 C 
ATOM     18  C   UNL     1      -0.881   5.004  25.184  0.00  0.00    +0.011 C 
ENDBRANCH  14  12
ENDBRANCH  15  14
ENDBRANCH  11   6
ENDBRANCH   9  11
TORSDOF 8
ENDMDL
MODEL 7
REMARK VINA RESULT:      -4.3      3.451      6.725
REMARK  Name = 75536520
REMARK  11 active torsions:
REMARK  status: ('A' for Active; 'I' for Inactive)
REMARK    1  A    between atoms: O_3  and  C_8
REMARK    2  A    between atoms: N_5  and  C_7
REMARK    3  A    between atoms: N_5  and  C_13
REMARK    4  A    between atoms: N_6  and  C_11
REMARK    5  A    between atoms: C_9  and  C_11
REMARK    6  A    between atoms: C_12  and  C_14
REMARK    7  A    between atoms: C_12  and  C_16
REMARK    8  A    between atoms: C_12  and  C_17
REMARK    9  A    between atoms: C_12  and  C_18
REMARK   10  A    between atoms: C_13  and  C_19
REMARK   11  A    between atoms: C_14  and  C_15
REMARK                            x       y       z     vdW  Elec       q    Type
REMARK                         _______ _______ _______ _____ _____    ______ ____
ROOT
ATOM      2  O   UNL     1      -1.790  -2.508  24.356  0.00  0.00    -0.371 OA
ATOM      7  C   UNL     1      -0.111  -0.829  24.354  0.00  0.00    +0.111 C 
ATOM      8  C   UNL     1      -1.242  -0.396  25.268  0.00  0.00    +0.164 C 
ATOM      9  C   UNL     1      -1.911  -1.733  25.560  0.00  0.00    +0.165 C 
ATOM     10  C   UNL     1      -0.792  -1.899  23.518  0.00  0.00    +0.181 C 
ENDROOT
BRANCH   8   3
ATOM      3  O   UNL     1      -0.782   0.232  26.449  0.00  0.00    -0.388 OA
ATOM     27  H   UNL     1      -1.528   0.305  27.067  0.00  0.00    +0.210 HD
ENDBRANCH   8   3
BRANCH   7   5
ATOM      5  N   UNL     1       0.437   0.253  23.552  0.00  0.00    -0.305 NA
ATOM     25  H   UNL     1       0.974   0.876  24.155  0.00  0.00    +0.123 HD
BRANCH   5  13
ATOM     13  C   UNL     1       1.310  -0.260  22.504  0.00  0.00    +0.116 C 
BRANCH  13  19
ATOM      1  F   UNL     1       6.739  -0.033  23.999  0.00  0.00    -0.205 F 
ATOM     19  C   UNL     1       2.761  -0.200  22.904  0.00  0.00    -0.033 A 
ATOM     20  C   UNL     1       3.500   0.960  22.671  0.00  0.00    +0.008 A 
ATOM     21  C   UNL     1       3.366  -1.304  23.506  0.00  0.00    +0.008 A 
ATOM     22  C   UNL     1       4.843   1.016  23.041  0.00  0.00    +0.038 A 
ATOM     23  C   UNL     1       4.709  -1.247  23.876  0.00  0.00    +0.038 A 
ATOM     24  C   UNL     1       5.448  -0.087  23.643  0.00  0.00    +0.123 A 
ENDBRANCH  13  19
ENDBRANCH   5  13
ENDBRANCH   7   5
BRANCH   9  11
ATOM     11  C   UNL     1      -3.374  -1.602  25.941  0.00  0.00    +0.138 C 
BRANCH  11   6
ATOM      4  O   UNL     1      -4.302  -0.389  23.480  0.00  0.00    -0.276 OA
ATOM      6  N   UNL     1      -3.851  -0.250  25.755  0.00  0.00    -0.313 N 
ATOM     15  C   UNL     1      -4.277   0.244  24.534  0.00  0.00    +0.214 C 
ATOM     26  H   UNL     1      -3.879   0.354  26.572  0.00  0.00    +0.149 HD
BRANCH  15  14
ATOM     14  C   UNL     1      -4.721   1.695  24.601  0.00  0.00    +0.102 C 
BRANCH  14  12
ATOM     12  C   UNL     1      -3.624   2.725  24.244  0.00  0.00    -0.029 C 
ATOM     16  C   UNL     1      -2.734   3.044  25.456  0.00  0.00    +0.011 C 
ATOM     17  C   UNL     1      -2.744   2.219  23.088  0.00  0.00    +0.011 C 
ATOM     18  C   UNL     1      -4.317   4.026  23.794  0.00  0.00    +0.011 C 
ENDBRANCH  14  12
ENDBRANCH  15  14
ENDBRANCH  11   6
ENDBRANCH   9  11
TORSDOF 8
ENDMDL
MODEL 8
REMARK VINA RESULT:      -4.2      2.987      6.083
REMARK  Name = 75536520
REMARK  11 active torsions:
REMARK  status: ('A' for Active; 'I' for Inactive)
REMARK    1  A    between atoms: O_3  and  C_8
REMARK    2  A    between atoms: N_5  and  C_7
REMARK    3  A    between atoms: N_5  and  C_13
REMARK    4  A    between atoms: N_6  and  C_11
REMARK    5  A    between atoms: C_9  and  C_11
REMARK    6  A    between atoms: C_12  and  C_14
REMARK    7  A    between atoms: C_12  and  C_16
REMARK    8  A    between atoms: C_12  and  C_17
REMARK    9  A    between atoms: C_12  and  C_18
REMARK   10  A    between atoms: C_13  and  C_19
REMARK   11  A    between atoms: C_14  and  C_15
REMARK                            x       y       z     vdW  Elec       q    Type
REMARK                         _______ _______ _______ _____ _____    ______ ____
ROOT
ATOM      2  O   UNL     1      -2.684  -2.936  23.897  0.00  0.00    -0.371 OA
ATOM      7  C   UNL     1      -1.003  -1.861  25.184  0.00  0.00    +0.111 C 
ATOM      8  C   UNL     1      -2.274  -1.035  25.242  0.00  0.00    +0.164 C 
ATOM      9  C   UNL     1      -3.318  -2.074  24.857  0.00  0.00    +0.165 C 
ATOM     10  C   UNL     1      -1.263  -2.728  23.963  0.00  0.00    +0.181 C 
ENDROOT
BRANCH   8   3
ATOM      3  O   UNL     1      -2.517  -0.495  26.527  0.00  0.00    -0.388 OA
ATOM     27  H   UNL     1      -3.283  -0.954  26.911  0.00  0.00    +0.210 HD
ENDBRANCH   8   3
BRANCH   7   5
ATOM      5  N   UNL     1       0.207  -1.063  25.065  0.00  0.00    -0.305 NA
ATOM     25  H   UNL     1       1.008  -1.686  24.971  0.00  0.00    +0.123 HD
BRANCH   5  13
ATOM     13  C   UNL     1       0.146  -0.190  23.900  0.00  0.00    +0.116 C 
BRANCH  13  19
ATOM      1  F   UNL     1      -0.934   5.152  25.334  0.00  0.00    -0.205 F 
ATOM     19  C   UNL     1      -0.142   1.238  24.284  0.00  0.00    -0.033 A 
ATOM     20  C   UNL     1      -0.702   2.110  23.350  0.00  0.00    +0.008 A 
ATOM     21  C   UNL     1       0.150   1.687  25.572  0.00  0.00    +0.008 A 
ATOM     22  C   UNL     1      -0.969   3.432  23.705  0.00  0.00    +0.038 A 
ATOM     23  C   UNL     1      -0.118   3.009  25.926  0.00  0.00    +0.038 A 
ATOM     24  C   UNL     1      -0.677   3.882  24.993  0.00  0.00    +0.123 A 
ENDBRANCH  13  19
ENDBRANCH   5  13
ENDBRANCH   7   5
BRANCH   9  11
ATOM     11  C   UNL     1      -4.574  -1.471  24.255  0.00  0.00    +0.138 C 
BRANCH  11   6
ATOM      4  O   UNL     1      -5.316   0.875  25.783  0.00  0.00    -0.276 OA
ATOM      6  N   UNL     1      -4.373  -0.087  23.890  0.00  0.00    -0.313 N 
ATOM     15  C   UNL     1      -4.764   0.974  24.689  0.00  0.00    +0.214 C 
ATOM     26  H   UNL     1      -3.913   0.102  23.004  0.00  0.00    +0.149 HD
BRANCH  15  14
ATOM     14  C   UNL     1      -4.449   2.328  24.077  0.00  0.00    +0.102 C 
BRANCH  14  12
ATOM     12  C   UNL     1      -4.553   3.521  25.057  0.00  0.00    -0.029 C 
ATOM     16  C   UNL     1      -5.992   3.709  25.564  0.00  0.00    +0.011 C 
ATOM     17  C   UNL     1      -3.612   3.334  26.259  0.00  0.00    +0.011 C 
ATOM     18  C   UNL     1      -4.131   4.797  24.303  0.00  0.00    +0.011 C 
ENDBRANCH  14  12
ENDBRANCH  15  14
ENDBRANCH  11   6
ENDBRANCH   9  11
TORSDOF 8
ENDMDL
MODEL 9
REMARK VINA RESULT:      -3.9      3.336      6.360
REMARK  Name = 75536520
REMARK  11 active torsions:
REMARK  status: ('A' for Active; 'I' for Inactive)
REMARK    1  A    between atoms: O_3  and  C_8
REMARK    2  A    between atoms: N_5  and  C_7
REMARK    3  A    between atoms: N_5  and  C_13
REMARK    4  A    between atoms: N_6  and  C_11
REMARK    5  A    between atoms: C_9  and  C_11
REMARK    6  A    between atoms: C_12  and  C_14
REMARK    7  A    between atoms: C_12  and  C_16
REMARK    8  A    between atoms: C_12  and  C_17
REMARK    9  A    between atoms: C_12  and  C_18
REMARK   10  A    between atoms: C_13  and  C_19
REMARK   11  A    between atoms: C_14  and  C_15
REMARK                            x       y       z     vdW  Elec       q    Type
REMARK                         _______ _______ _______ _____ _____    ______ ____
ROOT
ATOM      2  O   UNL     1      -3.087  -1.986  24.218  0.00  0.00    -0.371 OA
ATOM      7  C   UNL     1      -0.927  -1.539  25.099  0.00  0.00    +0.111 C 
ATOM      8  C   UNL     1      -1.628  -0.223  24.815  0.00  0.00    +0.164 C 
ATOM      9  C   UNL     1      -3.084  -0.666  24.787  0.00  0.00    +0.165 C 
ATOM     10  C   UNL     1      -1.746  -2.503  24.257  0.00  0.00    +0.181 C 
ENDROOT
BRANCH   8   3
ATOM      3  O   UNL     1      -1.392   0.749  25.814  0.00  0.00    -0.388 OA
ATOM     27  H   UNL     1      -0.696   1.350  25.498  0.00  0.00    +0.210 HD
ENDBRANCH   8   3
BRANCH   7   5
ATOM      5  N   UNL     1       0.483  -1.536  24.748  0.00  0.00    -0.305 NA
ATOM     25  H   UNL     1       0.754  -2.473  24.452  0.00  0.00    +0.123 HD
BRANCH   5  13
ATOM     13  C   UNL     1       0.752  -0.601  23.663  0.00  0.00    +0.116 C 
BRANCH  13  19
ATOM      1  F   UNL     1       6.277   0.235  22.936  0.00  0.00    -0.205 F 
ATOM     19  C   UNL     1       2.228  -0.377  23.468  0.00  0.00    -0.033 A 
ATOM     20  C   UNL     1       3.138  -1.364  23.847  0.00  0.00    +0.008 A 
ATOM     21  C   UNL     1       2.686   0.817  22.910  0.00  0.00    +0.008 A 
ATOM     22  C   UNL     1       4.505  -1.157  23.668  0.00  0.00    +0.038 A 
ATOM     23  C   UNL     1       4.053   1.023  22.730  0.00  0.00    +0.038 A 
ATOM     24  C   UNL     1       4.963   0.036  23.109  0.00  0.00    +0.123 A 
ENDBRANCH  13  19
ENDBRANCH   5  13
ENDBRANCH   7   5
BRANCH   9  11
ATOM     11  C   UNL     1      -3.975   0.248  23.966  0.00  0.00    +0.138 C 
BRANCH  11   6
ATOM      4  O   UNL     1      -5.115   2.751  24.875  0.00  0.00    -0.276 OA
ATOM      6  N   UNL     1      -3.404   1.570  23.838  0.00  0.00    -0.313 N 
ATOM     15  C   UNL     1      -4.025   2.714  24.306  0.00  0.00    +0.214 C 
ATOM     26  H   UNL     1      -2.495   1.645  23.389  0.00  0.00    +0.149 HD
BRANCH  15  14
ATOM     14  C   UNL     1      -3.223   3.977  24.042  0.00  0.00    +0.102 C 
BRANCH  14  12
ATOM     12  C   UNL     1      -2.065   4.228  25.037  0.00  0.00    -0.029 C 
ATOM     16  C   UNL     1      -2.441   3.785  26.461  0.00  0.00    +0.011 C 
ATOM     17  C   UNL     1      -0.788   3.492  24.598  0.00  0.00    +0.011 C 
ATOM     18  C   UNL     1      -1.772   5.741  25.059  0.00  0.00    +0.011 C 
ENDBRANCH  14  12
ENDBRANCH  15  14
ENDBRANCH  11   6
ENDBRANCH   9  11
TORSDOF 8
ENDMDL
MODEL 10
REMARK VINA RESULT:      -3.7     14.932     17.128
REMARK  Name = 75536520
REMARK  11 active torsions:
REMARK  status: ('A' for Active; 'I' for Inactive)
REMARK    1  A    between atoms: O_3  and  C_8
REMARK    2  A    between atoms: N_5  and  C_7
REMARK    3  A    between atoms: N_5  and  C_13
REMARK    4  A    between atoms: N_6  and  C_11
REMARK    5  A    between atoms: C_9  and  C_11
REMARK    6  A    between atoms: C_12  and  C_14
REMARK    7  A    between atoms: C_12  and  C_16
REMARK    8  A    between atoms: C_12  and  C_17
REMARK    9  A    between atoms: C_12  and  C_18
REMARK   10  A    between atoms: C_13  and  C_19
REMARK   11  A    between atoms: C_14  and  C_15
REMARK                            x       y       z     vdW  Elec       q    Type
REMARK                         _______ _______ _______ _____ _____    ______ ____
ROOT
ATOM      2  O   UNL     1      -1.265 -10.109  12.399  0.00  0.00    -0.371 OA
ATOM      7  C   UNL     1      -2.920 -10.777  13.966  0.00  0.00    +0.111 C 
ATOM      8  C   UNL     1      -3.600 -10.119  12.778  0.00  0.00    +0.164 C 
ATOM      9  C   UNL     1      -2.520 -10.252  11.713  0.00  0.00    +0.165 C 
ATOM     10  C   UNL     1      -1.493 -10.280  13.808  0.00  0.00    +0.181 C 
ENDROOT
BRANCH   8   3
ATOM      3  O   UNL     1      -4.795 -10.774  12.401  0.00  0.00    -0.388 OA
ATOM     27  H   UNL     1      -4.572 -11.674  12.111  0.00  0.00    +0.210 HD
ENDBRANCH   8   3
BRANCH   7   5
ATOM      5  N   UNL     1      -3.508 -10.418  15.246  0.00  0.00    -0.305 NA
ATOM     25  H   UNL     1      -2.901  -9.745  15.713  0.00  0.00    +0.123 HD
BRANCH   5  13
ATOM     13  C   UNL     1      -4.827  -9.824  15.070  0.00  0.00    +0.116 C 
BRANCH  13  19
ATOM      1  F   UNL     1      -8.129 -10.686  19.553  0.00  0.00    -0.205 F 
ATOM     19  C   UNL     1      -5.710 -10.054  16.268  0.00  0.00    -0.033 A 
ATOM     20  C   UNL     1      -5.166 -10.568  17.445  0.00  0.00    +0.008 A 
ATOM     21  C   UNL     1      -7.071  -9.755  16.200  0.00  0.00    +0.008 A 
ATOM     22  C   UNL     1      -5.984 -10.781  18.554  0.00  0.00    +0.038 A 
ATOM     23  C   UNL     1      -7.888  -9.968  17.310  0.00  0.00    +0.038 A 
ATOM     24  C   UNL     1      -7.344 -10.481  18.487  0.00  0.00    +0.123 A 
ENDBRANCH  13  19
ENDBRANCH   5  13
ENDBRANCH   7   5
BRANCH   9  11
ATOM     11  C   UNL     1      -2.627  -9.207  10.617  0.00  0.00    +0.138 C 
BRANCH  11   6
ATOM      4  O   UNL     1      -5.052  -7.629  10.481  0.00  0.00    -0.276 OA
ATOM      6  N   UNL     1      -3.778  -9.439   9.774  0.00  0.00    -0.313 N 
ATOM     15  C   UNL     1      -4.898  -8.627   9.778  0.00  0.00    +0.214 C 
ATOM     26  H   UNL     1      -3.745 -10.238   9.146  0.00  0.00    +0.149 HD
BRANCH  15  14
ATOM     14  C   UNL     1      -5.973  -9.089   8.808  0.00  0.00    +0.102 C 
BRANCH  14  12
ATOM     12  C   UNL     1      -7.373  -9.280   9.438  0.00  0.00    -0.029 C 
ATOM     16  C   UNL     1      -7.281  -9.526  10.953  0.00  0.00    +0.011 C 
ATOM     17  C   UNL     1      -8.270  -8.057   9.177  0.00  0.00    +0.011 C 
ATOM     18  C   UNL     1      -8.028 -10.512   8.783  0.00  0.00    +0.011 C 
ENDBRANCH  14  12
ENDBRANCH  15  14
ENDBRANCH  11   6
ENDBRANCH   9  11
TORSDOF 8
ENDMDL
