MODEL 1
REMARK VINA RESULT:      12.7      0.000      0.000
REMARK  Name = 7144183
REMARK  5 active torsions:
REMARK  status: ('A' for Active; 'I' for Inactive)
REMARK    1  A    between atoms: O_6  and  C_30
REMARK    2  A    between atoms: O_6  and  C_35
REMARK    3  A    between atoms: C_17  and  C_22
REMARK    4  A    between atoms: C_19  and  C_23
REMARK    5  A    between atoms: C_33  and  C_34
REMARK                            x       y       z     vdW  Elec       q    Type
REMARK                         _______ _______ _______ _____ _____    ______ ____
ROOT
ATOM      4  O   UNL     1      -3.275   4.387  28.444  0.00  0.00    -0.268 OA
ATOM      5  O   UNL     1      -6.259   2.057  25.066  0.00  0.00    -0.270 OA
ATOM      7  N   UNL     1      -4.397   2.826  23.878  0.00  0.00    -0.297 N 
ATOM      8  N   UNL     1      -2.651   4.033  26.215  0.00  0.00    -0.311 N 
ATOM     10  C   UNL     1      -3.856   5.213  24.281  0.00  0.00    +0.027 C 
ATOM     11  C   UNL     1      -2.042   3.619  23.812  0.00  0.00    +0.054 C 
ATOM     12  C   UNL     1      -2.535   5.040  23.546  0.00  0.00    +0.018 C 
ATOM     13  C   UNL     1      -4.894   4.196  23.777  0.00  0.00    +0.113 C 
ATOM     14  C   UNL     1      -3.597   5.073  25.783  0.00  0.00    +0.130 C 
ATOM     15  C   UNL     1      -3.075   2.605  23.273  0.00  0.00    +0.117 C 
ATOM     16  C   UNL     1      -1.800   3.375  25.304  0.00  0.00    +0.034 A 
ATOM     17  C   UNL     1      -0.834   2.538  25.763  0.00  0.00    +0.002 A 
ATOM     18  C   UNL     1      -2.568   3.830  27.604  0.00  0.00    +0.252 A 
ATOM     19  C   UNL     1      -5.153   1.869  24.561  0.00  0.00    +0.247 C 
ATOM     20  C   UNL     1      -0.722   2.300  27.189  0.00  0.00    +0.015 A 
ATOM     21  C   UNL     1      -1.533   2.881  28.073  0.00  0.00    +0.071 A 
ENDROOT
BRANCH  17  22
ATOM     22  C   UNL     1       0.097   1.845  24.845  0.00  0.00    -0.016 A 
ATOM     24  C   UNL     1      -0.089   0.496  24.560  0.00  0.00    +0.012 A 
ATOM     25  C   UNL     1       1.152   2.549  24.272  0.00  0.00    +0.012 A 
ATOM     28  C   UNL     1       0.789  -0.156  23.695  0.00  0.00    +0.046 A 
ATOM     29  C   UNL     1       2.030   1.896  23.406  0.00  0.00    +0.046 A 
ATOM     30  C   UNL     1       1.848   0.544  23.118  0.00  0.00    +0.130 A 
BRANCH  30   6
ATOM      6  O   UNL     1       2.705  -0.093  22.274  0.00  0.00    -0.406 OA
BRANCH   6  35
ATOM      1  F   UNL     1       4.350   0.928  23.434  0.00  0.00    -0.133 F 
ATOM      2  F   UNL     1       4.430  -1.246  23.234  0.00  0.00    -0.133 F 
ATOM      3  F   UNL     1       4.851   0.052  21.496  0.00  0.00    -0.133 F 
ATOM     35  C   UNL     1       4.090  -0.104  22.601  0.00  0.00    +0.575 C 
ENDBRANCH   6  35
ENDBRANCH  30   6
ENDBRANCH  17  22
BRANCH  19  23
ATOM     23  C   UNL     1      -4.592   0.522  24.717  0.00  0.00    +0.037 A 
ATOM     26  C   UNL     1      -4.820  -0.443  23.738  0.00  0.00    +0.014 A 
ATOM     27  C   UNL     1      -3.831   0.215  25.842  0.00  0.00    +0.014 A 
ATOM     31  C   UNL     1      -4.284  -1.722  23.886  0.00  0.00    +0.019 A 
ATOM     32  C   UNL     1      -3.295  -1.064  25.989  0.00  0.00    +0.019 A 
ATOM     33  C   UNL     1      -3.523  -2.033  25.012  0.00  0.00    +0.052 A 
BRANCH  33  34
ATOM      9  N   UNL     1      -2.532  -4.411  25.288  0.00  0.00    -0.191 NA
ATOM     34  C   UNL     1      -2.976  -3.344  25.164  0.00  0.00    +0.099 C 
ENDBRANCH  33  34
ENDBRANCH  19  23
TORSDOF 5
ENDMDL
MODEL 2
REMARK VINA RESULT:      16.1      3.460      6.483
REMARK  Name = 7144183
REMARK  5 active torsions:
REMARK  status: ('A' for Active; 'I' for Inactive)
REMARK    1  A    between atoms: O_6  and  C_30
REMARK    2  A    between atoms: O_6  and  C_35
REMARK    3  A    between atoms: C_17  and  C_22
REMARK    4  A    between atoms: C_19  and  C_23
REMARK    5  A    between atoms: C_33  and  C_34
REMARK                            x       y       z     vdW  Elec       q    Type
REMARK                         _______ _______ _______ _____ _____    ______ ____
ROOT
ATOM      4  O   UNL     1       0.207  -0.122  21.412  0.00  0.00    -0.268 OA
ATOM      5  O   UNL     1      -4.384  -1.390  23.159  0.00  0.00    -0.270 OA
ATOM      7  N   UNL     1      -2.930  -1.510  24.986  0.00  0.00    -0.297 N 
ATOM      8  N   UNL     1      -0.240  -0.498  23.680  0.00  0.00    -0.311 N 
ATOM     10  C   UNL     1      -0.871  -2.826  24.555  0.00  0.00    +0.027 C 
ATOM     11  C   UNL     1      -0.789  -0.912  26.098  0.00  0.00    +0.054 C 
ATOM     12  C   UNL     1      -0.279  -2.333  25.867  0.00  0.00    +0.018 C 
ATOM     13  C   UNL     1      -2.407  -2.825  24.620  0.00  0.00    +0.113 C 
ATOM     14  C   UNL     1      -0.344  -1.942  23.422  0.00  0.00    +0.130 C 
ATOM     15  C   UNL     1      -2.330  -0.926  26.194  0.00  0.00    +0.117 C 
ATOM     16  C   UNL     1      -0.344   0.036  24.981  0.00  0.00    +0.034 A 
ATOM     17  C   UNL     1      -0.085   1.352  25.195  0.00  0.00    +0.002 A 
ATOM     18  C   UNL     1       0.090   0.293  22.566  0.00  0.00    +0.252 A 
ATOM     19  C   UNL     1      -3.884  -0.898  24.170  0.00  0.00    +0.247 C 
ATOM     20  C   UNL     1       0.253   2.200  24.068  0.00  0.00    +0.015 A 
ATOM     21  C   UNL     1       0.327   1.732  22.823  0.00  0.00    +0.071 A 
ENDROOT
BRANCH  17  22
ATOM     22  C   UNL     1      -0.158   1.950  26.547  0.00  0.00    -0.016 A 
ATOM     24  C   UNL     1      -1.325   2.585  26.959  0.00  0.00    +0.012 A 
ATOM     25  C   UNL     1       0.942   1.873  27.396  0.00  0.00    +0.012 A 
ATOM     28  C   UNL     1      -1.393   3.148  28.233  0.00  0.00    +0.046 A 
ATOM     29  C   UNL     1       0.874   2.437  28.670  0.00  0.00    +0.046 A 
ATOM     30  C   UNL     1      -0.294   3.074  29.088  0.00  0.00    +0.130 A 
BRANCH  30   6
ATOM      6  O   UNL     1      -0.360   3.625  30.331  0.00  0.00    -0.406 OA
BRANCH   6  35
ATOM      1  F   UNL     1       0.853   3.980  32.201  0.00  0.00    -0.133 F 
ATOM      2  F   UNL     1      -0.397   2.190  32.111  0.00  0.00    -0.133 F 
ATOM      3  F   UNL     1       1.441   2.332  30.892  0.00  0.00    -0.133 F 
ATOM     35  C   UNL     1       0.383   3.014  31.380  0.00  0.00    +0.575 C 
ENDBRANCH   6  35
ENDBRANCH  30   6
ENDBRANCH  17  22
BRANCH  19  23
ATOM     23  C   UNL     1      -4.329   0.456  24.518  0.00  0.00    +0.037 A 
ATOM     26  C   UNL     1      -5.432   0.632  25.351  0.00  0.00    +0.014 A 
ATOM     27  C   UNL     1      -3.646   1.561  24.015  0.00  0.00    +0.014 A 
ATOM     31  C   UNL     1      -5.854   1.919  25.683  0.00  0.00    +0.019 A 
ATOM     32  C   UNL     1      -4.068   2.848  24.347  0.00  0.00    +0.019 A 
ATOM     33  C   UNL     1      -5.172   3.028  25.180  0.00  0.00    +0.052 A 
BRANCH  33  34
ATOM      9  N   UNL     1      -5.958   5.419  25.793  0.00  0.00    -0.191 NA
ATOM     34  C   UNL     1      -5.606   4.346  25.518  0.00  0.00    +0.099 C 
ENDBRANCH  33  34
ENDBRANCH  19  23
TORSDOF 5
ENDMDL
