MODEL 1
REMARK VINA RESULT:      -0.6      0.000      0.000
REMARK  Name = 26743352
REMARK  8 active torsions:
REMARK  status: ('A' for Active; 'I' for Inactive)
REMARK    1  A    between atoms: N_7  and  C_26
REMARK    2  A    between atoms: C_8  and  C_11
REMARK    3  A    between atoms: C_9  and  C_14
REMARK    4  A    between atoms: C_11  and  C_20
REMARK    5  A    between atoms: C_14  and  C_22
REMARK    6  A    between atoms: C_15  and  C_21
REMARK    7  A    between atoms: C_21  and  C_23
REMARK    8  A    between atoms: C_25  and  C_26
REMARK                            x       y       z     vdW  Elec       q    Type
REMARK                         _______ _______ _______ _____ _____    ______ ____
ROOT
ATOM      5  N   UNL     1      -0.313   5.746  24.629  0.00  0.00    -0.316 NA
ATOM      8  C   UNL     1      -2.687   4.369  25.713  0.00  0.00    +0.004 C 
ATOM      9  C   UNL     1      -1.334   3.653  25.490  0.00  0.00    +0.012 C 
ATOM     10  C   UNL     1      -2.434   5.876  25.888  0.00  0.00    +0.019 C 
ATOM     12  C   UNL     1      -0.515   4.320  24.372  0.00  0.00    +0.085 C 
ATOM     13  C   UNL     1      -1.581   6.459  24.763  0.00  0.00    +0.081 C 
ATOM     36  H   UNL     1       0.226   6.153  23.865  0.00  0.00    +0.122 HD
ENDROOT
BRANCH   8  11
ATOM     11  C   UNL     1      -3.717   4.114  24.606  0.00  0.00    +0.100 C 
BRANCH  11  20
ATOM      1  O   UNL     1      -5.466   3.529  26.094  0.00  0.00    -0.276 OA
ATOM      4  N   UNL     1      -4.973   1.994  24.421  0.00  0.00    -0.301 N 
ATOM     15  C   UNL     1      -4.661  -0.839  23.882  0.00  0.00    -0.004 C 
ATOM     16  C   UNL     1      -3.588   0.184  23.482  0.00  0.00    +0.023 C 
ATOM     17  C   UNL     1      -5.458  -0.327  25.092  0.00  0.00    +0.023 C 
ATOM     18  C   UNL     1      -4.196   1.567  23.253  0.00  0.00    +0.108 C 
ATOM     19  C   UNL     1      -6.029   1.065  24.828  0.00  0.00    +0.108 C 
ATOM     20  C   UNL     1      -4.799   3.193  25.112  0.00  0.00    +0.216 C 
BRANCH  15  21
ATOM     21  C   UNL     1      -4.033  -2.198  24.183  0.00  0.00    +0.038 C 
BRANCH  21  23
ATOM     23  C   UNL     1      -2.676  -2.054  24.813  0.00  0.00    -0.047 A 
ATOM     27  C   UNL     1      -2.513  -1.253  25.944  0.00  0.00    +0.003 A 
ATOM     28  C   UNL     1      -1.579  -2.720  24.268  0.00  0.00    +0.003 A 
ATOM     31  C   UNL     1      -1.255  -1.119  26.530  0.00  0.00    +0.000 A 
ATOM     32  C   UNL     1      -0.319  -2.586  24.853  0.00  0.00    +0.000 A 
ATOM     35  C   UNL     1      -0.157  -1.786  25.984  0.00  0.00    +0.000 A 
ENDBRANCH  21  23
ENDBRANCH  15  21
ENDBRANCH  11  20
ENDBRANCH   8  11
BRANCH   9  14
ATOM     14  C   UNL     1      -1.486   2.155  25.224  0.00  0.00    +0.064 C 
BRANCH  14  22
ATOM      2  O   UNL     1       1.786   1.292  23.995  0.00  0.00    -0.358 OA
ATOM      6  N   UNL     1       0.937   1.974  24.857  0.00  0.00    -0.083 NA
ATOM     22  C   UNL     1      -0.294   1.605  24.494  0.00  0.00    +0.084 A 
ATOM     24  C   UNL     1      -0.285   0.698  23.420  0.00  0.00    +0.072 A 
ATOM     25  C   UNL     1       1.047   0.535  23.143  0.00  0.00    +0.151 A 
BRANCH  25  26
ATOM     26  C   UNL     1       1.791  -0.258  22.157  0.00  0.00    +0.161 C 
BRANCH  26   7
ATOM      3  O   UNL     1       5.403  -0.239  24.293  0.00  0.00    -0.377 OA
ATOM      7  N   UNL     1       3.202  -0.421  22.496  0.00  0.00    -0.291 NA
ATOM     29  C   UNL     1       3.365  -1.366  23.610  0.00  0.00    +0.113 C 
ATOM     30  C   UNL     1       3.808   0.873  22.841  0.00  0.00    +0.113 C 
ATOM     33  C   UNL     1       4.846  -1.510  23.955  0.00  0.00    +0.175 C 
ATOM     34  C   UNL     1       5.278   0.677  23.203  0.00  0.00    +0.175 C 
ENDBRANCH  26   7
ENDBRANCH  25  26
ENDBRANCH  14  22
ENDBRANCH   9  14
TORSDOF 8
ENDMDL
MODEL 2
REMARK VINA RESULT:       3.3      1.795      6.406
REMARK  Name = 26743352
REMARK  8 active torsions:
REMARK  status: ('A' for Active; 'I' for Inactive)
REMARK    1  A    between atoms: N_7  and  C_26
REMARK    2  A    between atoms: C_8  and  C_11
REMARK    3  A    between atoms: C_9  and  C_14
REMARK    4  A    between atoms: C_11  and  C_20
REMARK    5  A    between atoms: C_14  and  C_22
REMARK    6  A    between atoms: C_15  and  C_21
REMARK    7  A    between atoms: C_21  and  C_23
REMARK    8  A    between atoms: C_25  and  C_26
REMARK                            x       y       z     vdW  Elec       q    Type
REMARK                         _______ _______ _______ _____ _____    ______ ____
ROOT
ATOM      5  N   UNL     1      -4.274  -2.867  24.090  0.00  0.00    -0.316 NA
ATOM      8  C   UNL     1      -4.102  -0.423  25.734  0.00  0.00    +0.004 C 
ATOM      9  C   UNL     1      -5.133  -0.593  24.594  0.00  0.00    +0.012 C 
ATOM     10  C   UNL     1      -3.685  -1.813  26.245  0.00  0.00    +0.019 C 
ATOM     12  C   UNL     1      -4.634  -1.570  23.516  0.00  0.00    +0.085 C 
ATOM     13  C   UNL     1      -3.240  -2.740  25.115  0.00  0.00    +0.081 C 
ATOM     36  H   UNL     1      -3.942  -3.483  23.349  0.00  0.00    +0.122 HD
ENDROOT
BRANCH   8  11
ATOM     11  C   UNL     1      -2.872   0.406  25.344  0.00  0.00    +0.100 C 
BRANCH  11  20
ATOM      1  O   UNL     1      -1.309  -0.608  26.808  0.00  0.00    -0.276 OA
ATOM      4  N   UNL     1      -0.859  -0.776  24.535  0.00  0.00    -0.301 N 
ATOM     15  C   UNL     1       1.270  -0.639  22.569  0.00  0.00    -0.004 C 
ATOM     16  C   UNL     1      -0.027   0.170  22.416  0.00  0.00    +0.023 C 
ATOM     17  C   UNL     1       1.554  -0.909  24.054  0.00  0.00    +0.023 C 
ATOM     18  C   UNL     1      -1.193  -0.509  23.132  0.00  0.00    +0.108 C 
ATOM     19  C   UNL     1       0.356  -1.568  24.735  0.00  0.00    +0.108 C 
ATOM     20  C   UNL     1      -1.613  -0.371  25.636  0.00  0.00    +0.216 C 
BRANCH  15  21
ATOM     21  C   UNL     1       2.444   0.087  21.916  0.00  0.00    +0.038 C 
BRANCH  21  23
ATOM     23  C   UNL     1       3.697  -0.035  22.737  0.00  0.00    -0.047 A 
ATOM     27  C   UNL     1       4.056  -1.267  23.284  0.00  0.00    +0.003 A 
ATOM     28  C   UNL     1       4.502   1.084  22.952  0.00  0.00    +0.003 A 
ATOM     31  C   UNL     1       5.219  -1.380  24.046  0.00  0.00    +0.000 A 
ATOM     32  C   UNL     1       5.664   0.972  23.715  0.00  0.00    +0.000 A 
ATOM     35  C   UNL     1       6.023  -0.261  24.261  0.00  0.00    +0.000 A 
ENDBRANCH  21  23
ENDBRANCH  15  21
ENDBRANCH  11  20
ENDBRANCH   8  11
BRANCH   9  14
ATOM     14  C   UNL     1      -5.552   0.735  23.962  0.00  0.00    +0.064 C 
BRANCH  14  22
ATOM      2  O   UNL     1      -4.641   3.446  26.150  0.00  0.00    -0.358 OA
ATOM      6  N   UNL     1      -5.473   2.401  25.767  0.00  0.00    -0.083 NA
ATOM     22  C   UNL     1      -4.913   1.900  24.662  0.00  0.00    +0.084 A 
ATOM     24  C   UNL     1      -3.737   2.581  24.304  0.00  0.00    +0.072 A 
ATOM     25  C   UNL     1      -3.611   3.544  25.271  0.00  0.00    +0.151 A 
BRANCH  25  26
ATOM     26  C   UNL     1      -2.629   4.604  25.528  0.00  0.00    +0.161 C 
BRANCH  26   7
ATOM      3  O   UNL     1       0.713   2.087  25.194  0.00  0.00    -0.377 OA
ATOM      7  N   UNL     1      -1.248   4.128  25.505  0.00  0.00    -0.291 NA
ATOM     29  C   UNL     1      -0.905   3.587  24.182  0.00  0.00    +0.113 C 
ATOM     30  C   UNL     1      -1.032   3.105  26.538  0.00  0.00    +0.113 C 
ATOM     33  C   UNL     1       0.537   3.083  24.186  0.00  0.00    +0.175 C 
ATOM     34  C   UNL     1       0.412   2.614  26.487  0.00  0.00    +0.175 C 
ENDBRANCH  26   7
ENDBRANCH  25  26
ENDBRANCH  14  22
ENDBRANCH   9  14
TORSDOF 8
ENDMDL
