MODEL 1
REMARK VINA RESULT:      -6.4      0.000      0.000
REMARK  Name = 40781602
REMARK  9 active torsions:
REMARK  status: ('A' for Active; 'I' for Inactive)
REMARK    1  A    between atoms: O_2  and  C_9
REMARK    2  A    between atoms: O_3  and  C_10
REMARK    3  A    between atoms: N_7  and  C_13
REMARK    4  A    between atoms: N_8  and  C_18
REMARK    5  A    between atoms: C_11  and  C_13
REMARK    6  A    between atoms: C_12  and  C_14
REMARK    7  A    between atoms: C_14  and  C_15
REMARK    8  A    between atoms: C_16  and  C_17
REMARK    9  A    between atoms: C_18  and  C_21
REMARK                            x       y       z     vdW  Elec       q    Type
REMARK                         _______ _______ _______ _____ _____    ______ ____
ROOT
ATOM      1  O   UNL     1      -2.452   2.492  23.887  0.00  0.00    -0.366 OA
ATOM      9  C   UNL     1      -0.822   2.773  25.568  0.00  0.00    +0.176 C 
ATOM     10  C   UNL     1      -1.810   3.916  25.683  0.00  0.00    +0.175 C 
ATOM     11  C   UNL     1      -1.045   2.319  24.136  0.00  0.00    +0.167 C 
ATOM     12  C   UNL     1      -2.996   3.389  24.882  0.00  0.00    +0.158 C 
ENDROOT
BRANCH   9   2
ATOM      2  O   UNL     1       0.515   3.165  25.798  0.00  0.00    -0.387 OA
ATOM     24  H   UNL     1       0.590   4.104  25.557  0.00  0.00    +0.210 HD
ENDBRANCH   9   2
BRANCH  10   3
ATOM      3  O   UNL     1      -1.307   5.074  25.018  0.00  0.00    -0.387 OA
ATOM     25  H   UNL     1      -1.922   5.284  24.295  0.00  0.00    +0.210 HD
ENDBRANCH  10   3
BRANCH  11  13
ATOM     13  C   UNL     1      -0.658   0.870  23.896  0.00  0.00    +0.138 C 
BRANCH  13   7
ATOM      5  O   UNL     1       0.986  -0.276  21.839  0.00  0.00    -0.267 OA
ATOM      7  N   UNL     1       0.765   0.703  23.932  0.00  0.00    -0.306 N 
ATOM     16  C   UNL     1       1.486   0.134  22.885  0.00  0.00    +0.279 C 
ATOM     26  H   UNL     1       1.253   1.019  24.764  0.00  0.00    +0.149 HD
BRANCH  16  17
ATOM      6  O   UNL     1       3.422  -1.153  23.615  0.00  0.00    -0.458 OA
ATOM     17  C   UNL     1       2.951   0.007  23.087  0.00  0.00    +0.189 A 
ATOM     19  C   UNL     1       3.987   0.877  22.832  0.00  0.00    +0.054 A 
ATOM     20  C   UNL     1       5.169   0.207  23.229  0.00  0.00    +0.042 A 
ATOM     22  C   UNL     1       4.772  -1.024  23.698  0.00  0.00    +0.196 A 
ENDBRANCH  16  17
ENDBRANCH  13   7
ENDBRANCH  11  13
BRANCH  12  14
ATOM     14  C   UNL     1      -3.985   2.600  25.730  0.00  0.00    +0.130 C 
BRANCH  14  15
ATOM      4  O   UNL     1      -5.834   1.741  24.429  0.00  0.00    -0.276 OA
ATOM      8  N   UNL     1      -4.007   0.366  24.847  0.00  0.00    -0.304 N 
ATOM     15  C   UNL     1      -4.729   1.547  24.930  0.00  0.00    +0.216 C 
ATOM     27  H   UNL     1      -3.105   0.303  25.310  0.00  0.00    +0.150 HD
BRANCH   8  18
ATOM     18  C   UNL     1      -4.484  -0.802  24.143  0.00  0.00    +0.193 C 
BRANCH  18  21
ATOM     21  C   UNL     1      -3.604  -1.949  24.367  0.00  0.00    -0.087 C 
ATOM     23  C   UNL     1      -2.878  -2.887  24.550  0.00  0.00    +0.005 C 
ENDBRANCH  18  21
ENDBRANCH   8  18
ENDBRANCH  14  15
ENDBRANCH  12  14
TORSDOF 9
ENDMDL
MODEL 2
REMARK VINA RESULT:      -6.0      1.878      3.810
REMARK  Name = 40781602
REMARK  9 active torsions:
REMARK  status: ('A' for Active; 'I' for Inactive)
REMARK    1  A    between atoms: O_2  and  C_9
REMARK    2  A    between atoms: O_3  and  C_10
REMARK    3  A    between atoms: N_7  and  C_13
REMARK    4  A    between atoms: N_8  and  C_18
REMARK    5  A    between atoms: C_11  and  C_13
REMARK    6  A    between atoms: C_12  and  C_14
REMARK    7  A    between atoms: C_14  and  C_15
REMARK    8  A    between atoms: C_16  and  C_17
REMARK    9  A    between atoms: C_18  and  C_21
REMARK                            x       y       z     vdW  Elec       q    Type
REMARK                         _______ _______ _______ _____ _____    ______ ____
ROOT
ATOM      1  O   UNL     1      -1.973   0.815  25.055  0.00  0.00    -0.366 OA
ATOM      9  C   UNL     1      -2.356  -1.337  24.171  0.00  0.00    +0.176 C 
ATOM     10  C   UNL     1      -3.343  -1.115  25.299  0.00  0.00    +0.175 C 
ATOM     11  C   UNL     1      -1.280  -0.317  24.503  0.00  0.00    +0.167 C 
ATOM     12  C   UNL     1      -3.295   0.400  25.467  0.00  0.00    +0.158 C 
ENDROOT
BRANCH   9   2
ATOM      2  O   UNL     1      -1.846  -2.652  24.126  0.00  0.00    -0.387 OA
ATOM     24  H   UNL     1      -2.423  -3.170  23.539  0.00  0.00    +0.210 HD
ENDBRANCH   9   2
BRANCH  10   3
ATOM      3  O   UNL     1      -2.860  -1.709  26.504  0.00  0.00    -0.387 OA
ATOM     25  H   UNL     1      -3.562  -1.623  27.171  0.00  0.00    +0.210 HD
ENDBRANCH  10   3
BRANCH  11  13
ATOM     13  C   UNL     1      -0.470   0.118  23.294  0.00  0.00    +0.138 C 
BRANCH  13   7
ATOM      5  O   UNL     1       1.647  -0.316  21.403  0.00  0.00    -0.267 OA
ATOM      7  N   UNL     1       0.935   0.089  23.575  0.00  0.00    -0.306 N 
ATOM     16  C   UNL     1       1.898  -0.129  22.592  0.00  0.00    +0.279 C 
ATOM     26  H   UNL     1       1.224   0.238  24.536  0.00  0.00    +0.149 HD
BRANCH  16  17
ATOM      6  O   UNL     1       3.758  -1.278  23.667  0.00  0.00    -0.458 OA
ATOM     17  C   UNL     1       3.310  -0.154  23.048  0.00  0.00    +0.189 A 
ATOM     19  C   UNL     1       4.313   0.784  22.966  0.00  0.00    +0.054 A 
ATOM     20  C   UNL     1       5.450   0.198  23.572  0.00  0.00    +0.042 A 
ATOM     22  C   UNL     1       5.061  -1.056  23.983  0.00  0.00    +0.196 A 
ENDBRANCH  16  17
ENDBRANCH  13   7
ENDBRANCH  11  13
BRANCH  12  14
ATOM     14  C   UNL     1      -4.306   1.129  24.592  0.00  0.00    +0.130 C 
BRANCH  14  15
ATOM      4  O   UNL     1      -4.182   3.230  23.401  0.00  0.00    -0.276 OA
ATOM      8  N   UNL     1      -3.464   3.136  25.609  0.00  0.00    -0.304 N 
ATOM     15  C   UNL     1      -3.989   2.605  24.440  0.00  0.00    +0.216 C 
ATOM     27  H   UNL     1      -3.330   2.528  26.412  0.00  0.00    +0.150 HD
BRANCH   8  18
ATOM     18  C   UNL     1      -3.073   4.521  25.741  0.00  0.00    +0.193 C 
BRANCH  18  21
ATOM     21  C   UNL     1      -1.718   4.737  25.232  0.00  0.00    -0.087 C 
ATOM     23  C   UNL     1      -0.607   4.911  24.812  0.00  0.00    +0.005 C 
ENDBRANCH  18  21
ENDBRANCH   8  18
ENDBRANCH  14  15
ENDBRANCH  12  14
TORSDOF 9
ENDMDL
MODEL 3
REMARK VINA RESULT:      -5.0      2.048      7.212
REMARK  Name = 40781602
REMARK  9 active torsions:
REMARK  status: ('A' for Active; 'I' for Inactive)
REMARK    1  A    between atoms: O_2  and  C_9
REMARK    2  A    between atoms: O_3  and  C_10
REMARK    3  A    between atoms: N_7  and  C_13
REMARK    4  A    between atoms: N_8  and  C_18
REMARK    5  A    between atoms: C_11  and  C_13
REMARK    6  A    between atoms: C_12  and  C_14
REMARK    7  A    between atoms: C_14  and  C_15
REMARK    8  A    between atoms: C_16  and  C_17
REMARK    9  A    between atoms: C_18  and  C_21
REMARK                            x       y       z     vdW  Elec       q    Type
REMARK                         _______ _______ _______ _____ _____    ______ ____
ROOT
ATOM      1  O   UNL     1      -1.260  -1.898  23.537  0.00  0.00    -0.366 OA
ATOM      9  C   UNL     1      -1.883  -0.965  25.611  0.00  0.00    +0.176 C 
ATOM     10  C   UNL     1      -0.373  -1.083  25.589  0.00  0.00    +0.175 C 
ATOM     11  C   UNL     1      -2.283  -1.972  24.545  0.00  0.00    +0.167 C 
ATOM     12  C   UNL     1      -0.092  -1.259  24.101  0.00  0.00    +0.158 C 
ENDROOT
BRANCH   9   2
ATOM      2  O   UNL     1      -2.450  -1.271  26.868  0.00  0.00    -0.387 OA
ATOM     24  H   UNL     1      -1.720  -1.345  27.507  0.00  0.00    +0.210 HD
ENDBRANCH   9   2
BRANCH  10   3
ATOM      3  O   UNL     1       0.041  -2.271  26.262  0.00  0.00    -0.387 OA
ATOM     25  H   UNL     1      -0.238  -2.191  27.190  0.00  0.00    +0.210 HD
ENDBRANCH  10   3
BRANCH  11  13
ATOM     13  C   UNL     1      -3.637  -1.683  23.922  0.00  0.00    +0.138 C 
BRANCH  13   7
ATOM      5  O   UNL     1      -3.099   1.002  23.060  0.00  0.00    -0.267 OA
ATOM      7  N   UNL     1      -4.208  -0.482  24.458  0.00  0.00    -0.306 N 
ATOM     16  C   UNL     1      -3.889   0.785  23.977  0.00  0.00    +0.279 C 
ATOM     26  H   UNL     1      -4.872  -0.578  25.219  0.00  0.00    +0.149 HD
BRANCH  16  17
ATOM      6  O   UNL     1      -3.827   3.074  24.812  0.00  0.00    -0.458 OA
ATOM     17  C   UNL     1      -4.545   1.931  24.655  0.00  0.00    +0.189 A 
ATOM     19  C   UNL     1      -5.806   2.076  25.187  0.00  0.00    +0.054 A 
ATOM     20  C   UNL     1      -5.866   3.393  25.702  0.00  0.00    +0.042 A 
ATOM     22  C   UNL     1      -4.638   3.959  25.450  0.00  0.00    +0.196 A 
ENDBRANCH  16  17
ENDBRANCH  13   7
ENDBRANCH  11  13
BRANCH  12  14
ATOM     14  C   UNL     1       0.114   0.062  23.372  0.00  0.00    +0.130 C 
BRANCH  14  15
ATOM      4  O   UNL     1       1.421  -0.471  21.409  0.00  0.00    -0.276 OA
ATOM      8  N   UNL     1       2.405   0.741  23.131  0.00  0.00    -0.304 N 
ATOM     15  C   UNL     1       1.364   0.066  22.512  0.00  0.00    +0.216 C 
ATOM     27  H   UNL     1       2.259   1.139  24.054  0.00  0.00    +0.150 HD
BRANCH   8  18
ATOM     18  C   UNL     1       3.712   0.895  22.532  0.00  0.00    +0.193 C 
BRANCH  18  21
ATOM     21  C   UNL     1       4.744   0.258  23.350  0.00  0.00    -0.087 C 
ATOM     23  C   UNL     1       5.593  -0.266  24.018  0.00  0.00    +0.005 C 
ENDBRANCH  18  21
ENDBRANCH   8  18
ENDBRANCH  14  15
ENDBRANCH  12  14
TORSDOF 9
ENDMDL
MODEL 4
REMARK VINA RESULT:      -4.8      2.580      6.781
REMARK  Name = 40781602
REMARK  9 active torsions:
REMARK  status: ('A' for Active; 'I' for Inactive)
REMARK    1  A    between atoms: O_2  and  C_9
REMARK    2  A    between atoms: O_3  and  C_10
REMARK    3  A    between atoms: N_7  and  C_13
REMARK    4  A    between atoms: N_8  and  C_18
REMARK    5  A    between atoms: C_11  and  C_13
REMARK    6  A    between atoms: C_12  and  C_14
REMARK    7  A    between atoms: C_14  and  C_15
REMARK    8  A    between atoms: C_16  and  C_17
REMARK    9  A    between atoms: C_18  and  C_21
REMARK                            x       y       z     vdW  Elec       q    Type
REMARK                         _______ _______ _______ _____ _____    ______ ____
ROOT
ATOM      1  O   UNL     1      -1.447  -1.782  23.490  0.00  0.00    -0.366 OA
ATOM      9  C   UNL     1      -1.923  -1.010  25.667  0.00  0.00    +0.176 C 
ATOM     10  C   UNL     1      -0.422  -0.961  25.474  0.00  0.00    +0.175 C 
ATOM     11  C   UNL     1      -2.335  -2.009  24.599  0.00  0.00    +0.167 C 
ATOM     12  C   UNL     1      -0.295  -1.044  23.957  0.00  0.00    +0.158 C 
ENDROOT
BRANCH   9   2
ATOM      2  O   UNL     1      -2.308  -1.428  26.960  0.00  0.00    -0.387 OA
ATOM     24  H   UNL     1      -1.507  -1.447  27.511  0.00  0.00    +0.210 HD
ENDBRANCH   9   2
BRANCH  10   3
ATOM      3  O   UNL     1       0.188  -2.124  26.033  0.00  0.00    -0.387 OA
ATOM     25  H   UNL     1      -0.293  -2.338  26.851  0.00  0.00    +0.210 HD
ENDBRANCH  10   3
BRANCH  11  13
ATOM     13  C   UNL     1      -3.775  -1.844  24.144  0.00  0.00    +0.138 C 
BRANCH  13   7
ATOM      5  O   UNL     1      -3.335   0.792  23.093  0.00  0.00    -0.267 OA
ATOM      7  N   UNL     1      -4.337  -0.621  24.637  0.00  0.00    -0.306 N 
ATOM     16  C   UNL     1      -4.068   0.619  24.064  0.00  0.00    +0.279 C 
ATOM     26  H   UNL     1      -4.956  -0.681  25.439  0.00  0.00    +0.149 HD
BRANCH  16  17
ATOM      6  O   UNL     1      -4.013   2.962  24.734  0.00  0.00    -0.458 OA
ATOM     17  C   UNL     1      -4.707   1.794  24.709  0.00  0.00    +0.189 A 
ATOM     19  C   UNL     1      -5.931   1.947  25.320  0.00  0.00    +0.054 A 
ATOM     20  C   UNL     1      -5.992   3.295  25.747  0.00  0.00    +0.042 A 
ATOM     22  C   UNL     1      -4.801   3.870  25.368  0.00  0.00    +0.196 A 
ENDBRANCH  16  17
ENDBRANCH  13   7
ENDBRANCH  11  13
BRANCH  12  14
ATOM     14  C   UNL     1      -0.312   0.322  23.282  0.00  0.00    +0.130 C 
BRANCH  14  15
ATOM      4  O   UNL     1       1.309   1.822  24.267  0.00  0.00    -0.276 OA
ATOM      8  N   UNL     1      -0.908   1.941  24.953  0.00  0.00    -0.304 N 
ATOM     15  C   UNL     1       0.145   1.435  24.206  0.00  0.00    +0.216 C 
ATOM     27  H   UNL     1      -1.835   1.540  24.838  0.00  0.00    +0.150 HD
BRANCH   8  18
ATOM     18  C   UNL     1      -0.752   3.009  25.915  0.00  0.00    +0.193 C 
BRANCH  18  21
ATOM     21  C   UNL     1      -1.036   4.309  25.308  0.00  0.00    -0.087 C 
ATOM     23  C   UNL     1      -1.268   5.378  24.813  0.00  0.00    +0.005 C 
ENDBRANCH  18  21
ENDBRANCH   8  18
ENDBRANCH  14  15
ENDBRANCH  12  14
TORSDOF 9
ENDMDL
MODEL 5
REMARK VINA RESULT:      -4.6      2.091      4.098
REMARK  Name = 40781602
REMARK  9 active torsions:
REMARK  status: ('A' for Active; 'I' for Inactive)
REMARK    1  A    between atoms: O_2  and  C_9
REMARK    2  A    between atoms: O_3  and  C_10
REMARK    3  A    between atoms: N_7  and  C_13
REMARK    4  A    between atoms: N_8  and  C_18
REMARK    5  A    between atoms: C_11  and  C_13
REMARK    6  A    between atoms: C_12  and  C_14
REMARK    7  A    between atoms: C_14  and  C_15
REMARK    8  A    between atoms: C_16  and  C_17
REMARK    9  A    between atoms: C_18  and  C_21
REMARK                            x       y       z     vdW  Elec       q    Type
REMARK                         _______ _______ _______ _____ _____    ______ ____
ROOT
ATOM      1  O   UNL     1      -3.346  -0.003  25.740  0.00  0.00    -0.366 OA
ATOM      9  C   UNL     1      -1.837  -1.467  24.673  0.00  0.00    +0.176 C 
ATOM     10  C   UNL     1      -3.237  -2.001  24.452  0.00  0.00    +0.175 C 
ATOM     11  C   UNL     1      -2.037  -0.580  25.890  0.00  0.00    +0.167 C 
ATOM     12  C   UNL     1      -4.095  -0.784  24.780  0.00  0.00    +0.158 C 
ENDROOT
BRANCH   9   2
ATOM      2  O   UNL     1      -0.883  -2.482  24.907  0.00  0.00    -0.387 OA
ATOM     24  H   UNL     1      -0.206  -2.114  25.500  0.00  0.00    +0.210 HD
ENDBRANCH   9   2
BRANCH  10   3
ATOM      3  O   UNL     1      -3.535  -3.021  25.404  0.00  0.00    -0.387 OA
ATOM     25  H   UNL     1      -3.587  -3.863  24.920  0.00  0.00    +0.210 HD
ENDBRANCH  10   3
BRANCH  11  13
ATOM     13  C   UNL     1      -1.001   0.524  26.006  0.00  0.00    +0.138 C 
BRANCH  13   7
ATOM      5  O   UNL     1      -0.039   2.315  23.978  0.00  0.00    -0.267 OA
ATOM      7  N   UNL     1       0.100   0.297  25.117  0.00  0.00    -0.306 N 
ATOM     16  C   UNL     1       0.500   1.225  24.158  0.00  0.00    +0.279 C 
ATOM     26  H   UNL     1       0.599  -0.582  25.204  0.00  0.00    +0.149 HD
BRANCH  16  17
ATOM      6  O   UNL     1       2.837   1.441  23.503  0.00  0.00    -0.458 OA
ATOM     17  C   UNL     1       1.642   0.828  23.296  0.00  0.00    +0.189 A 
ATOM     19  C   UNL     1       1.739  -0.087  22.273  0.00  0.00    +0.054 A 
ATOM     20  C   UNL     1       3.080  -0.033  21.823  0.00  0.00    +0.042 A 
ATOM     22  C   UNL     1       3.707   0.912  22.603  0.00  0.00    +0.196 A 
ENDBRANCH  16  17
ENDBRANCH  13   7
ENDBRANCH  11  13
BRANCH  12  14
ATOM     14  C   UNL     1      -4.363   0.101  23.569  0.00  0.00    +0.130 C 
BRANCH  14  15
ATOM      4  O   UNL     1      -3.151   2.163  23.215  0.00  0.00    -0.276 OA
ATOM      8  N   UNL     1      -4.831   2.097  24.819  0.00  0.00    -0.304 N 
ATOM     15  C   UNL     1      -4.029   1.558  23.825  0.00  0.00    +0.216 C 
ATOM     27  H   UNL     1      -5.521   1.506  25.274  0.00  0.00    +0.150 HD
BRANCH   8  18
ATOM     18  C   UNL     1      -4.724   3.468  25.263  0.00  0.00    +0.193 C 
BRANCH  18  21
ATOM     21  C   UNL     1      -3.360   3.777  25.694  0.00  0.00    -0.087 C 
ATOM     23  C   UNL     1      -2.243   4.032  26.051  0.00  0.00    +0.005 C 
ENDBRANCH  18  21
ENDBRANCH   8  18
ENDBRANCH  14  15
ENDBRANCH  12  14
TORSDOF 9
ENDMDL
MODEL 6
REMARK VINA RESULT:      -4.3      1.764      5.424
REMARK  Name = 40781602
REMARK  9 active torsions:
REMARK  status: ('A' for Active; 'I' for Inactive)
REMARK    1  A    between atoms: O_2  and  C_9
REMARK    2  A    between atoms: O_3  and  C_10
REMARK    3  A    between atoms: N_7  and  C_13
REMARK    4  A    between atoms: N_8  and  C_18
REMARK    5  A    between atoms: C_11  and  C_13
REMARK    6  A    between atoms: C_12  and  C_14
REMARK    7  A    between atoms: C_14  and  C_15
REMARK    8  A    between atoms: C_16  and  C_17
REMARK    9  A    between atoms: C_18  and  C_21
REMARK                            x       y       z     vdW  Elec       q    Type
REMARK                         _______ _______ _______ _____ _____    ______ ____
ROOT
ATOM      1  O   UNL     1      -2.606   3.048  26.544  0.00  0.00    -0.366 OA
ATOM      9  C   UNL     1      -2.782   3.673  24.278  0.00  0.00    +0.176 C 
ATOM     10  C   UNL     1      -1.393   4.043  24.756  0.00  0.00    +0.175 C 
ATOM     11  C   UNL     1      -3.541   3.581  25.590  0.00  0.00    +0.167 C 
ATOM     12  C   UNL     1      -1.265   3.214  26.029  0.00  0.00    +0.158 C 
ENDROOT
BRANCH   9   2
ATOM      2  O   UNL     1      -3.345   4.629  23.405  0.00  0.00    -0.387 OA
ATOM     24  H   UNL     1      -2.970   4.476  22.521  0.00  0.00    +0.210 HD
ENDBRANCH   9   2
BRANCH  10   3
ATOM      3  O   UNL     1      -1.345   5.422  25.119  0.00  0.00    -0.387 OA
ATOM     25  H   UNL     1      -0.470   5.759  24.863  0.00  0.00    +0.210 HD
ENDBRANCH  10   3
BRANCH  11  13
ATOM     13  C   UNL     1      -4.764   2.683  25.516  0.00  0.00    +0.138 C 
BRANCH  13   7
ATOM      5  O   UNL     1      -3.638   1.392  23.212  0.00  0.00    -0.267 OA
ATOM      7  N   UNL     1      -4.388   1.305  25.406  0.00  0.00    -0.306 N 
ATOM     16  C   UNL     1      -3.846   0.759  24.245  0.00  0.00    +0.279 C 
ATOM     26  H   UNL     1      -4.527   0.715  26.220  0.00  0.00    +0.149 HD
BRANCH  16  17
ATOM      6  O   UNL     1      -2.270  -1.061  24.622  0.00  0.00    -0.458 OA
ATOM     17  C   UNL     1      -3.533  -0.691  24.284  0.00  0.00    +0.189 A 
ATOM     19  C   UNL     1      -4.309  -1.800  24.032  0.00  0.00    +0.054 A 
ATOM     20  C   UNL     1      -3.468  -2.921  24.230  0.00  0.00    +0.042 A 
ATOM     22  C   UNL     1      -2.238  -2.419  24.587  0.00  0.00    +0.196 A 
ENDBRANCH  16  17
ENDBRANCH  13   7
ENDBRANCH  11  13
BRANCH  12  14
ATOM     14  C   UNL     1      -0.687   1.826  25.781  0.00  0.00    +0.130 C 
BRANCH  14  15
ATOM      4  O   UNL     1       0.547   2.721  23.905  0.00  0.00    -0.276 OA
ATOM      8  N   UNL     1       0.184   0.429  24.032  0.00  0.00    -0.304 N 
ATOM     15  C   UNL     1       0.082   1.739  24.477  0.00  0.00    +0.216 C 
ATOM     27  H   UNL     1      -0.250  -0.313  24.574  0.00  0.00    +0.150 HD
BRANCH   8  18
ATOM     18  C   UNL     1       0.866   0.061  22.813  0.00  0.00    +0.193 C 
BRANCH  18  21
ATOM     21  C   UNL     1       2.286   0.408  22.878  0.00  0.00    -0.087 C 
ATOM     23  C   UNL     1       3.450   0.696  22.934  0.00  0.00    +0.005 C 
ENDBRANCH  18  21
ENDBRANCH   8  18
ENDBRANCH  14  15
ENDBRANCH  12  14
TORSDOF 9
ENDMDL
MODEL 7
REMARK VINA RESULT:      -4.2      2.065      6.669
REMARK  Name = 40781602
REMARK  9 active torsions:
REMARK  status: ('A' for Active; 'I' for Inactive)
REMARK    1  A    between atoms: O_2  and  C_9
REMARK    2  A    between atoms: O_3  and  C_10
REMARK    3  A    between atoms: N_7  and  C_13
REMARK    4  A    between atoms: N_8  and  C_18
REMARK    5  A    between atoms: C_11  and  C_13
REMARK    6  A    between atoms: C_12  and  C_14
REMARK    7  A    between atoms: C_14  and  C_15
REMARK    8  A    between atoms: C_16  and  C_17
REMARK    9  A    between atoms: C_18  and  C_21
REMARK                            x       y       z     vdW  Elec       q    Type
REMARK                         _______ _______ _______ _____ _____    ______ ____
ROOT
ATOM      1  O   UNL     1      -2.128  -0.379  23.279  0.00  0.00    -0.366 OA
ATOM      9  C   UNL     1      -2.542  -0.869  25.548  0.00  0.00    +0.176 C 
ATOM     10  C   UNL     1      -1.375  -1.721  25.094  0.00  0.00    +0.175 C 
ATOM     11  C   UNL     1      -3.203  -0.526  24.224  0.00  0.00    +0.167 C 
ATOM     12  C   UNL     1      -0.943  -1.010  23.816  0.00  0.00    +0.158 C 
ENDROOT
BRANCH   9   2
ATOM      2  O   UNL     1      -3.422  -1.546  26.420  0.00  0.00    -0.387 OA
ATOM     24  H   UNL     1      -4.292  -1.581  25.988  0.00  0.00    +0.210 HD
ENDBRANCH   9   2
BRANCH  10   3
ATOM      3  O   UNL     1      -1.823  -3.029  24.742  0.00  0.00    -0.387 OA
ATOM     25  H   UNL     1      -1.739  -3.587  25.534  0.00  0.00    +0.210 HD
ENDBRANCH  10   3
BRANCH  11  13
ATOM     13  C   UNL     1      -4.020   0.753  24.272  0.00  0.00    +0.138 C 
BRANCH  13   7
ATOM      5  O   UNL     1      -4.318   3.055  25.962  0.00  0.00    -0.267 OA
ATOM      7  N   UNL     1      -3.172   1.908  24.302  0.00  0.00    -0.306 N 
ATOM     16  C   UNL     1      -3.391   2.985  25.157  0.00  0.00    +0.279 C 
ATOM     26  H   UNL     1      -2.382   1.925  23.666  0.00  0.00    +0.149 HD
BRANCH  16  17
ATOM      6  O   UNL     1      -1.158   3.838  24.685  0.00  0.00    -0.458 OA
ATOM     17  C   UNL     1      -2.438   4.117  25.048  0.00  0.00    +0.189 A 
ATOM     19  C   UNL     1      -2.598   5.469  25.250  0.00  0.00    +0.054 A 
ATOM     20  C   UNL     1      -1.337   6.057  24.994  0.00  0.00    +0.042 A 
ATOM     22  C   UNL     1      -0.494   5.024  24.655  0.00  0.00    +0.196 A 
ENDBRANCH  16  17
ENDBRANCH  13   7
ENDBRANCH  11  13
BRANCH  12  14
ATOM     14  C   UNL     1       0.094   0.079  24.060  0.00  0.00    +0.130 C 
BRANCH  14  15
ATOM      4  O   UNL     1       1.115  -0.539  21.958  0.00  0.00    -0.276 OA
ATOM      8  N   UNL     1       2.261   0.877  23.401  0.00  0.00    -0.304 N 
ATOM     15  C   UNL     1       1.190   0.087  23.012  0.00  0.00    +0.216 C 
ATOM     27  H   UNL     1       2.231   1.344  24.303  0.00  0.00    +0.150 HD
BRANCH   8  18
ATOM     18  C   UNL     1       3.443   1.060  22.589  0.00  0.00    +0.193 C 
BRANCH  18  21
ATOM     21  C   UNL     1       4.605   0.415  23.198  0.00  0.00    -0.087 C 
ATOM     23  C   UNL     1       5.557  -0.117  23.701  0.00  0.00    +0.005 C 
ENDBRANCH  18  21
ENDBRANCH   8  18
ENDBRANCH  14  15
ENDBRANCH  12  14
TORSDOF 9
ENDMDL
MODEL 8
REMARK VINA RESULT:      -3.9      2.806      5.148
REMARK  Name = 40781602
REMARK  9 active torsions:
REMARK  status: ('A' for Active; 'I' for Inactive)
REMARK    1  A    between atoms: O_2  and  C_9
REMARK    2  A    between atoms: O_3  and  C_10
REMARK    3  A    between atoms: N_7  and  C_13
REMARK    4  A    between atoms: N_8  and  C_18
REMARK    5  A    between atoms: C_11  and  C_13
REMARK    6  A    between atoms: C_12  and  C_14
REMARK    7  A    between atoms: C_14  and  C_15
REMARK    8  A    between atoms: C_16  and  C_17
REMARK    9  A    between atoms: C_18  and  C_21
REMARK                            x       y       z     vdW  Elec       q    Type
REMARK                         _______ _______ _______ _____ _____    ______ ____
ROOT
ATOM      1  O   UNL     1      -3.219  -0.329  25.501  0.00  0.00    -0.366 OA
ATOM      9  C   UNL     1      -1.975  -1.964  24.344  0.00  0.00    +0.176 C 
ATOM     10  C   UNL     1      -3.390  -1.986  23.802  0.00  0.00    +0.175 C 
ATOM     11  C   UNL     1      -2.177  -1.301  25.696  0.00  0.00    +0.167 C 
ATOM     12  C   UNL     1      -3.933  -0.645  24.285  0.00  0.00    +0.158 C 
ENDROOT
BRANCH   9   2
ATOM      2  O   UNL     1      -1.403  -3.250  24.464  0.00  0.00    -0.387 OA
ATOM     24  H   UNL     1      -2.037  -3.887  24.093  0.00  0.00    +0.210 HD
ENDBRANCH   9   2
BRANCH  10   3
ATOM      3  O   UNL     1      -4.145  -3.021  24.429  0.00  0.00    -0.387 OA
ATOM     25  H   UNL     1      -3.767  -3.160  25.314  0.00  0.00    +0.210 HD
ENDBRANCH  10   3
BRANCH  11  13
ATOM     13  C   UNL     1      -0.928  -0.616  26.222  0.00  0.00    +0.138 C 
BRANCH  13   7
ATOM      5  O   UNL     1       0.209   0.728  23.954  0.00  0.00    -0.267 OA
ATOM      7  N   UNL     1      -0.961   0.793  25.957  0.00  0.00    -0.306 N 
ATOM     16  C   UNL     1      -0.381   1.362  24.827  0.00  0.00    +0.279 C 
ATOM     26  H   UNL     1      -1.433   1.385  26.632  0.00  0.00    +0.149 HD
BRANCH  16  17
ATOM      6  O   UNL     1      -0.147   3.407  23.521  0.00  0.00    -0.458 OA
ATOM     17  C   UNL     1      -0.478   2.839  24.711  0.00  0.00    +0.189 A 
ATOM     19  C   UNL     1      -0.859   3.803  25.616  0.00  0.00    +0.054 A 
ATOM     20  C   UNL     1      -0.755   5.042  24.939  0.00  0.00    +0.042 A 
ATOM     22  C   UNL     1      -0.318   4.747  23.668  0.00  0.00    +0.196 A 
ENDBRANCH  16  17
ENDBRANCH  13   7
ENDBRANCH  11  13
BRANCH  12  14
ATOM     14  C   UNL     1      -3.692   0.487  23.295  0.00  0.00    +0.130 C 
BRANCH  14  15
ATOM      4  O   UNL     1      -3.638   2.901  23.442  0.00  0.00    -0.276 OA
ATOM      8  N   UNL     1      -5.068   1.713  24.836  0.00  0.00    -0.304 N 
ATOM     15  C   UNL     1      -4.108   1.839  23.844  0.00  0.00    +0.216 C 
ATOM     27  H   UNL     1      -5.382   0.785  25.107  0.00  0.00    +0.150 HD
BRANCH   8  18
ATOM     18  C   UNL     1      -5.639   2.844  25.530  0.00  0.00    +0.193 C 
BRANCH  18  21
ATOM     21  C   UNL     1      -4.600   3.650  26.170  0.00  0.00    -0.087 C 
ATOM     23  C   UNL     1      -3.743   4.310  26.693  0.00  0.00    +0.005 C 
ENDBRANCH  18  21
ENDBRANCH   8  18
ENDBRANCH  14  15
ENDBRANCH  12  14
TORSDOF 9
ENDMDL
MODEL 9
REMARK VINA RESULT:      -3.6      2.713      4.811
REMARK  Name = 40781602
REMARK  9 active torsions:
REMARK  status: ('A' for Active; 'I' for Inactive)
REMARK    1  A    between atoms: O_2  and  C_9
REMARK    2  A    between atoms: O_3  and  C_10
REMARK    3  A    between atoms: N_7  and  C_13
REMARK    4  A    between atoms: N_8  and  C_18
REMARK    5  A    between atoms: C_11  and  C_13
REMARK    6  A    between atoms: C_12  and  C_14
REMARK    7  A    between atoms: C_14  and  C_15
REMARK    8  A    between atoms: C_16  and  C_17
REMARK    9  A    between atoms: C_18  and  C_21
REMARK                            x       y       z     vdW  Elec       q    Type
REMARK                         _______ _______ _______ _____ _____    ______ ____
ROOT
ATOM      1  O   UNL     1       0.432   3.036  24.223  0.00  0.00    -0.366 OA
ATOM      9  C   UNL     1      -0.659   1.467  25.604  0.00  0.00    +0.176 C 
ATOM     10  C   UNL     1      -0.487   2.746  26.398  0.00  0.00    +0.175 C 
ATOM     11  C   UNL     1       0.402   1.631  24.529  0.00  0.00    +0.167 C 
ATOM     12  C   UNL     1      -0.202   3.764  25.300  0.00  0.00    +0.158 C 
ENDROOT
BRANCH   9   2
ATOM      2  O   UNL     1      -0.458   0.300  26.374  0.00  0.00    -0.387 OA
ATOM     24  H   UNL     1      -0.329  -0.439  25.755  0.00  0.00    +0.210 HD
ENDBRANCH   9   2
BRANCH  10   3
ATOM      3  O   UNL     1       0.667   2.659  27.233  0.00  0.00    -0.387 OA
ATOM     25  H   UNL     1       0.520   1.928  27.856  0.00  0.00    +0.210 HD
ENDBRANCH  10   3
BRANCH  11  13
ATOM     13  C   UNL     1       0.109   0.839  23.268  0.00  0.00    +0.138 C 
BRANCH  13   7
ATOM      5  O   UNL     1      -2.748   1.029  23.492  0.00  0.00    -0.267 OA
ATOM      7  N   UNL     1      -0.802  -0.236  23.532  0.00  0.00    -0.306 N 
ATOM     16  C   UNL     1      -2.180  -0.053  23.625  0.00  0.00    +0.279 C 
ATOM     26  H   UNL     1      -0.409  -1.164  23.653  0.00  0.00    +0.149 HD
BRANCH  16  17
ATOM      6  O   UNL     1      -2.440  -2.199  24.751  0.00  0.00    -0.458 OA
ATOM     17  C   UNL     1      -2.984  -1.263  23.929  0.00  0.00    +0.189 A 
ATOM     19  C   UNL     1      -4.242  -1.648  23.525  0.00  0.00    +0.054 A 
ATOM     20  C   UNL     1      -4.486  -2.901  24.138  0.00  0.00    +0.042 A 
ATOM     22  C   UNL     1      -3.360  -3.192  24.873  0.00  0.00    +0.196 A 
ENDBRANCH  16  17
ENDBRANCH  13   7
ENDBRANCH  11  13
BRANCH  12  14
ATOM     14  C   UNL     1      -1.463   4.412  24.745  0.00  0.00    +0.130 C 
BRANCH  14  15
ATOM      4  O   UNL     1      -2.651   4.235  26.844  0.00  0.00    -0.276 OA
ATOM      8  N   UNL     1      -3.797   3.855  24.858  0.00  0.00    -0.304 N 
ATOM     15  C   UNL     1      -2.679   4.165  25.618  0.00  0.00    +0.216 C 
ATOM     27  H   UNL     1      -3.711   3.808  23.847  0.00  0.00    +0.150 HD
BRANCH   8  18
ATOM     18  C   UNL     1      -5.091   3.572  25.437  0.00  0.00    +0.193 C 
BRANCH  18  21
ATOM     21  C   UNL     1      -5.367   2.135  25.431  0.00  0.00    -0.087 C 
ATOM     23  C   UNL     1      -5.598   0.957  25.425  0.00  0.00    +0.005 C 
ENDBRANCH  18  21
ENDBRANCH   8  18
ENDBRANCH  14  15
ENDBRANCH  12  14
TORSDOF 9
ENDMDL
MODEL 10
REMARK VINA RESULT:      -3.5      1.871      3.322
REMARK  Name = 40781602
REMARK  9 active torsions:
REMARK  status: ('A' for Active; 'I' for Inactive)
REMARK    1  A    between atoms: O_2  and  C_9
REMARK    2  A    between atoms: O_3  and  C_10
REMARK    3  A    between atoms: N_7  and  C_13
REMARK    4  A    between atoms: N_8  and  C_18
REMARK    5  A    between atoms: C_11  and  C_13
REMARK    6  A    between atoms: C_12  and  C_14
REMARK    7  A    between atoms: C_14  and  C_15
REMARK    8  A    between atoms: C_16  and  C_17
REMARK    9  A    between atoms: C_18  and  C_21
REMARK                            x       y       z     vdW  Elec       q    Type
REMARK                         _______ _______ _______ _____ _____    ______ ____
ROOT
ATOM      1  O   UNL     1      -0.460   0.515  25.264  0.00  0.00    -0.366 OA
ATOM      9  C   UNL     1      -2.395   0.031  24.007  0.00  0.00    +0.176 C 
ATOM     10  C   UNL     1      -2.837   0.520  25.371  0.00  0.00    +0.175 C 
ATOM     11  C   UNL     1      -0.969  -0.411  24.289  0.00  0.00    +0.167 C 
ATOM     12  C   UNL     1      -1.572   1.196  25.890  0.00  0.00    +0.158 C 
ENDROOT
BRANCH   9   2
ATOM      2  O   UNL     1      -3.189  -1.024  23.507  0.00  0.00    -0.387 OA
ATOM     24  H   UNL     1      -2.913  -1.188  22.589  0.00  0.00    +0.210 HD
ENDBRANCH   9   2
BRANCH  10   3
ATOM      3  O   UNL     1      -3.129  -0.587  26.223  0.00  0.00    -0.387 OA
ATOM     25  H   UNL     1      -2.349  -0.734  26.784  0.00  0.00    +0.210 HD
ENDBRANCH  10   3
BRANCH  11  13
ATOM     13  C   UNL     1      -0.080  -0.398  23.058  0.00  0.00    +0.138 C 
BRANCH  13   7
ATOM      5  O   UNL     1       2.152  -0.225  21.260  0.00  0.00    -0.267 OA
ATOM      7  N   UNL     1       1.302  -0.289  23.419  0.00  0.00    -0.306 N 
ATOM     16  C   UNL     1       2.325  -0.210  22.477  0.00  0.00    +0.279 C 
ATOM     26  H   UNL     1       1.528  -0.269  24.408  0.00  0.00    +0.149 HD
BRANCH  16  17
ATOM      6  O   UNL     1       4.197  -1.207  23.678  0.00  0.00    -0.458 OA
ATOM     17  C   UNL     1       3.707  -0.128  23.013  0.00  0.00    +0.189 A 
ATOM     19  C   UNL     1       4.646   0.877  22.967  0.00  0.00    +0.054 A 
ATOM     20  C   UNL     1       5.785   0.384  23.648  0.00  0.00    +0.042 A 
ATOM     22  C   UNL     1       5.461  -0.888  24.062  0.00  0.00    +0.196 A 
ENDBRANCH  16  17
ENDBRANCH  13   7
ENDBRANCH  11  13
BRANCH  12  14
ATOM     14  C   UNL     1      -1.487   2.670  25.515  0.00  0.00    +0.130 C 
BRANCH  14  15
ATOM      4  O   UNL     1      -2.918   3.558  23.780  0.00  0.00    -0.276 OA
ATOM      8  N   UNL     1      -3.786   3.239  25.912  0.00  0.00    -0.304 N 
ATOM     15  C   UNL     1      -2.789   3.205  24.949  0.00  0.00    +0.216 C 
ATOM     27  H   UNL     1      -3.572   2.937  26.858  0.00  0.00    +0.150 HD
BRANCH   8  18
ATOM     18  C   UNL     1      -5.127   3.707  25.643  0.00  0.00    +0.193 C 
BRANCH  18  21
ATOM     21  C   UNL     1      -6.001   2.602  25.249  0.00  0.00    -0.087 C 
ATOM     23  C   UNL     1      -6.715   1.694  24.923  0.00  0.00    +0.005 C 
ENDBRANCH  18  21
ENDBRANCH   8  18
ENDBRANCH  14  15
ENDBRANCH  12  14
TORSDOF 9
ENDMDL
