MODEL 1
REMARK VINA RESULT:       5.2      0.000      0.000
REMARK  Name = 45783975
REMARK  13 active torsions:
REMARK  status: ('A' for Active; 'I' for Inactive)
REMARK    1  A    between atoms: N_2  and  C_12
REMARK    2  A    between atoms: N_3  and  C_24
REMARK    3  A    between atoms: N_6  and  C_31
REMARK    4  A    between atoms: N_6  and  C_32
REMARK    5  A    between atoms: N_6  and  C_33
REMARK    6  A    between atoms: C_7  and  C_11
REMARK    7  A    between atoms: C_8  and  C_12
REMARK    8  A    between atoms: C_10  and  C_15
REMARK    9  A    between atoms: C_11  and  C_16
REMARK   10  A    between atoms: C_11  and  C_17
REMARK   11  A    between atoms: C_14  and  C_20
REMARK   12  A    between atoms: C_15  and  C_23
REMARK   13  A    between atoms: C_25  and  C_26
REMARK                            x       y       z     vdW  Elec       q    Type
REMARK                         _______ _______ _______ _____ _____    ______ ____
ROOT
ATOM      7  C   UNL     1      -2.901   2.721  25.912  0.00  0.00    +0.000 C 
ATOM      8  C   UNL     1      -4.411   2.715  25.578  0.00  0.00    +0.029 C 
ATOM      9  C   UNL     1      -2.102   2.029  24.798  0.00  0.00    +0.012 C 
ATOM     10  C   UNL     1      -2.323   2.658  23.406  0.00  0.00    +0.024 C 
ATOM     13  C   UNL     1      -4.689   3.072  24.140  0.00  0.00    -0.023 C 
ATOM     14  C   UNL     1      -3.768   3.064  23.159  0.00  0.00    -0.073 C 
ATOM     20  C   UNL     1      -4.133   3.523  21.773  0.00  0.00    +0.039 C 
ENDROOT
BRANCH   7  11
ATOM     11  C   UNL     1      -2.389   4.147  26.159  0.00  0.00    -0.013 C 
ATOM     16  C   UNL     1      -3.544   5.142  26.111  0.00  0.00    +0.007 C 
ATOM     17  C   UNL     1      -1.317   4.512  25.137  0.00  0.00    +0.007 C 
ENDBRANCH   7  11
BRANCH   8  12
ATOM     12  C   UNL     1      -5.055   1.362  25.894  0.00  0.00    +0.092 C 
BRANCH  12   2
ATOM      2  N   UNL     1      -4.260   0.269  25.339  0.00  0.00    -0.299 NA
ATOM      3  N   UNL     1      -3.788  -2.514  24.712  0.00  0.00    -0.303 NA
ATOM     18  C   UNL     1      -4.980  -0.400  24.248  0.00  0.00    +0.100 C 
ATOM     19  C   UNL     1      -3.901  -0.698  26.384  0.00  0.00    +0.100 C 
ATOM     21  C   UNL     1      -4.146  -1.547  23.667  0.00  0.00    +0.099 C 
ATOM     22  C   UNL     1      -3.068  -1.846  25.804  0.00  0.00    +0.099 C 
ATOM     24  C   UNL     1      -2.990  -3.606  24.157  0.00  0.00    +0.105 C 
ENDBRANCH  12   2
ENDBRANCH   8  12
BRANCH  10  15
ATOM     15  C   UNL     1      -1.785   1.692  22.342  0.00  0.00    +0.105 C 
BRANCH  15  23
ATOM      1  O   UNL     1       0.518   0.969  22.703  0.00  0.00    -0.420 OA
ATOM      4  N   UNL     1      -1.017  -0.357  23.645  0.00  0.00    -0.112 NA
ATOM      5  N   UNL     1       0.230  -0.881  23.928  0.00  0.00    -0.107 NA
ATOM     23  C   UNL     1      -0.801   0.721  22.929  0.00  0.00    +0.218 A 
ATOM     25  C   UNL     1       1.096  -0.076  23.358  0.00  0.00    +0.248 A 
BRANCH  25  26
ATOM     26  C   UNL     1       2.528  -0.124  23.321  0.00  0.00    +0.039 A 
ATOM     27  C   UNL     1       3.249   0.958  22.814  0.00  0.00    +0.015 A 
ATOM     28  C   UNL     1       3.201  -1.251  23.792  0.00  0.00    +0.015 A 
ATOM     29  C   UNL     1       4.643   0.912  22.779  0.00  0.00    +0.024 A 
ATOM     30  C   UNL     1       4.594  -1.298  23.756  0.00  0.00    +0.024 A 
ATOM     31  C   UNL     1       5.315  -0.216  23.250  0.00  0.00    +0.029 A 
BRANCH  31   6
ATOM      6  N   UNL     1       6.725  -0.264  23.213  0.00  0.00    -0.336 N 
ATOM     32  C   UNL     1       7.404  -1.249  22.395  0.00  0.00    +0.129 C 
ATOM     33  C   UNL     1       7.511   0.677  23.985  0.00  0.00    +0.129 C 
ENDBRANCH  31   6
ENDBRANCH  25  26
ENDBRANCH  15  23
ENDBRANCH  10  15
TORSDOF 7
ENDMDL
MODEL 2
REMARK VINA RESULT:       5.5      1.863      4.241
REMARK  Name = 45783975
REMARK  13 active torsions:
REMARK  status: ('A' for Active; 'I' for Inactive)
REMARK    1  A    between atoms: N_2  and  C_12
REMARK    2  A    between atoms: N_3  and  C_24
REMARK    3  A    between atoms: N_6  and  C_31
REMARK    4  A    between atoms: N_6  and  C_32
REMARK    5  A    between atoms: N_6  and  C_33
REMARK    6  A    between atoms: C_7  and  C_11
REMARK    7  A    between atoms: C_8  and  C_12
REMARK    8  A    between atoms: C_10  and  C_15
REMARK    9  A    between atoms: C_11  and  C_16
REMARK   10  A    between atoms: C_11  and  C_17
REMARK   11  A    between atoms: C_14  and  C_20
REMARK   12  A    between atoms: C_15  and  C_23
REMARK   13  A    between atoms: C_25  and  C_26
REMARK                            x       y       z     vdW  Elec       q    Type
REMARK                         _______ _______ _______ _____ _____    ______ ____
ROOT
ATOM      7  C   UNL     1      -3.299   2.933  24.209  0.00  0.00    +0.000 C 
ATOM      8  C   UNL     1      -3.910   3.833  25.308  0.00  0.00    +0.029 C 
ATOM      9  C   UNL     1      -3.357   1.458  24.629  0.00  0.00    +0.012 C 
ATOM     10  C   UNL     1      -4.785   0.971  24.956  0.00  0.00    +0.024 C 
ATOM     13  C   UNL     1      -5.194   3.275  25.867  0.00  0.00    -0.023 C 
ATOM     14  C   UNL     1      -5.608   2.004  25.710  0.00  0.00    -0.073 C 
ATOM     20  C   UNL     1      -6.951   1.574  26.236  0.00  0.00    +0.039 C 
ENDROOT
BRANCH   7  11
ATOM     11  C   UNL     1      -3.991   3.154  22.857  0.00  0.00    -0.013 C 
ATOM     16  C   UNL     1      -3.133   2.599  21.724  0.00  0.00    +0.007 C 
ATOM     17  C   UNL     1      -4.279   4.636  22.642  0.00  0.00    +0.007 C 
ENDBRANCH   7  11
BRANCH   8  12
ATOM     12  C   UNL     1      -2.924   4.073  26.456  0.00  0.00    +0.092 C 
BRANCH  12   2
ATOM      2  N   UNL     1      -1.551   3.841  26.014  0.00  0.00    -0.299 NA
ATOM      3  N   UNL     1       0.425   2.735  24.216  0.00  0.00    -0.303 NA
ATOM     18  C   UNL     1      -1.327   4.414  24.681  0.00  0.00    +0.100 C 
ATOM     19  C   UNL     1      -1.239   2.406  26.013  0.00  0.00    +0.100 C 
ATOM     21  C   UNL     1       0.113   4.169  24.217  0.00  0.00    +0.099 C 
ATOM     22  C   UNL     1       0.200   2.160  25.548  0.00  0.00    +0.099 C 
ATOM     24  C   UNL     1       1.799   2.503  23.776  0.00  0.00    +0.105 C 
ENDBRANCH  12   2
ENDBRANCH   8  12
BRANCH  10  15
ATOM     15  C   UNL     1      -4.687  -0.369  25.696  0.00  0.00    +0.105 C 
BRANCH  15  23
ATOM      1  O   UNL     1      -2.389  -0.619  24.914  0.00  0.00    -0.420 OA
ATOM      4  N   UNL     1      -3.596  -2.500  24.825  0.00  0.00    -0.112 NA
ATOM      5  N   UNL     1      -2.327  -2.785  24.356  0.00  0.00    -0.107 NA
ATOM     23  C   UNL     1      -3.587  -1.225  25.138  0.00  0.00    +0.218 A 
ATOM     25  C   UNL     1      -1.657  -1.658  24.426  0.00  0.00    +0.248 A 
BRANCH  25  26
ATOM     26  C   UNL     1      -0.300  -1.359  24.076  0.00  0.00    +0.039 A 
ATOM     27  C   UNL     1       0.748  -1.928  24.799  0.00  0.00    +0.015 A 
ATOM     28  C   UNL     1      -0.027  -0.500  23.011  0.00  0.00    +0.015 A 
ATOM     29  C   UNL     1       2.070  -1.638  24.458  0.00  0.00    +0.024 A 
ATOM     30  C   UNL     1       1.294  -0.210  22.669  0.00  0.00    +0.024 A 
ATOM     31  C   UNL     1       2.342  -0.779  23.393  0.00  0.00    +0.029 A 
BRANCH  31   6
ATOM      6  N   UNL     1       3.678  -0.484  23.049  0.00  0.00    -0.336 N 
ATOM     32  C   UNL     1       3.972   0.476  22.004  0.00  0.00    +0.129 C 
ATOM     33  C   UNL     1       4.774  -1.131  23.741  0.00  0.00    +0.129 C 
ENDBRANCH  31   6
ENDBRANCH  25  26
ENDBRANCH  15  23
ENDBRANCH  10  15
TORSDOF 7
ENDMDL
MODEL 3
REMARK VINA RESULT:       6.8      2.351      6.376
REMARK  Name = 45783975
REMARK  13 active torsions:
REMARK  status: ('A' for Active; 'I' for Inactive)
REMARK    1  A    between atoms: N_2  and  C_12
REMARK    2  A    between atoms: N_3  and  C_24
REMARK    3  A    between atoms: N_6  and  C_31
REMARK    4  A    between atoms: N_6  and  C_32
REMARK    5  A    between atoms: N_6  and  C_33
REMARK    6  A    between atoms: C_7  and  C_11
REMARK    7  A    between atoms: C_8  and  C_12
REMARK    8  A    between atoms: C_10  and  C_15
REMARK    9  A    between atoms: C_11  and  C_16
REMARK   10  A    between atoms: C_11  and  C_17
REMARK   11  A    between atoms: C_14  and  C_20
REMARK   12  A    between atoms: C_15  and  C_23
REMARK   13  A    between atoms: C_25  and  C_26
REMARK                            x       y       z     vdW  Elec       q    Type
REMARK                         _______ _______ _______ _____ _____    ______ ____
ROOT
ATOM      7  C   UNL     1      -1.475   4.088  24.437  0.00  0.00    +0.000 C 
ATOM      8  C   UNL     1      -1.054   3.041  25.494  0.00  0.00    +0.029 C 
ATOM      9  C   UNL     1      -2.997   4.294  24.462  0.00  0.00    +0.012 C 
ATOM     10  C   UNL     1      -3.533   4.717  25.847  0.00  0.00    +0.024 C 
ATOM     13  C   UNL     1      -1.749   3.239  26.817  0.00  0.00    -0.023 C 
ATOM     14  C   UNL     1      -2.849   3.993  26.997  0.00  0.00    -0.073 C 
ATOM     20  C   UNL     1      -3.413   4.194  28.378  0.00  0.00    +0.039 C 
ENDROOT
BRANCH   7  11
ATOM     11  C   UNL     1      -0.731   5.415  24.638  0.00  0.00    -0.013 C 
ATOM     16  C   UNL     1      -1.720   6.577  24.682  0.00  0.00    +0.007 C 
ATOM     17  C   UNL     1       0.296   5.621  23.530  0.00  0.00    +0.007 C 
ENDBRANCH   7  11
BRANCH   8  12
ATOM     12  C   UNL     1      -1.303   1.611  25.004  0.00  0.00    +0.092 C 
BRANCH  12   2
ATOM      2  N   UNL     1      -0.343   1.247  23.964  0.00  0.00    -0.299 NA
ATOM      3  N   UNL     1       2.121   0.051  23.037  0.00  0.00    -0.303 NA
ATOM     18  C   UNL     1      -0.184  -0.211  23.886  0.00  0.00    +0.100 C 
ATOM     19  C   UNL     1       0.955   1.890  24.204  0.00  0.00    +0.100 C 
ATOM     21  C   UNL     1       0.824  -0.593  22.797  0.00  0.00    +0.099 C 
ATOM     22  C   UNL     1       1.964   1.508  23.116  0.00  0.00    +0.099 C 
ATOM     24  C   UNL     1       3.081  -0.312  21.995  0.00  0.00    +0.105 C 
ENDBRANCH  12   2
ENDBRANCH   8  12
BRANCH  10  15
ATOM     15  C   UNL     1      -5.057   4.543  25.855  0.00  0.00    +0.105 C 
BRANCH  15  23
ATOM      1  O   UNL     1      -4.519   2.211  25.376  0.00  0.00    -0.420 OA
ATOM      4  N   UNL     1      -6.561   2.522  26.233  0.00  0.00    -0.112 NA
ATOM      5  N   UNL     1      -6.393   1.168  26.013  0.00  0.00    -0.107 NA
ATOM     23  C   UNL     1      -5.444   3.092  25.847  0.00  0.00    +0.218 A 
ATOM     25  C   UNL     1      -5.188   1.033  25.511  0.00  0.00    +0.248 A 
BRANCH  25  26
ATOM     26  C   UNL     1      -4.479  -0.141  25.094  0.00  0.00    +0.039 A 
ATOM     27  C   UNL     1      -3.572  -0.752  25.960  0.00  0.00    +0.015 A 
ATOM     28  C   UNL     1      -4.697  -0.674  23.824  0.00  0.00    +0.015 A 
ATOM     29  C   UNL     1      -2.883  -1.896  25.555  0.00  0.00    +0.024 A 
ATOM     30  C   UNL     1      -4.009  -1.817  23.418  0.00  0.00    +0.024 A 
ATOM     31  C   UNL     1      -3.102  -2.428  24.283  0.00  0.00    +0.029 A 
BRANCH  31   6
ATOM      6  N   UNL     1      -2.404  -3.583  23.873  0.00  0.00    -0.336 N 
ATOM     32  C   UNL     1      -3.069  -4.601  23.084  0.00  0.00    +0.129 C 
ATOM     33  C   UNL     1      -1.010  -3.763  24.227  0.00  0.00    +0.129 C 
ENDBRANCH  31   6
ENDBRANCH  25  26
ENDBRANCH  15  23
ENDBRANCH  10  15
TORSDOF 7
ENDMDL
MODEL 4
REMARK VINA RESULT:       7.1      1.400      2.308
REMARK  Name = 45783975
REMARK  13 active torsions:
REMARK  status: ('A' for Active; 'I' for Inactive)
REMARK    1  A    between atoms: N_2  and  C_12
REMARK    2  A    between atoms: N_3  and  C_24
REMARK    3  A    between atoms: N_6  and  C_31
REMARK    4  A    between atoms: N_6  and  C_32
REMARK    5  A    between atoms: N_6  and  C_33
REMARK    6  A    between atoms: C_7  and  C_11
REMARK    7  A    between atoms: C_8  and  C_12
REMARK    8  A    between atoms: C_10  and  C_15
REMARK    9  A    between atoms: C_11  and  C_16
REMARK   10  A    between atoms: C_11  and  C_17
REMARK   11  A    between atoms: C_14  and  C_20
REMARK   12  A    between atoms: C_15  and  C_23
REMARK   13  A    between atoms: C_25  and  C_26
REMARK                            x       y       z     vdW  Elec       q    Type
REMARK                         _______ _______ _______ _____ _____    ______ ____
ROOT
ATOM      7  C   UNL     1      -4.734   1.947  25.478  0.00  0.00    +0.000 C 
ATOM      8  C   UNL     1      -4.773   0.643  24.648  0.00  0.00    +0.029 C 
ATOM      9  C   UNL     1      -3.297   2.481  25.572  0.00  0.00    +0.012 C 
ATOM     10  C   UNL     1      -2.646   2.729  24.194  0.00  0.00    +0.024 C 
ATOM     13  C   UNL     1      -3.934   0.725  23.399  0.00  0.00    -0.023 C 
ATOM     14  C   UNL     1      -2.989   1.656  23.172  0.00  0.00    -0.073 C 
ATOM     20  C   UNL     1      -2.269   1.699  21.852  0.00  0.00    +0.039 C 
ENDROOT
BRANCH   7  11
ATOM     11  C   UNL     1      -5.683   3.006  24.902  0.00  0.00    -0.013 C 
ATOM     16  C   UNL     1      -5.795   4.194  25.853  0.00  0.00    +0.007 C 
ATOM     17  C   UNL     1      -7.056   2.399  24.632  0.00  0.00    +0.007 C 
ENDBRANCH   7  11
BRANCH   8  12
ATOM     12  C   UNL     1      -4.328  -0.568  25.475  0.00  0.00    +0.092 C 
BRANCH  12   2
ATOM      2  N   UNL     1      -2.944  -0.922  25.168  0.00  0.00    -0.299 NA
ATOM      3  N   UNL     1      -0.538  -2.481  25.548  0.00  0.00    -0.303 NA
ATOM     18  C   UNL     1      -2.852  -2.310  24.698  0.00  0.00    +0.100 C 
ATOM     19  C   UNL     1      -2.082  -0.720  26.338  0.00  0.00    +0.100 C 
ATOM     21  C   UNL     1      -1.401  -2.682  24.377  0.00  0.00    +0.099 C 
ATOM     22  C   UNL     1      -0.630  -1.094  26.019  0.00  0.00    +0.099 C 
ATOM     24  C   UNL     1       0.846  -2.834  25.239  0.00  0.00    +0.105 C 
ENDBRANCH  12   2
ENDBRANCH   8  12
BRANCH  10  15
ATOM     15  C   UNL     1      -1.135   2.904  24.392  0.00  0.00    +0.105 C 
BRANCH  15  23
ATOM      1  O   UNL     1       0.985   1.785  23.934  0.00  0.00    -0.420 OA
ATOM      4  N   UNL     1      -0.821   0.599  23.354  0.00  0.00    -0.112 NA
ATOM      5  N   UNL     1       0.299  -0.149  23.042  0.00  0.00    -0.107 NA
ATOM     23  C   UNL     1      -0.373   1.719  23.872  0.00  0.00    +0.218 A 
ATOM     25  C   UNL     1       1.330   0.583  23.397  0.00  0.00    +0.248 A 
BRANCH  25  26
ATOM     26  C   UNL     1       2.735   0.315  23.309  0.00  0.00    +0.039 A 
ATOM     27  C   UNL     1       3.610   1.315  22.884  0.00  0.00    +0.015 A 
ATOM     28  C   UNL     1       3.229  -0.944  23.651  0.00  0.00    +0.015 A 
ATOM     29  C   UNL     1       4.979   1.055  22.799  0.00  0.00    +0.024 A 
ATOM     30  C   UNL     1       4.596  -1.205  23.567  0.00  0.00    +0.024 A 
ATOM     31  C   UNL     1       5.471  -0.205  23.141  0.00  0.00    +0.029 A 
BRANCH  31   6
ATOM      6  N   UNL     1       6.854  -0.468  23.054  0.00  0.00    -0.336 N 
ATOM     32  C   UNL     1       7.806   0.369  23.757  0.00  0.00    +0.129 C 
ATOM     33  C   UNL     1       7.341  -1.584  22.268  0.00  0.00    +0.129 C 
ENDBRANCH  31   6
ENDBRANCH  25  26
ENDBRANCH  15  23
ENDBRANCH  10  15
TORSDOF 7
ENDMDL
MODEL 5
REMARK VINA RESULT:       7.9      3.018      6.047
REMARK  Name = 45783975
REMARK  13 active torsions:
REMARK  status: ('A' for Active; 'I' for Inactive)
REMARK    1  A    between atoms: N_2  and  C_12
REMARK    2  A    between atoms: N_3  and  C_24
REMARK    3  A    between atoms: N_6  and  C_31
REMARK    4  A    between atoms: N_6  and  C_32
REMARK    5  A    between atoms: N_6  and  C_33
REMARK    6  A    between atoms: C_7  and  C_11
REMARK    7  A    between atoms: C_8  and  C_12
REMARK    8  A    between atoms: C_10  and  C_15
REMARK    9  A    between atoms: C_11  and  C_16
REMARK   10  A    between atoms: C_11  and  C_17
REMARK   11  A    between atoms: C_14  and  C_20
REMARK   12  A    between atoms: C_15  and  C_23
REMARK   13  A    between atoms: C_25  and  C_26
REMARK                            x       y       z     vdW  Elec       q    Type
REMARK                         _______ _______ _______ _____ _____    ______ ____
ROOT
ATOM      7  C   UNL     1      -3.254  -1.179  24.784  0.00  0.00    +0.000 C 
ATOM      8  C   UNL     1      -1.913  -0.684  24.195  0.00  0.00    +0.029 C 
ATOM      9  C   UNL     1      -4.165   0.010  25.120  0.00  0.00    +0.012 C 
ATOM     10  C   UNL     1      -4.443   0.927  23.909  0.00  0.00    +0.024 C 
ATOM     13  C   UNL     1      -2.096   0.413  23.178  0.00  0.00    -0.023 C 
ATOM     14  C   UNL     1      -3.222   1.136  23.027  0.00  0.00    -0.073 C 
ATOM     20  C   UNL     1      -3.328   2.151  21.921  0.00  0.00    +0.039 C 
ENDROOT
BRANCH   7  11
ATOM     11  C   UNL     1      -3.952  -2.164  23.836  0.00  0.00    -0.013 C 
ATOM     16  C   UNL     1      -5.465  -1.972  23.891  0.00  0.00    +0.007 C 
ATOM     17  C   UNL     1      -3.575  -3.599  24.188  0.00  0.00    +0.007 C 
ENDBRANCH   7  11
BRANCH   8  12
ATOM     12  C   UNL     1      -0.957  -0.202  25.290  0.00  0.00    +0.092 C 
BRANCH  12   2
ATOM      2  N   UNL     1       0.387  -0.000  24.752  0.00  0.00    -0.299 NA
ATOM      3  N   UNL     1       2.274   0.303  22.582  0.00  0.00    -0.303 NA
ATOM     18  C   UNL     1       0.454   1.239  23.967  0.00  0.00    +0.100 C 
ATOM     19  C   UNL     1       0.798  -1.147  23.933  0.00  0.00    +0.100 C 
ATOM     21  C   UNL     1       1.862   1.450  23.401  0.00  0.00    +0.099 C 
ATOM     22  C   UNL     1       2.206  -0.937  23.365  0.00  0.00    +0.099 C 
ATOM     24  C   UNL     1       3.618   0.505  22.045  0.00  0.00    +0.105 C 
ENDBRANCH  12   2
ENDBRANCH   8  12
BRANCH  10  15
ATOM     15  C   UNL     1      -5.041   2.244  24.421  0.00  0.00    +0.105 C 
BRANCH  15  23
ATOM      1  O   UNL     1      -3.002   2.512  25.735  0.00  0.00    -0.420 OA
ATOM      4  N   UNL     1      -3.862   4.432  24.977  0.00  0.00    -0.112 NA
ATOM      5  N   UNL     1      -2.721   4.731  25.697  0.00  0.00    -0.107 NA
ATOM     23  C   UNL     1      -3.987   3.127  25.025  0.00  0.00    +0.218 A 
ATOM     25  C   UNL     1      -2.252   3.581  26.121  0.00  0.00    +0.248 A 
BRANCH  25  26
ATOM     26  C   UNL     1      -1.095   3.281  26.912  0.00  0.00    +0.039 A 
ATOM     27  C   UNL     1      -1.202   3.191  28.300  0.00  0.00    +0.015 A 
ATOM     28  C   UNL     1       0.140   3.079  26.293  0.00  0.00    +0.015 A 
ATOM     29  C   UNL     1      -0.076   2.898  29.069  0.00  0.00    +0.024 A 
ATOM     30  C   UNL     1       1.266   2.787  27.062  0.00  0.00    +0.024 A 
ATOM     31  C   UNL     1       1.158   2.696  28.450  0.00  0.00    +0.029 A 
BRANCH  31   6
ATOM      6  N   UNL     1       2.298   2.402  29.228  0.00  0.00    -0.336 N 
ATOM     32  C   UNL     1       3.622   2.742  28.746  0.00  0.00    +0.129 C 
ATOM     33  C   UNL     1       2.159   1.765  30.521  0.00  0.00    +0.129 C 
ENDBRANCH  31   6
ENDBRANCH  25  26
ENDBRANCH  15  23
ENDBRANCH  10  15
TORSDOF 7
ENDMDL
MODEL 6
REMARK VINA RESULT:       8.9      1.555      2.546
REMARK  Name = 45783975
REMARK  13 active torsions:
REMARK  status: ('A' for Active; 'I' for Inactive)
REMARK    1  A    between atoms: N_2  and  C_12
REMARK    2  A    between atoms: N_3  and  C_24
REMARK    3  A    between atoms: N_6  and  C_31
REMARK    4  A    between atoms: N_6  and  C_32
REMARK    5  A    between atoms: N_6  and  C_33
REMARK    6  A    between atoms: C_7  and  C_11
REMARK    7  A    between atoms: C_8  and  C_12
REMARK    8  A    between atoms: C_10  and  C_15
REMARK    9  A    between atoms: C_11  and  C_16
REMARK   10  A    between atoms: C_11  and  C_17
REMARK   11  A    between atoms: C_14  and  C_20
REMARK   12  A    between atoms: C_15  and  C_23
REMARK   13  A    between atoms: C_25  and  C_26
REMARK                            x       y       z     vdW  Elec       q    Type
REMARK                         _______ _______ _______ _____ _____    ______ ____
ROOT
ATOM      7  C   UNL     1      -4.711   1.744  25.694  0.00  0.00    +0.000 C 
ATOM      8  C   UNL     1      -5.085   1.935  24.206  0.00  0.00    +0.029 C 
ATOM      9  C   UNL     1      -3.248   2.143  25.936  0.00  0.00    +0.012 C 
ATOM     10  C   UNL     1      -2.932   3.593  25.508  0.00  0.00    +0.024 C 
ATOM     13  C   UNL     1      -4.573   3.234  23.641  0.00  0.00    -0.023 C 
ATOM     14  C   UNL     1      -3.621   3.995  24.213  0.00  0.00    -0.073 C 
ATOM     20  C   UNL     1      -3.245   5.320  23.608  0.00  0.00    +0.039 C 
ENDROOT
BRANCH   7  11
ATOM     11  C   UNL     1      -5.659   2.526  26.614  0.00  0.00    -0.013 C 
ATOM     16  C   UNL     1      -6.674   1.584  27.256  0.00  0.00    +0.007 C 
ATOM     17  C   UNL     1      -6.365   3.631  25.834  0.00  0.00    +0.007 C 
ENDBRANCH   7  11
BRANCH   8  12
ATOM     12  C   UNL     1      -4.578   0.775  23.342  0.00  0.00    +0.092 C 
BRANCH  12   2
ATOM      2  N   UNL     1      -3.795  -0.162  24.145  0.00  0.00    -0.299 NA
ATOM      3  N   UNL     1      -2.042  -2.439  24.466  0.00  0.00    -0.303 NA
ATOM     18  C   UNL     1      -2.370  -0.083  23.799  0.00  0.00    +0.100 C 
ATOM     19  C   UNL     1      -4.287  -1.535  23.971  0.00  0.00    +0.100 C 
ATOM     21  C   UNL     1      -1.549  -1.067  24.639  0.00  0.00    +0.099 C 
ATOM     22  C   UNL     1      -3.466  -2.520  24.810  0.00  0.00    +0.099 C 
ATOM     24  C   UNL     1      -1.259  -3.376  25.270  0.00  0.00    +0.105 C 
ENDBRANCH  12   2
ENDBRANCH   8  12
BRANCH  10  15
ATOM     15  C   UNL     1      -1.408   3.764  25.450  0.00  0.00    +0.105 C 
BRANCH  15  23
ATOM      1  O   UNL     1       0.449   2.392  24.659  0.00  0.00    -0.420 OA
ATOM      4  N   UNL     1      -1.284   2.491  23.248  0.00  0.00    -0.112 NA
ATOM      5  N   UNL     1      -0.314   1.688  22.677  0.00  0.00    -0.107 NA
ATOM     23  C   UNL     1      -0.796   2.879  24.402  0.00  0.00    +0.218 A 
ATOM     25  C   UNL     1       0.679   1.659  23.535  0.00  0.00    +0.248 A 
BRANCH  25  26
ATOM     26  C   UNL     1       1.944   0.987  23.473  0.00  0.00    +0.039 A 
ATOM     27  C   UNL     1       2.019  -0.381  23.734  0.00  0.00    +0.015 A 
ATOM     28  C   UNL     1       3.099   1.700  23.150  0.00  0.00    +0.015 A 
ATOM     29  C   UNL     1       3.250  -1.036  23.673  0.00  0.00    +0.024 A 
ATOM     30  C   UNL     1       4.329   1.046  23.089  0.00  0.00    +0.024 A 
ATOM     31  C   UNL     1       4.405  -0.322  23.351  0.00  0.00    +0.029 A 
BRANCH  31   6
ATOM      6  N   UNL     1       5.649  -0.984  23.291  0.00  0.00    -0.336 N 
ATOM     32  C   UNL     1       5.760  -2.374  23.682  0.00  0.00    +0.129 C 
ATOM     33  C   UNL     1       6.831  -0.284  22.829  0.00  0.00    +0.129 C 
ENDBRANCH  31   6
ENDBRANCH  25  26
ENDBRANCH  15  23
ENDBRANCH  10  15
TORSDOF 7
ENDMDL
MODEL 7
REMARK VINA RESULT:       8.9      2.191      3.635
REMARK  Name = 45783975
REMARK  13 active torsions:
REMARK  status: ('A' for Active; 'I' for Inactive)
REMARK    1  A    between atoms: N_2  and  C_12
REMARK    2  A    between atoms: N_3  and  C_24
REMARK    3  A    between atoms: N_6  and  C_31
REMARK    4  A    between atoms: N_6  and  C_32
REMARK    5  A    between atoms: N_6  and  C_33
REMARK    6  A    between atoms: C_7  and  C_11
REMARK    7  A    between atoms: C_8  and  C_12
REMARK    8  A    between atoms: C_10  and  C_15
REMARK    9  A    between atoms: C_11  and  C_16
REMARK   10  A    between atoms: C_11  and  C_17
REMARK   11  A    between atoms: C_14  and  C_20
REMARK   12  A    between atoms: C_15  and  C_23
REMARK   13  A    between atoms: C_25  and  C_26
REMARK                            x       y       z     vdW  Elec       q    Type
REMARK                         _______ _______ _______ _____ _____    ______ ____
ROOT
ATOM      7  C   UNL     1      -4.706   1.265  25.202  0.00  0.00    +0.000 C 
ATOM      8  C   UNL     1      -4.463   1.543  23.701  0.00  0.00    +0.029 C 
ATOM      9  C   UNL     1      -3.938   2.275  26.067  0.00  0.00    +0.012 C 
ATOM     10  C   UNL     1      -4.295   3.744  25.752  0.00  0.00    +0.024 C 
ATOM     13  C   UNL     1      -4.539   3.010  23.363  0.00  0.00    -0.023 C 
ATOM     14  C   UNL     1      -4.478   4.006  24.265  0.00  0.00    -0.073 C 
ATOM     20  C   UNL     1      -4.651   5.436  23.828  0.00  0.00    +0.039 C 
ENDROOT
BRANCH   7  11
ATOM     11  C   UNL     1      -6.204   1.272  25.537  0.00  0.00    -0.013 C 
ATOM     16  C   UNL     1      -7.003   1.874  24.385  0.00  0.00    +0.007 C 
ATOM     17  C   UNL     1      -6.456   2.041  26.830  0.00  0.00    +0.007 C 
ENDBRANCH   7  11
BRANCH   8  12
ATOM     12  C   UNL     1      -3.114   0.987  23.233  0.00  0.00    +0.092 C 
BRANCH  12   2
ATOM      2  N   UNL     1      -3.003  -0.435  23.550  0.00  0.00    -0.299 NA
ATOM      3  N   UNL     1      -3.485  -2.748  25.216  0.00  0.00    -0.303 NA
ATOM     18  C   UNL     1      -4.331  -1.059  23.624  0.00  0.00    +0.100 C 
ATOM     19  C   UNL     1      -2.274  -0.634  24.808  0.00  0.00    +0.100 C 
ATOM     21  C   UNL     1      -4.215  -2.550  23.958  0.00  0.00    +0.099 C 
ATOM     22  C   UNL     1      -2.159  -2.124  25.144  0.00  0.00    +0.099 C 
ATOM     24  C   UNL     1      -3.373  -4.171  25.532  0.00  0.00    +0.105 C 
ENDBRANCH  12   2
ENDBRANCH   8  12
BRANCH  10  15
ATOM     15  C   UNL     1      -3.236   4.652  26.392  0.00  0.00    +0.105 C 
BRANCH  15  23
ATOM      1  O   UNL     1      -1.454   3.380  25.314  0.00  0.00    -0.420 OA
ATOM      4  N   UNL     1      -1.192   5.599  25.204  0.00  0.00    -0.112 NA
ATOM      5  N   UNL     1      -0.120   5.011  24.559  0.00  0.00    -0.107 NA
ATOM     23  C   UNL     1      -1.944   4.611  25.628  0.00  0.00    +0.218 A 
ATOM     25  C   UNL     1      -0.314   3.716  24.649  0.00  0.00    +0.248 A 
BRANCH  25  26
ATOM     26  C   UNL     1       0.473   2.621  24.161  0.00  0.00    +0.039 A 
ATOM     27  C   UNL     1       1.707   2.863  23.558  0.00  0.00    +0.015 A 
ATOM     28  C   UNL     1       0.005   1.313  24.292  0.00  0.00    +0.015 A 
ATOM     29  C   UNL     1       2.473   1.797  23.084  0.00  0.00    +0.024 A 
ATOM     30  C   UNL     1       0.770   0.247  23.819  0.00  0.00    +0.024 A 
ATOM     31  C   UNL     1       2.004   0.489  23.215  0.00  0.00    +0.029 A 
BRANCH  31   6
ATOM      6  N   UNL     1       2.778  -0.588  22.735  0.00  0.00    -0.336 N 
ATOM     32  C   UNL     1       2.437  -1.236  21.484  0.00  0.00    +0.129 C 
ATOM     33  C   UNL     1       3.928  -1.056  23.482  0.00  0.00    +0.129 C 
ENDBRANCH  31   6
ENDBRANCH  25  26
ENDBRANCH  15  23
ENDBRANCH  10  15
TORSDOF 7
ENDMDL
MODEL 8
REMARK VINA RESULT:       9.0      2.012      4.380
REMARK  Name = 45783975
REMARK  13 active torsions:
REMARK  status: ('A' for Active; 'I' for Inactive)
REMARK    1  A    between atoms: N_2  and  C_12
REMARK    2  A    between atoms: N_3  and  C_24
REMARK    3  A    between atoms: N_6  and  C_31
REMARK    4  A    between atoms: N_6  and  C_32
REMARK    5  A    between atoms: N_6  and  C_33
REMARK    6  A    between atoms: C_7  and  C_11
REMARK    7  A    between atoms: C_8  and  C_12
REMARK    8  A    between atoms: C_10  and  C_15
REMARK    9  A    between atoms: C_11  and  C_16
REMARK   10  A    between atoms: C_11  and  C_17
REMARK   11  A    between atoms: C_14  and  C_20
REMARK   12  A    between atoms: C_15  and  C_23
REMARK   13  A    between atoms: C_25  and  C_26
REMARK                            x       y       z     vdW  Elec       q    Type
REMARK                         _______ _______ _______ _____ _____    ______ ____
ROOT
ATOM      7  C   UNL     1      -4.649   2.332  23.929  0.00  0.00    +0.000 C 
ATOM      8  C   UNL     1      -3.344   2.488  24.744  0.00  0.00    +0.029 C 
ATOM      9  C   UNL     1      -4.794   0.891  23.419  0.00  0.00    +0.012 C 
ATOM     10  C   UNL     1      -4.764  -0.163  24.547  0.00  0.00    +0.024 C 
ATOM     13  C   UNL     1      -3.114   1.343  25.696  0.00  0.00    -0.023 C 
ATOM     14  C   UNL     1      -3.746   0.156  25.632  0.00  0.00    -0.073 C 
ATOM     20  C   UNL     1      -3.504  -0.889  26.687  0.00  0.00    +0.039 C 
ENDROOT
BRANCH   7  11
ATOM     11  C   UNL     1      -5.875   2.757  24.749  0.00  0.00    -0.013 C 
ATOM     16  C   UNL     1      -5.530   3.945  25.642  0.00  0.00    +0.007 C 
ATOM     17  C   UNL     1      -6.391   1.587  25.580  0.00  0.00    +0.007 C 
ENDBRANCH   7  11
BRANCH   8  12
ATOM     12  C   UNL     1      -2.122   2.639  23.832  0.00  0.00    +0.092 C 
BRANCH  12   2
ATOM      2  N   UNL     1      -0.893   2.689  24.620  0.00  0.00    -0.299 NA
ATOM      3  N   UNL     1       0.566   2.820  27.113  0.00  0.00    -0.303 NA
ATOM     18  C   UNL     1      -0.795   1.524  25.509  0.00  0.00    +0.100 C 
ATOM     19  C   UNL     1      -0.821   3.932  25.397  0.00  0.00    +0.100 C 
ATOM     21  C   UNL     1       0.494   1.577  26.336  0.00  0.00    +0.099 C 
ATOM     22  C   UNL     1       0.467   3.986  26.226  0.00  0.00    +0.099 C 
ATOM     24  C   UNL     1       1.797   2.870  27.900  0.00  0.00    +0.105 C 
ENDBRANCH  12   2
ENDBRANCH   8  12
BRANCH  10  15
ATOM     15  C   UNL     1      -4.551  -1.546  23.919  0.00  0.00    +0.105 C 
BRANCH  15  23
ATOM      1  O   UNL     1      -2.140  -1.213  23.747  0.00  0.00    -0.420 OA
ATOM      4  N   UNL     1      -2.732  -3.168  24.657  0.00  0.00    -0.112 NA
ATOM      5  N   UNL     1      -1.351  -3.114  24.623  0.00  0.00    -0.107 NA
ATOM     23  C   UNL     1      -3.149  -2.038  24.137  0.00  0.00    +0.218 A 
ATOM     25  C   UNL     1      -1.050  -1.957  24.083  0.00  0.00    +0.248 A 
BRANCH  25  26
ATOM     26  C   UNL     1       0.225  -1.365  23.800  0.00  0.00    +0.039 A 
ATOM     27  C   UNL     1       1.387  -1.928  24.326  0.00  0.00    +0.015 A 
ATOM     28  C   UNL     1       0.303  -0.226  22.998  0.00  0.00    +0.015 A 
ATOM     29  C   UNL     1       2.628  -1.353  24.050  0.00  0.00    +0.024 A 
ATOM     30  C   UNL     1       1.543   0.350  22.722  0.00  0.00    +0.024 A 
ATOM     31  C   UNL     1       2.705  -0.213  23.248  0.00  0.00    +0.029 A 
BRANCH  31   6
ATOM      6  N   UNL     1       3.959   0.370  22.970  0.00  0.00    -0.336 N 
ATOM     32  C   UNL     1       4.067   1.464  22.026  0.00  0.00    +0.129 C 
ATOM     33  C   UNL     1       5.155  -0.112  23.632  0.00  0.00    +0.129 C 
ENDBRANCH  31   6
ENDBRANCH  25  26
ENDBRANCH  15  23
ENDBRANCH  10  15
TORSDOF 7
ENDMDL
