MODEL 1
REMARK VINA RESULT:       2.9      0.000      0.000
REMARK  Name = 26743426
REMARK  11 active torsions:
REMARK  status: ('A' for Active; 'I' for Inactive)
REMARK    1  A    between atoms: O_5  and  C_23
REMARK    2  A    between atoms: O_5  and  C_30
REMARK    3  A    between atoms: O_6  and  C_31
REMARK    4  A    between atoms: N_8  and  C_13
REMARK    5  A    between atoms: N_9  and  C_21
REMARK    6  A    between atoms: C_11  and  C_14
REMARK    7  A    between atoms: C_17  and  C_19
REMARK    8  A    between atoms: C_18  and  C_20
REMARK    9  A    between atoms: C_22  and  C_23
REMARK   10  A    between atoms: C_28  and  C_29
REMARK   11  A    between atoms: C_30  and  C_31
REMARK                            x       y       z     vdW  Elec       q    Type
REMARK                         _______ _______ _______ _____ _____    ______ ____
ROOT
ATOM      9  N   UNL     1       0.813  -0.547  23.960  0.00  0.00    -0.236 N 
ATOM     10  N   UNL     1       0.181  -1.723  23.811  0.00  0.00    -0.171 NA
ATOM     14  C   UNL     1      -1.268  -0.064  24.414  0.00  0.00    +0.003 A 
ATOM     17  C   UNL     1      -0.010   0.479  24.321  0.00  0.00    +0.046 A 
ATOM     18  C   UNL     1      -1.091  -1.422  24.089  0.00  0.00    +0.064 A 
ATOM     19  C   UNL     1       0.465   1.860  24.543  0.00  0.00    +0.066 C 
ATOM     20  C   UNL     1      -2.115  -2.480  24.033  0.00  0.00    +0.068 C 
ENDROOT
BRANCH   9  21
ATOM     21  C   UNL     1       2.189  -0.469  23.746  0.00  0.00    +0.066 A 
ATOM     24  C   UNL     1       3.010  -1.545  24.084  0.00  0.00    +0.028 A 
ATOM     25  C   UNL     1       2.744   0.686  23.197  0.00  0.00    +0.028 A 
ATOM     26  C   UNL     1       4.387  -1.466  23.873  0.00  0.00    +0.014 A 
ATOM     27  C   UNL     1       4.121   0.766  22.986  0.00  0.00    +0.014 A 
ATOM     28  C   UNL     1       4.943  -0.310  23.324  0.00  0.00    +0.055 A 
BRANCH  28  29
ATOM      1  F   UNL     1       6.795  -0.562  21.831  0.00  0.00    -0.166 F 
ATOM      2  F   UNL     1       7.120  -1.051  23.924  0.00  0.00    -0.166 F 
ATOM      3  F   UNL     1       6.928   1.024  23.306  0.00  0.00    -0.166 F 
ATOM     29  C   UNL     1       6.415  -0.225  23.099  0.00  0.00    +0.417 C 
ENDBRANCH  28  29
ENDBRANCH   9  21
BRANCH  14  11
ATOM     11  C   UNL     1      -2.553   0.641  24.783  0.00  0.00    +0.047 C 
ATOM     12  C   UNL     1      -3.463   0.922  23.569  0.00  0.00    +0.039 C 
ATOM     13  C   UNL     1      -4.902   0.787  24.081  0.00  0.00    +0.097 C 
ATOM     15  C   UNL     1      -3.460  -0.138  25.691  0.00  0.00    -0.021 C 
ATOM     16  C   UNL     1      -4.739  -0.053  25.307  0.00  0.00    -0.009 C 
BRANCH  13   8
ATOM      4  O   UNL     1      -6.236   1.438  26.564  0.00  0.00    -0.273 OA
ATOM      8  N   UNL     1      -5.484   2.050  24.449  0.00  0.00    -0.307 N 
ATOM     22  C   UNL     1      -6.109   2.272  25.670  0.00  0.00    +0.239 C 
ATOM     32  H   UNL     1      -5.471   2.805  23.767  0.00  0.00    +0.149 HD
BRANCH  22  23
ATOM     23  C   UNL     1      -6.629   3.688  25.791  0.00  0.00    +0.256 C 
BRANCH  23   5
ATOM      5  O   UNL     1      -5.569   4.617  25.716  0.00  0.00    -0.359 OA
BRANCH   5  30
ATOM     30  C   UNL     1      -4.371   4.105  26.291  0.00  0.00    +0.280 C 
BRANCH  30  31
ATOM      7  O   UNL     1      -2.052   4.416  25.634  0.00  0.00    -0.248 OA
ATOM     31  C   UNL     1      -3.229   4.284  25.330  0.00  0.00    +0.331 C 
BRANCH  31   6
ATOM      6  O   UNL     1      -3.686   4.279  24.053  0.00  0.00    -0.479 OA
ATOM     33  H   UNL     1      -2.994   4.557  23.414  0.00  0.00    +0.295 HD
ENDBRANCH  31   6
ENDBRANCH  30  31
ENDBRANCH   5  30
ENDBRANCH  23   5
ENDBRANCH  22  23
ENDBRANCH  13   8
ENDBRANCH  14  11
TORSDOF 9
ENDMDL
MODEL 2
REMARK VINA RESULT:       3.3      1.201      2.188
REMARK  Name = 26743426
REMARK  11 active torsions:
REMARK  status: ('A' for Active; 'I' for Inactive)
REMARK    1  A    between atoms: O_5  and  C_23
REMARK    2  A    between atoms: O_5  and  C_30
REMARK    3  A    between atoms: O_6  and  C_31
REMARK    4  A    between atoms: N_8  and  C_13
REMARK    5  A    between atoms: N_9  and  C_21
REMARK    6  A    between atoms: C_11  and  C_14
REMARK    7  A    between atoms: C_17  and  C_19
REMARK    8  A    between atoms: C_18  and  C_20
REMARK    9  A    between atoms: C_22  and  C_23
REMARK   10  A    between atoms: C_28  and  C_29
REMARK   11  A    between atoms: C_30  and  C_31
REMARK                            x       y       z     vdW  Elec       q    Type
REMARK                         _______ _______ _______ _____ _____    ______ ____
ROOT
ATOM      9  N   UNL     1       0.946  -0.188  23.709  0.00  0.00    -0.236 N 
ATOM     10  N   UNL     1       0.250  -1.329  23.849  0.00  0.00    -0.171 NA
ATOM     14  C   UNL     1      -1.126   0.493  23.826  0.00  0.00    +0.003 A 
ATOM     17  C   UNL     1       0.168   0.932  23.688  0.00  0.00    +0.046 A 
ATOM     18  C   UNL     1      -1.015  -0.907  23.919  0.00  0.00    +0.064 A 
ATOM     19  C   UNL     1       0.715   2.297  23.545  0.00  0.00    +0.066 C 
ATOM     20  C   UNL     1      -2.100  -1.891  24.082  0.00  0.00    +0.068 C 
ENDROOT
BRANCH   9  21
ATOM     21  C   UNL     1       2.335  -0.234  23.600  0.00  0.00    +0.066 A 
ATOM     24  C   UNL     1       3.030  -1.376  23.999  0.00  0.00    +0.028 A 
ATOM     25  C   UNL     1       3.032   0.864  23.096  0.00  0.00    +0.028 A 
ATOM     26  C   UNL     1       4.420  -1.420  23.893  0.00  0.00    +0.014 A 
ATOM     27  C   UNL     1       4.422   0.820  22.990  0.00  0.00    +0.014 A 
ATOM     28  C   UNL     1       5.116  -0.322  23.389  0.00  0.00    +0.055 A 
BRANCH  28  29
ATOM      1  F   UNL     1       7.047  -0.842  22.074  0.00  0.00    -0.166 F 
ATOM      2  F   UNL     1       7.175  -1.173  24.219  0.00  0.00    -0.166 F 
ATOM      3  F   UNL     1       7.201   0.850  23.423  0.00  0.00    -0.166 F 
ATOM     29  C   UNL     1       6.603  -0.369  23.277  0.00  0.00    +0.417 C 
ENDBRANCH  28  29
ENDBRANCH   9  21
BRANCH  14  11
ATOM     11  C   UNL     1      -2.385   1.328  23.865  0.00  0.00    +0.047 C 
ATOM     12  C   UNL     1      -2.162   2.739  24.448  0.00  0.00    +0.039 C 
ATOM     13  C   UNL     1      -3.113   3.666  23.682  0.00  0.00    +0.097 C 
ATOM     15  C   UNL     1      -2.985   1.627  22.522  0.00  0.00    -0.021 C 
ATOM     16  C   UNL     1      -3.383   2.900  22.428  0.00  0.00    -0.009 C 
BRANCH  13   8
ATOM      4  O   UNL     1      -3.463   4.245  26.495  0.00  0.00    -0.273 OA
ATOM      8  N   UNL     1      -4.354   3.887  24.376  0.00  0.00    -0.307 N 
ATOM     22  C   UNL     1      -4.426   4.160  25.736  0.00  0.00    +0.239 C 
ATOM     32  H   UNL     1      -5.223   3.802  23.852  0.00  0.00    +0.149 HD
BRANCH  22  23
ATOM     23  C   UNL     1      -5.854   4.350  26.201  0.00  0.00    +0.256 C 
BRANCH  23   5
ATOM      5  O   UNL     1      -6.631   3.209  25.907  0.00  0.00    -0.359 OA
BRANCH   5  30
ATOM     30  C   UNL     1      -6.106   2.036  26.522  0.00  0.00    +0.280 C 
BRANCH  30  31
ATOM      7  O   UNL     1      -4.729   0.234  25.648  0.00  0.00    -0.248 OA
ATOM     31  C   UNL     1      -5.563   1.110  25.470  0.00  0.00    +0.331 C 
BRANCH  31   6
ATOM      6  O   UNL     1      -6.133   1.380  24.269  0.00  0.00    -0.479 OA
ATOM     33  H   UNL     1      -7.103   1.515  24.346  0.00  0.00    +0.295 HD
ENDBRANCH  31   6
ENDBRANCH  30  31
ENDBRANCH   5  30
ENDBRANCH  23   5
ENDBRANCH  22  23
ENDBRANCH  13   8
ENDBRANCH  14  11
TORSDOF 9
ENDMDL
MODEL 3
REMARK VINA RESULT:       6.3      1.340      2.309
REMARK  Name = 26743426
REMARK  11 active torsions:
REMARK  status: ('A' for Active; 'I' for Inactive)
REMARK    1  A    between atoms: O_5  and  C_23
REMARK    2  A    between atoms: O_5  and  C_30
REMARK    3  A    between atoms: O_6  and  C_31
REMARK    4  A    between atoms: N_8  and  C_13
REMARK    5  A    between atoms: N_9  and  C_21
REMARK    6  A    between atoms: C_11  and  C_14
REMARK    7  A    between atoms: C_17  and  C_19
REMARK    8  A    between atoms: C_18  and  C_20
REMARK    9  A    between atoms: C_22  and  C_23
REMARK   10  A    between atoms: C_28  and  C_29
REMARK   11  A    between atoms: C_30  and  C_31
REMARK                            x       y       z     vdW  Elec       q    Type
REMARK                         _______ _______ _______ _____ _____    ______ ____
ROOT
ATOM      9  N   UNL     1       1.319   1.059  23.928  0.00  0.00    -0.236 N 
ATOM     10  N   UNL     1       1.070   2.379  23.904  0.00  0.00    -0.171 NA
ATOM     14  C   UNL     1      -0.807   1.182  24.417  0.00  0.00    +0.003 A 
ATOM     17  C   UNL     1       0.228   0.298  24.231  0.00  0.00    +0.046 A 
ATOM     18  C   UNL     1      -0.230   2.448  24.204  0.00  0.00    +0.064 A 
ATOM     19  C   UNL     1       0.265  -1.176  24.312  0.00  0.00    +0.066 C 
ATOM     20  C   UNL     1      -0.888   3.765  24.273  0.00  0.00    +0.068 C 
ENDROOT
BRANCH   9  21
ATOM     21  C   UNL     1       2.605   0.593  23.657  0.00  0.00    +0.066 A 
ATOM     24  C   UNL     1       2.938  -0.734  23.928  0.00  0.00    +0.028 A 
ATOM     25  C   UNL     1       3.559   1.455  23.118  0.00  0.00    +0.028 A 
ATOM     26  C   UNL     1       4.226  -1.200  23.659  0.00  0.00    +0.014 A 
ATOM     27  C   UNL     1       4.847   0.990  22.849  0.00  0.00    +0.014 A 
ATOM     28  C   UNL     1       5.180  -0.337  23.120  0.00  0.00    +0.055 A 
BRANCH  28  29
ATOM      1  F   UNL     1       6.915  -0.728  21.519  0.00  0.00    -0.166 F 
ATOM      2  F   UNL     1       6.715  -2.152  23.149  0.00  0.00    -0.166 F 
ATOM      3  F   UNL     1       7.532  -0.172  23.524  0.00  0.00    -0.166 F 
ATOM     29  C   UNL     1       6.557  -0.834  22.833  0.00  0.00    +0.417 C 
ENDBRANCH  28  29
ENDBRANCH   9  21
BRANCH  14  11
ATOM     11  C   UNL     1      -2.241   0.864  24.772  0.00  0.00    +0.047 C 
ATOM     12  C   UNL     1      -3.100   0.479  23.549  0.00  0.00    +0.039 C 
ATOM     13  C   UNL     1      -4.096  -0.574  24.050  0.00  0.00    +0.097 C 
ATOM     15  C   UNL     1      -2.417  -0.323  25.675  0.00  0.00    -0.021 C 
ATOM     16  C   UNL     1      -3.431  -1.101  25.280  0.00  0.00    -0.009 C 
BRANCH  13   8
ATOM      4  O   UNL     1      -4.898   2.198  23.847  0.00  0.00    -0.273 OA
ATOM      8  N   UNL     1      -5.370  -0.009  24.409  0.00  0.00    -0.307 N 
ATOM     22  C   UNL     1      -5.667   1.342  24.276  0.00  0.00    +0.239 C 
ATOM     32  H   UNL     1      -6.074  -0.622  24.814  0.00  0.00    +0.149 HD
BRANCH  22  23
ATOM     23  C   UNL     1      -7.076   1.659  24.726  0.00  0.00    +0.256 C 
BRANCH  23   5
ATOM      5  O   UNL     1      -7.082   2.128  26.058  0.00  0.00    -0.359 OA
BRANCH   5  30
ATOM     30  C   UNL     1      -5.771   2.452  26.513  0.00  0.00    +0.280 C 
BRANCH  30  31
ATOM      7  O   UNL     1      -6.161   4.726  25.753  0.00  0.00    -0.248 OA
ATOM     31  C   UNL     1      -5.388   3.821  26.026  0.00  0.00    +0.331 C 
BRANCH  31   6
ATOM      6  O   UNL     1      -4.038   3.921  25.928  0.00  0.00    -0.479 OA
ATOM     33  H   UNL     1      -3.665   3.263  25.302  0.00  0.00    +0.295 HD
ENDBRANCH  31   6
ENDBRANCH  30  31
ENDBRANCH   5  30
ENDBRANCH  23   5
ENDBRANCH  22  23
ENDBRANCH  13   8
ENDBRANCH  14  11
TORSDOF 9
ENDMDL
