MODEL 1
REMARK VINA RESULT:       0.5      0.000      0.000
REMARK  Name = 45783610
REMARK  6 active torsions:
REMARK  status: ('A' for Active; 'I' for Inactive)
REMARK    1  A    between atoms: S_1  and  N_10
REMARK    2  A    between atoms: S_1  and  C_27
REMARK    3  A    between atoms: N_5  and  C_16
REMARK    4  A    between atoms: C_12  and  C_17
REMARK    5  A    between atoms: C_16  and  C_18
REMARK    6  A    between atoms: C_19  and  C_20
REMARK                            x       y       z     vdW  Elec       q    Type
REMARK                         _______ _______ _______ _____ _____    ______ ____
ROOT
ATOM      2  O   UNL     1      -2.165   3.452  24.451  0.00  0.00    -0.336 OA
ATOM      6  N   UNL     1      -2.259   1.367  23.639  0.00  0.00    -0.190 NA
ATOM      9  N   UNL     1      -0.841   3.074  24.195  0.00  0.00    -0.056 NA
ATOM     17  C   UNL     1      -2.935   2.390  24.096  0.00  0.00    +0.245 A 
ATOM     19  C   UNL     1      -0.979   1.833  23.718  0.00  0.00    +0.202 A 
ENDROOT
BRANCH  19  20
ATOM     10  N   UNL     1       3.653   0.381  24.252  0.00  0.00    -0.204 N 
ATOM     11  N   UNL     1       2.324  -0.527  22.528  0.00  0.00    -0.239 NA
ATOM     20  C   UNL     1       0.141   1.033  23.315  0.00  0.00    +0.027 A 
ATOM     23  C   UNL     1       1.346   1.120  24.005  0.00  0.00    +0.056 A 
ATOM     24  C   UNL     1       0.027   0.167  22.233  0.00  0.00    +0.031 A 
ATOM     25  C   UNL     1       2.398   0.325  23.575  0.00  0.00    +0.138 A 
ATOM     26  C   UNL     1       1.137  -0.583  21.883  0.00  0.00    +0.113 A 
ATOM     29  H   UNL     1       3.671   0.961  25.101  0.00  0.00    +0.175 HD
BRANCH  10   1
ATOM      1  S   UNL     1       5.092   0.349  23.305  0.00  0.00    +0.041 S 
ATOM      3  O   UNL     1       4.726   0.506  21.911  0.00  0.00    -0.155 OA
ATOM      4  O   UNL     1       6.119   1.183  23.896  0.00  0.00    -0.155 OA
ATOM     27  C   UNL     1       5.573  -1.349  23.524  0.00  0.00    +0.218 C 
ENDBRANCH  10   1
ENDBRANCH  19  20
BRANCH  17  12
ATOM      5  N   UNL     1      -5.014   1.493  25.129  0.00  0.00    -0.284 NA
ATOM     12  C   UNL     1      -4.430   2.549  24.279  0.00  0.00    +0.146 C 
ATOM     13  C   UNL     1      -4.805   3.868  24.978  0.00  0.00    +0.030 C 
ATOM     14  C   UNL     1      -5.649   3.456  26.176  0.00  0.00    +0.017 C 
ATOM     15  C   UNL     1      -6.176   2.090  25.788  0.00  0.00    +0.085 C 
BRANCH   5  16
ATOM     16  C   UNL     1      -5.362   0.286  24.390  0.00  0.00    +0.159 C 
BRANCH  16  18
ATOM      7  N   UNL     1      -3.439  -0.756  25.613  0.00  0.00    -0.347 N 
ATOM      8  N   UNL     1      -4.199  -1.889  23.861  0.00  0.00    -0.239 NA
ATOM     18  C   UNL     1      -4.346  -0.806  24.591  0.00  0.00    +0.121 A 
ATOM     21  C   UNL     1      -2.664  -1.878  25.528  0.00  0.00    +0.104 A 
ATOM     22  C   UNL     1      -3.152  -2.562  24.440  0.00  0.00    +0.130 A 
ATOM     28  H   UNL     1      -3.356  -0.025  26.308  0.00  0.00    +0.167 HD
ENDBRANCH  16  18
ENDBRANCH   5  16
ENDBRANCH  17  12
TORSDOF 5
ENDMDL
MODEL 2
REMARK VINA RESULT:       0.6      1.953      3.635
REMARK  Name = 45783610
REMARK  6 active torsions:
REMARK  status: ('A' for Active; 'I' for Inactive)
REMARK    1  A    between atoms: S_1  and  N_10
REMARK    2  A    between atoms: S_1  and  C_27
REMARK    3  A    between atoms: N_5  and  C_16
REMARK    4  A    between atoms: C_12  and  C_17
REMARK    5  A    between atoms: C_16  and  C_18
REMARK    6  A    between atoms: C_19  and  C_20
REMARK                            x       y       z     vdW  Elec       q    Type
REMARK                         _______ _______ _______ _____ _____    ______ ____
ROOT
ATOM      2  O   UNL     1      -2.691  -1.098  25.359  0.00  0.00    -0.336 OA
ATOM      6  N   UNL     1      -1.764   0.677  24.356  0.00  0.00    -0.190 NA
ATOM      9  N   UNL     1      -1.510  -1.560  24.763  0.00  0.00    -0.056 NA
ATOM     17  C   UNL     1      -2.764   0.228  25.071  0.00  0.00    +0.245 A 
ATOM     19  C   UNL     1      -1.021  -0.456  24.192  0.00  0.00    +0.202 A 
ENDROOT
BRANCH  19  20
ATOM     10  N   UNL     1       3.841  -0.848  23.961  0.00  0.00    -0.204 N 
ATOM     11  N   UNL     1       2.596  -0.439  21.999  0.00  0.00    -0.239 NA
ATOM     20  C   UNL     1       0.206  -0.451  23.448  0.00  0.00    +0.027 A 
ATOM     23  C   UNL     1       1.417  -0.657  24.099  0.00  0.00    +0.056 A 
ATOM     24  C   UNL     1       0.188  -0.240  22.074  0.00  0.00    +0.031 A 
ATOM     25  C   UNL     1       2.574  -0.642  23.335  0.00  0.00    +0.138 A 
ATOM     26  C   UNL     1       1.399  -0.243  21.402  0.00  0.00    +0.113 A 
ATOM     29  H   UNL     1       3.805  -1.093  24.959  0.00  0.00    +0.175 HD
BRANCH  10   1
ATOM      1  S   UNL     1       5.171   0.118  23.446  0.00  0.00    +0.041 S 
ATOM      3  O   UNL     1       5.722   0.794  24.605  0.00  0.00    -0.155 OA
ATOM      4  O   UNL     1       6.032  -0.624  22.547  0.00  0.00    -0.155 OA
ATOM     27  C   UNL     1       4.313   1.348  22.491  0.00  0.00    +0.218 C 
ENDBRANCH  10   1
ENDBRANCH  19  20
BRANCH  17  12
ATOM      5  N   UNL     1      -3.955   2.405  25.265  0.00  0.00    -0.284 NA
ATOM     12  C   UNL     1      -3.968   0.970  25.612  0.00  0.00    +0.146 C 
ATOM     13  C   UNL     1      -5.298   0.442  25.041  0.00  0.00    +0.030 C 
ATOM     14  C   UNL     1      -5.988   1.661  24.447  0.00  0.00    +0.017 C 
ATOM     15  C   UNL     1      -5.354   2.824  25.185  0.00  0.00    +0.085 C 
BRANCH   5  16
ATOM     16  C   UNL     1      -3.192   3.217  26.204  0.00  0.00    +0.159 C 
BRANCH  16  18
ATOM      7  N   UNL     1      -1.037   3.307  24.929  0.00  0.00    -0.347 N 
ATOM      8  N   UNL     1      -1.958   5.269  25.411  0.00  0.00    -0.239 NA
ATOM     18  C   UNL     1      -2.078   3.965  25.523  0.00  0.00    +0.121 A 
ATOM     21  C   UNL     1      -0.199   4.251  24.407  0.00  0.00    +0.104 A 
ATOM     22  C   UNL     1      -0.788   5.454  24.717  0.00  0.00    +0.130 A 
ATOM     28  H   UNL     1      -0.909   2.304  24.882  0.00  0.00    +0.167 HD
ENDBRANCH  16  18
ENDBRANCH   5  16
ENDBRANCH  17  12
TORSDOF 5
ENDMDL
MODEL 3
REMARK VINA RESULT:       1.9      2.125      3.690
REMARK  Name = 45783610
REMARK  6 active torsions:
REMARK  status: ('A' for Active; 'I' for Inactive)
REMARK    1  A    between atoms: S_1  and  N_10
REMARK    2  A    between atoms: S_1  and  C_27
REMARK    3  A    between atoms: N_5  and  C_16
REMARK    4  A    between atoms: C_12  and  C_17
REMARK    5  A    between atoms: C_16  and  C_18
REMARK    6  A    between atoms: C_19  and  C_20
REMARK                            x       y       z     vdW  Elec       q    Type
REMARK                         _______ _______ _______ _____ _____    ______ ____
ROOT
ATOM      2  O   UNL     1      -4.690  -0.006  24.611  0.00  0.00    -0.336 OA
ATOM      6  N   UNL     1      -2.873   1.075  25.350  0.00  0.00    -0.190 NA
ATOM      9  N   UNL     1      -3.589  -0.768  24.198  0.00  0.00    -0.056 NA
ATOM     17  C   UNL     1      -4.180   1.061  25.282  0.00  0.00    +0.245 A 
ATOM     19  C   UNL     1      -2.555  -0.065  24.671  0.00  0.00    +0.202 A 
ENDROOT
BRANCH  19  20
ATOM     10  N   UNL     1       2.083   0.918  23.503  0.00  0.00    -0.204 N 
ATOM     11  N   UNL     1       1.459  -1.274  24.111  0.00  0.00    -0.239 NA
ATOM     20  C   UNL     1      -1.194  -0.475  24.482  0.00  0.00    +0.027 A 
ATOM     23  C   UNL     1      -0.235   0.451  24.082  0.00  0.00    +0.056 A 
ATOM     24  C   UNL     1      -0.827  -1.799  24.696  0.00  0.00    +0.031 A 
ATOM     25  C   UNL     1       1.066   0.004  23.912  0.00  0.00    +0.138 A 
ATOM     26  C   UNL     1       0.500  -2.144  24.498  0.00  0.00    +0.113 A 
ATOM     29  H   UNL     1       1.793   1.903  23.445  0.00  0.00    +0.175 HD
BRANCH  10   1
ATOM      1  S   UNL     1       3.244   0.382  22.348  0.00  0.00    +0.041 S 
ATOM      3  O   UNL     1       2.539  -0.248  21.248  0.00  0.00    -0.155 OA
ATOM      4  O   UNL     1       4.236   1.408  22.097  0.00  0.00    -0.155 OA
ATOM     27  C   UNL     1       4.026  -0.920  23.272  0.00  0.00    +0.218 C 
ENDBRANCH  10   1
ENDBRANCH  19  20
BRANCH  17  12
ATOM      5  N   UNL     1      -4.832   3.450  25.526  0.00  0.00    -0.284 NA
ATOM     12  C   UNL     1      -5.182   2.050  25.838  0.00  0.00    +0.146 C 
ATOM     13  C   UNL     1      -6.593   1.859  25.253  0.00  0.00    +0.030 C 
ATOM     14  C   UNL     1      -6.976   3.219  24.687  0.00  0.00    +0.017 C 
ATOM     15  C   UNL     1      -6.095   4.185  25.454  0.00  0.00    +0.085 C 
BRANCH   5  16
ATOM     16  C   UNL     1      -3.909   4.040  26.487  0.00  0.00    +0.159 C 
BRANCH  16  18
ATOM      7  N   UNL     1      -1.542   3.356  26.026  0.00  0.00    -0.347 N 
ATOM      8  N   UNL     1      -2.162   5.319  25.192  0.00  0.00    -0.239 NA
ATOM     18  C   UNL     1      -2.548   4.272  25.887  0.00  0.00    +0.121 A 
ATOM     21  C   UNL     1      -0.445   3.850  25.379  0.00  0.00    +0.104 A 
ATOM     22  C   UNL     1      -0.852   5.062  24.873  0.00  0.00    +0.130 A 
ATOM     28  H   UNL     1      -1.598   2.472  26.515  0.00  0.00    +0.167 HD
ENDBRANCH  16  18
ENDBRANCH   5  16
ENDBRANCH  17  12
TORSDOF 5
ENDMDL
MODEL 4
REMARK VINA RESULT:       3.7      1.522      3.384
REMARK  Name = 45783610
REMARK  6 active torsions:
REMARK  status: ('A' for Active; 'I' for Inactive)
REMARK    1  A    between atoms: S_1  and  N_10
REMARK    2  A    between atoms: S_1  and  C_27
REMARK    3  A    between atoms: N_5  and  C_16
REMARK    4  A    between atoms: C_12  and  C_17
REMARK    5  A    between atoms: C_16  and  C_18
REMARK    6  A    between atoms: C_19  and  C_20
REMARK                            x       y       z     vdW  Elec       q    Type
REMARK                         _______ _______ _______ _____ _____    ______ ____
ROOT
ATOM      2  O   UNL     1      -2.198   0.642  26.012  0.00  0.00    -0.336 OA
ATOM      6  N   UNL     1      -1.276  -0.410  24.263  0.00  0.00    -0.190 NA
ATOM      9  N   UNL     1      -0.992   1.305  25.751  0.00  0.00    -0.056 NA
ATOM     17  C   UNL     1      -2.288  -0.353  25.090  0.00  0.00    +0.245 A 
ATOM     19  C   UNL     1      -0.507   0.626  24.707  0.00  0.00    +0.202 A 
ENDROOT
BRANCH  19  20
ATOM     10  N   UNL     1       3.919  -0.629  23.070  0.00  0.00    -0.204 N 
ATOM     11  N   UNL     1       3.179   1.603  22.876  0.00  0.00    -0.239 NA
ATOM     20  C   UNL     1       0.743   0.957  24.086  0.00  0.00    +0.027 A 
ATOM     23  C   UNL     1       1.708  -0.026  23.893  0.00  0.00    +0.056 A 
ATOM     24  C   UNL     1       0.994   2.261  23.675  0.00  0.00    +0.031 A 
ATOM     25  C   UNL     1       2.900   0.346  23.288  0.00  0.00    +0.138 A 
ATOM     26  C   UNL     1       2.217   2.530  23.081  0.00  0.00    +0.113 A 
ATOM     29  H   UNL     1       3.661  -1.597  23.301  0.00  0.00    +0.175 HD
BRANCH  10   1
ATOM      1  S   UNL     1       5.556  -0.174  23.355  0.00  0.00    +0.041 S 
ATOM      3  O   UNL     1       6.318  -0.419  22.146  0.00  0.00    -0.155 OA
ATOM      4  O   UNL     1       5.627   1.110  24.023  0.00  0.00    -0.155 OA
ATOM     27  C   UNL     1       6.029  -1.425  24.527  0.00  0.00    +0.218 C 
ENDBRANCH  10   1
ENDBRANCH  19  20
BRANCH  17  12
ATOM      5  N   UNL     1      -4.550  -0.840  24.175  0.00  0.00    -0.284 NA
ATOM     12  C   UNL     1      -3.522  -1.228  25.161  0.00  0.00    +0.146 C 
ATOM     13  C   UNL     1      -3.221  -2.706  24.852  0.00  0.00    +0.030 C 
ATOM     14  C   UNL     1      -4.170  -3.077  23.721  0.00  0.00    +0.017 C 
ATOM     15  C   UNL     1      -5.287  -2.061  23.845  0.00  0.00    +0.085 C 
BRANCH   5  16
ATOM     16  C   UNL     1      -5.431   0.220  24.649  0.00  0.00    +0.159 C 
BRANCH  16  18
ATOM      7  N   UNL     1      -4.841   2.447  25.636  0.00  0.00    -0.347 N 
ATOM      8  N   UNL     1      -4.065   2.059  23.591  0.00  0.00    -0.239 NA
ATOM     18  C   UNL     1      -4.766   1.569  24.590  0.00  0.00    +0.121 A 
ATOM     21  C   UNL     1      -4.147   3.568  25.281  0.00  0.00    +0.104 A 
ATOM     22  C   UNL     1      -3.677   3.306  24.015  0.00  0.00    +0.130 A 
ATOM     28  H   UNL     1      -5.321   2.296  26.513  0.00  0.00    +0.167 HD
ENDBRANCH  16  18
ENDBRANCH   5  16
ENDBRANCH  17  12
TORSDOF 5
ENDMDL
MODEL 5
REMARK VINA RESULT:       3.7      3.211      7.944
REMARK  Name = 45783610
REMARK  6 active torsions:
REMARK  status: ('A' for Active; 'I' for Inactive)
REMARK    1  A    between atoms: S_1  and  N_10
REMARK    2  A    between atoms: S_1  and  C_27
REMARK    3  A    between atoms: N_5  and  C_16
REMARK    4  A    between atoms: C_12  and  C_17
REMARK    5  A    between atoms: C_16  and  C_18
REMARK    6  A    between atoms: C_19  and  C_20
REMARK                            x       y       z     vdW  Elec       q    Type
REMARK                         _______ _______ _______ _____ _____    ______ ____
ROOT
ATOM      2  O   UNL     1       1.320  -1.788  24.528  0.00  0.00    -0.336 OA
ATOM      6  N   UNL     1       0.037  -0.320  23.426  0.00  0.00    -0.190 NA
ATOM      9  N   UNL     1       0.008  -2.017  24.962  0.00  0.00    -0.056 NA
ATOM     17  C   UNL     1       1.248  -0.774  23.625  0.00  0.00    +0.245 A 
ATOM     19  C   UNL     1      -0.690  -1.113  24.267  0.00  0.00    +0.202 A 
ENDROOT
BRANCH  19  20
ATOM     10  N   UNL     1      -4.739   1.617  24.255  0.00  0.00    -0.204 N 
ATOM     11  N   UNL     1      -4.884  -0.707  24.636  0.00  0.00    -0.239 NA
ATOM     20  C   UNL     1      -2.112  -0.975  24.392  0.00  0.00    +0.027 A 
ATOM     23  C   UNL     1      -2.707   0.275  24.256  0.00  0.00    +0.056 A 
ATOM     24  C   UNL     1      -2.901  -2.090  24.649  0.00  0.00    +0.031 A 
ATOM     25  C   UNL     1      -4.085   0.354  24.386  0.00  0.00    +0.138 A 
ATOM     26  C   UNL     1      -4.269  -1.905  24.762  0.00  0.00    +0.113 A 
ATOM     29  H   UNL     1      -4.135   2.399  23.973  0.00  0.00    +0.175 HD
BRANCH  10   1
ATOM      1  S   UNL     1      -6.028   1.983  25.337  0.00  0.00    +0.041 S 
ATOM      3  O   UNL     1      -7.280   1.867  24.614  0.00  0.00    -0.155 OA
ATOM      4  O   UNL     1      -5.845   1.308  26.607  0.00  0.00    -0.155 OA
ATOM     27  C   UNL     1      -5.738   3.718  25.594  0.00  0.00    +0.218 C 
ENDBRANCH  10   1
ENDBRANCH  19  20
BRANCH  17  12
ATOM      5  N   UNL     1       3.125   0.859  23.658  0.00  0.00    -0.284 NA
ATOM     12  C   UNL     1       2.554  -0.333  23.000  0.00  0.00    +0.146 C 
ATOM     13  C   UNL     1       3.655  -1.404  23.106  0.00  0.00    +0.030 C 
ATOM     14  C   UNL     1       4.826  -0.705  23.782  0.00  0.00    +0.017 C 
ATOM     15  C   UNL     1       4.576   0.763  23.499  0.00  0.00    +0.085 C 
BRANCH   5  16
ATOM     16  C   UNL     1       2.598   2.113  23.134  0.00  0.00    +0.159 C 
BRANCH  16  18
ATOM      7  N   UNL     1       0.990   2.015  25.053  0.00  0.00    -0.347 N 
ATOM      8  N   UNL     1       0.418   3.359  23.379  0.00  0.00    -0.239 NA
ATOM     18  C   UNL     1       1.325   2.519  23.827  0.00  0.00    +0.121 A 
ATOM     21  C   UNL     1      -0.208   2.568  25.409  0.00  0.00    +0.104 A 
ATOM     22  C   UNL     1      -0.540   3.394  24.361  0.00  0.00    +0.130 A 
ATOM     28  H   UNL     1       1.528   1.356  25.599  0.00  0.00    +0.167 HD
ENDBRANCH  16  18
ENDBRANCH   5  16
ENDBRANCH  17  12
TORSDOF 5
ENDMDL
