MODEL 1
REMARK VINA RESULT:       6.7      0.000      0.000
REMARK  Name = 11886077
REMARK  7 active torsions:
REMARK  status: ('A' for Active; 'I' for Inactive)
REMARK    1  A    between atoms: O_3  and  C_14
REMARK    2  A    between atoms: O_3  and  C_18
REMARK    3  A    between atoms: N_5  and  C_13
REMARK    4  A    between atoms: N_9  and  C_25
REMARK    5  A    between atoms: C_17  and  C_19
REMARK    6  A    between atoms: C_24  and  C_26
REMARK    7  A    between atoms: C_31  and  C_37
REMARK                            x       y       z     vdW  Elec       q    Type
REMARK                         _______ _______ _______ _____ _____    ______ ____
ROOT
ATOM      1  O   UNL     1      -1.523   0.910  24.188  0.00  0.00    -0.368 OA
ATOM      2  O   UNL     1      -4.337  -0.363  24.045  0.00  0.00    -0.368 OA
ATOM     11  C   UNL     1      -3.891   0.970  24.378  0.00  0.00    +0.177 C 
ATOM     12  C   UNL     1      -2.592   0.819  25.143  0.00  0.00    +0.192 C 
ATOM     13  C   UNL     1      -3.503   1.706  23.111  0.00  0.00    +0.168 C 
ATOM     14  C   UNL     1      -2.706  -0.572  25.722  0.00  0.00    +0.235 C 
ATOM     15  C   UNL     1      -2.053   1.282  22.906  0.00  0.00    +0.190 C 
ATOM     16  C   UNL     1      -3.431  -1.313  24.624  0.00  0.00    +0.207 C 
ENDROOT
BRANCH  13   5
ATOM      5  N   UNL     1      -3.726   3.150  23.210  0.00  0.00    -0.217 N 
ATOM      6  N   UNL     1      -4.605   3.758  22.408  0.00  0.00    -0.043 NA
ATOM      7  N   UNL     1      -3.650   5.235  23.778  0.00  0.00    -0.108 NA
ATOM      8  N   UNL     1      -4.557   5.037  22.761  0.00  0.00    -0.023 NA
ATOM     17  C   UNL     1      -3.148   4.052  24.041  0.00  0.00    +0.182 A 
BRANCH  17  19
ATOM     19  C   UNL     1      -2.153   3.733  25.033  0.00  0.00    +0.021 A 
ATOM     20  C   UNL     1      -0.809   3.632  24.669  0.00  0.00    +0.012 A 
ATOM     21  C   UNL     1      -2.531   3.526  26.361  0.00  0.00    +0.012 A 
ATOM     22  C   UNL     1       0.154   3.324  25.630  0.00  0.00    +0.009 A 
ATOM     23  C   UNL     1      -1.567   3.219  27.322  0.00  0.00    +0.009 A 
ATOM     24  C   UNL     1      -0.225   3.118  26.956  0.00  0.00    -0.018 A 
BRANCH  24  26
ATOM     26  C   UNL     1       0.774   2.799  27.953  0.00  0.00    -0.018 A 
ATOM     29  C   UNL     1       2.127   2.991  27.671  0.00  0.00    +0.008 A 
ATOM     30  C   UNL     1       0.384   2.302  29.197  0.00  0.00    +0.008 A 
ATOM     34  C   UNL     1       3.090   2.685  28.633  0.00  0.00    +0.001 A 
ATOM     35  C   UNL     1       1.347   1.996  30.158  0.00  0.00    +0.001 A 
ATOM     36  C   UNL     1       2.700   2.188  29.877  0.00  0.00    +0.000 A 
ENDBRANCH  24  26
ENDBRANCH  17  19
ENDBRANCH  13   5
BRANCH  14   3
ATOM      3  O   UNL     1      -1.462  -1.158  26.028  0.00  0.00    -0.442 OA
BRANCH   3  18
ATOM      4  O   UNL     1      -0.670  -2.596  24.435  0.00  0.00    -0.226 OA
ATOM      9  N   UNL     1       0.140  -0.408  24.627  0.00  0.00    -0.251 N 
ATOM     18  C   UNL     1      -0.650  -1.491  24.963  0.00  0.00    +0.405 C 
ATOM     38  H   UNL     1       0.010   0.431  25.187  0.00  0.00    +0.158 HD
BRANCH   9  25
ATOM     25  C   UNL     1       1.107  -0.321  23.601  0.00  0.00    +0.038 A 
ATOM     27  C   UNL     1       2.433  -0.093  23.934  0.00  0.00    +0.042 A 
ATOM     28  C   UNL     1       0.710  -0.461  22.281  0.00  0.00    +0.023 A 
ATOM     31  C   UNL     1       3.386  -0.005  22.920  0.00  0.00    +0.054 A 
ATOM     32  C   UNL     1       1.663  -0.374  21.267  0.00  0.00    +0.003 A 
ATOM     33  C   UNL     1       3.001  -0.145  21.586  0.00  0.00    +0.019 A 
BRANCH  31  37
ATOM     10  N   UNL     1       5.873   0.420  23.512  0.00  0.00    -0.191 NA
ATOM     37  C   UNL     1       4.757   0.229  23.245  0.00  0.00    +0.099 C 
ENDBRANCH  31  37
ENDBRANCH   9  25
ENDBRANCH   3  18
ENDBRANCH  14   3
TORSDOF 7
ENDMDL
MODEL 2
REMARK VINA RESULT:       7.6      2.340      5.840
REMARK  Name = 11886077
REMARK  7 active torsions:
REMARK  status: ('A' for Active; 'I' for Inactive)
REMARK    1  A    between atoms: O_3  and  C_14
REMARK    2  A    between atoms: O_3  and  C_18
REMARK    3  A    between atoms: N_5  and  C_13
REMARK    4  A    between atoms: N_9  and  C_25
REMARK    5  A    between atoms: C_17  and  C_19
REMARK    6  A    between atoms: C_24  and  C_26
REMARK    7  A    between atoms: C_31  and  C_37
REMARK                            x       y       z     vdW  Elec       q    Type
REMARK                         _______ _______ _______ _____ _____    ______ ____
ROOT
ATOM      1  O   UNL     1      -1.587   1.117  24.774  0.00  0.00    -0.368 OA
ATOM      2  O   UNL     1      -4.511   1.989  25.268  0.00  0.00    -0.368 OA
ATOM     11  C   UNL     1      -3.934   0.952  24.444  0.00  0.00    +0.177 C 
ATOM     12  C   UNL     1      -2.642   1.508  23.881  0.00  0.00    +0.192 C 
ATOM     13  C   UNL     1      -3.500  -0.208  25.319  0.00  0.00    +0.168 C 
ATOM     14  C   UNL     1      -2.879   2.999  23.915  0.00  0.00    +0.235 C 
ATOM     15  C   UNL     1      -2.100   0.210  25.760  0.00  0.00    +0.190 C 
ATOM     16  C   UNL     1      -3.691   3.162  25.178  0.00  0.00    +0.207 C 
ENDROOT
BRANCH  13   5
ATOM      5  N   UNL     1      -3.581  -1.495  24.626  0.00  0.00    -0.217 N 
ATOM      6  N   UNL     1      -4.739  -2.160  24.564  0.00  0.00    -0.043 NA
ATOM      7  N   UNL     1      -3.133  -3.293  23.512  0.00  0.00    -0.108 NA
ATOM      8  N   UNL     1      -4.460  -3.262  23.879  0.00  0.00    -0.023 NA
ATOM     17  C   UNL     1      -2.609  -2.187  23.986  0.00  0.00    +0.182 A 
BRANCH  17  19
ATOM     19  C   UNL     1      -1.239  -1.756  23.864  0.00  0.00    +0.021 A 
ATOM     20  C   UNL     1      -0.301  -2.120  24.832  0.00  0.00    +0.012 A 
ATOM     21  C   UNL     1      -0.847  -0.974  22.776  0.00  0.00    +0.012 A 
ATOM     22  C   UNL     1       1.024  -1.703  24.713  0.00  0.00    +0.009 A 
ATOM     23  C   UNL     1       0.480  -0.557  22.658  0.00  0.00    +0.009 A 
ATOM     24  C   UNL     1       1.415  -0.921  23.626  0.00  0.00    -0.018 A 
BRANCH  24  26
ATOM     26  C   UNL     1       2.789  -0.489  23.503  0.00  0.00    -0.018 A 
ATOM     29  C   UNL     1       3.083   0.749  22.931  0.00  0.00    +0.008 A 
ATOM     30  C   UNL     1       3.822  -1.309  23.959  0.00  0.00    +0.008 A 
ATOM     34  C   UNL     1       4.409   1.167  22.813  0.00  0.00    +0.001 A 
ATOM     35  C   UNL     1       5.147  -0.891  23.842  0.00  0.00    +0.001 A 
ATOM     36  C   UNL     1       5.441   0.347  23.270  0.00  0.00    +0.000 A 
ENDBRANCH  24  26
ENDBRANCH  17  19
ENDBRANCH  13   5
BRANCH  14   3
ATOM      3  O   UNL     1      -1.691   3.758  23.946  0.00  0.00    -0.442 OA
BRANCH   3  18
ATOM      4  O   UNL     1      -1.297   5.217  25.662  0.00  0.00    -0.226 OA
ATOM      9  N   UNL     1      -0.598   2.984  25.761  0.00  0.00    -0.251 N 
ATOM     18  C   UNL     1      -1.194   4.091  25.189  0.00  0.00    +0.405 C 
ATOM     38  H   UNL     1      -0.614   2.131  25.208  0.00  0.00    +0.158 HD
BRANCH   9  25
ATOM     25  C   UNL     1       0.032   2.890  27.022  0.00  0.00    +0.038 A 
ATOM     27  C   UNL     1       1.413   2.782  27.086  0.00  0.00    +0.042 A 
ATOM     28  C   UNL     1      -0.742   2.903  28.171  0.00  0.00    +0.023 A 
ATOM     31  C   UNL     1       2.034   2.687  28.330  0.00  0.00    +0.054 A 
ATOM     32  C   UNL     1      -0.121   2.808  29.416  0.00  0.00    +0.003 A 
ATOM     33  C   UNL     1       1.267   2.699  29.496  0.00  0.00    +0.019 A 
BRANCH  31  37
ATOM     10  N   UNL     1       4.613   2.484  28.482  0.00  0.00    -0.191 NA
ATOM     37  C   UNL     1       3.456   2.576  28.413  0.00  0.00    +0.099 C 
ENDBRANCH  31  37
ENDBRANCH   9  25
ENDBRANCH   3  18
ENDBRANCH  14   3
TORSDOF 7
ENDMDL
MODEL 3
REMARK VINA RESULT:       7.7      2.388      5.969
REMARK  Name = 11886077
REMARK  7 active torsions:
REMARK  status: ('A' for Active; 'I' for Inactive)
REMARK    1  A    between atoms: O_3  and  C_14
REMARK    2  A    between atoms: O_3  and  C_18
REMARK    3  A    between atoms: N_5  and  C_13
REMARK    4  A    between atoms: N_9  and  C_25
REMARK    5  A    between atoms: C_17  and  C_19
REMARK    6  A    between atoms: C_24  and  C_26
REMARK    7  A    between atoms: C_31  and  C_37
REMARK                            x       y       z     vdW  Elec       q    Type
REMARK                         _______ _______ _______ _____ _____    ______ ____
ROOT
ATOM      1  O   UNL     1      -3.829   1.273  23.794  0.00  0.00    -0.368 OA
ATOM      2  O   UNL     1      -5.019   0.844  26.615  0.00  0.00    -0.368 OA
ATOM     11  C   UNL     1      -4.944  -0.012  25.454  0.00  0.00    +0.177 C 
ATOM     12  C   UNL     1      -5.136   0.878  24.241  0.00  0.00    +0.192 C 
ATOM     13  C   UNL     1      -3.534  -0.551  25.310  0.00  0.00    +0.168 C 
ATOM     14  C   UNL     1      -5.910   2.046  24.805  0.00  0.00    +0.235 C 
ATOM     15  C   UNL     1      -2.829   0.555  24.531  0.00  0.00    +0.190 C 
ATOM     16  C   UNL     1      -5.318   2.180  26.189  0.00  0.00    +0.207 C 
ENDROOT
BRANCH  13   5
ATOM      5  N   UNL     1      -3.501  -1.876  24.688  0.00  0.00    -0.217 N 
ATOM      6  N   UNL     1      -4.597  -2.641  24.659  0.00  0.00    -0.043 NA
ATOM      7  N   UNL     1      -2.892  -3.686  23.673  0.00  0.00    -0.108 NA
ATOM      8  N   UNL     1      -4.219  -3.750  24.035  0.00  0.00    -0.023 NA
ATOM     17  C   UNL     1      -2.468  -2.515  24.087  0.00  0.00    +0.182 A 
BRANCH  17  19
ATOM     19  C   UNL     1      -1.140  -1.975  23.945  0.00  0.00    +0.021 A 
ATOM     20  C   UNL     1      -0.152  -2.289  24.881  0.00  0.00    +0.012 A 
ATOM     21  C   UNL     1      -0.838  -1.137  22.870  0.00  0.00    +0.012 A 
ATOM     22  C   UNL     1       1.133  -1.766  24.742  0.00  0.00    +0.009 A 
ATOM     23  C   UNL     1       0.449  -0.615  22.732  0.00  0.00    +0.009 A 
ATOM     24  C   UNL     1       1.434  -0.929  23.667  0.00  0.00    -0.018 A 
BRANCH  24  26
ATOM     26  C   UNL     1       2.767  -0.387  23.524  0.00  0.00    -0.018 A 
ATOM     29  C   UNL     1       3.874  -1.144  23.910  0.00  0.00    +0.008 A 
ATOM     30  C   UNL     1       2.947   0.892  22.996  0.00  0.00    +0.008 A 
ATOM     34  C   UNL     1       5.160  -0.622  23.770  0.00  0.00    +0.001 A 
ATOM     35  C   UNL     1       4.233   1.414  22.856  0.00  0.00    +0.001 A 
ATOM     36  C   UNL     1       5.339   0.657  23.242  0.00  0.00    +0.000 A 
ENDBRANCH  24  26
ENDBRANCH  17  19
ENDBRANCH  13   5
BRANCH  14   3
ATOM      3  O   UNL     1      -5.773   3.229  24.051  0.00  0.00    -0.442 OA
BRANCH   3  18
ATOM      4  O   UNL     1      -4.117   3.852  22.602  0.00  0.00    -0.226 OA
ATOM      9  N   UNL     1      -3.748   3.730  24.911  0.00  0.00    -0.251 N 
ATOM     18  C   UNL     1      -4.489   3.631  23.749  0.00  0.00    +0.405 C 
ATOM     38  H   UNL     1      -4.237   3.504  25.774  0.00  0.00    +0.158 HD
BRANCH   9  25
ATOM     25  C   UNL     1      -2.394   4.107  25.051  0.00  0.00    +0.038 A 
ATOM     27  C   UNL     1      -1.557   3.351  25.857  0.00  0.00    +0.042 A 
ATOM     28  C   UNL     1      -1.929   5.228  24.382  0.00  0.00    +0.023 A 
ATOM     31  C   UNL     1      -0.221   3.726  25.997  0.00  0.00    +0.054 A 
ATOM     32  C   UNL     1      -0.593   5.603  24.521  0.00  0.00    +0.003 A 
ATOM     33  C   UNL     1       0.261   4.852  25.329  0.00  0.00    +0.019 A 
BRANCH  31  37
ATOM     10  N   UNL     1       1.367   2.333  27.497  0.00  0.00    -0.191 NA
ATOM     37  C   UNL     1       0.654   2.957  26.823  0.00  0.00    +0.099 C 
ENDBRANCH  31  37
ENDBRANCH   9  25
ENDBRANCH   3  18
ENDBRANCH  14   3
TORSDOF 7
ENDMDL
MODEL 4
REMARK VINA RESULT:       8.3      2.575      6.120
REMARK  Name = 11886077
REMARK  7 active torsions:
REMARK  status: ('A' for Active; 'I' for Inactive)
REMARK    1  A    between atoms: O_3  and  C_14
REMARK    2  A    between atoms: O_3  and  C_18
REMARK    3  A    between atoms: N_5  and  C_13
REMARK    4  A    between atoms: N_9  and  C_25
REMARK    5  A    between atoms: C_17  and  C_19
REMARK    6  A    between atoms: C_24  and  C_26
REMARK    7  A    between atoms: C_31  and  C_37
REMARK                            x       y       z     vdW  Elec       q    Type
REMARK                         _______ _______ _______ _____ _____    ______ ____
ROOT
ATOM      1  O   UNL     1      -1.173   1.105  25.221  0.00  0.00    -0.368 OA
ATOM      2  O   UNL     1      -4.015   2.255  25.615  0.00  0.00    -0.368 OA
ATOM     11  C   UNL     1      -3.501   1.210  24.759  0.00  0.00    +0.177 C 
ATOM     12  C   UNL     1      -2.127   1.657  24.300  0.00  0.00    +0.192 C 
ATOM     13  C   UNL     1      -3.241  -0.037  25.581  0.00  0.00    +0.168 C 
ATOM     14  C   UNL     1      -2.210   3.160  24.416  0.00  0.00    +0.235 C 
ATOM     15  C   UNL     1      -1.835   0.203  26.120  0.00  0.00    +0.190 C 
ATOM     16  C   UNL     1      -3.074   3.337  25.643  0.00  0.00    +0.207 C 
ENDROOT
BRANCH  13   5
ATOM      5  N   UNL     1      -3.415  -1.266  24.806  0.00  0.00    -0.217 N 
ATOM      6  N   UNL     1      -4.608  -1.867  24.743  0.00  0.00    -0.043 NA
ATOM      7  N   UNL     1      -3.102  -3.001  23.553  0.00  0.00    -0.108 NA
ATOM      8  N   UNL     1      -4.411  -2.930  23.973  0.00  0.00    -0.023 NA
ATOM     17  C   UNL     1      -2.504  -1.959  24.081  0.00  0.00    +0.182 A 
BRANCH  17  19
ATOM     19  C   UNL     1      -1.119  -1.589  23.935  0.00  0.00    +0.021 A 
ATOM     20  C   UNL     1      -0.171  -2.047  24.852  0.00  0.00    +0.012 A 
ATOM     21  C   UNL     1      -0.722  -0.772  22.875  0.00  0.00    +0.012 A 
ATOM     22  C   UNL     1       1.169  -1.689  24.710  0.00  0.00    +0.009 A 
ATOM     23  C   UNL     1       0.620  -0.414  22.733  0.00  0.00    +0.009 A 
ATOM     24  C   UNL     1       1.565  -0.872  23.650  0.00  0.00    -0.018 A 
BRANCH  24  26
ATOM     26  C   UNL     1       2.955  -0.501  23.503  0.00  0.00    -0.018 A 
ATOM     29  C   UNL     1       3.958  -1.359  23.953  0.00  0.00    +0.008 A 
ATOM     30  C   UNL     1       3.293   0.715  22.908  0.00  0.00    +0.008 A 
ATOM     34  C   UNL     1       5.299  -1.003  23.810  0.00  0.00    +0.001 A 
ATOM     35  C   UNL     1       4.633   1.071  22.764  0.00  0.00    +0.001 A 
ATOM     36  C   UNL     1       5.637   0.213  23.215  0.00  0.00    +0.000 A 
ENDBRANCH  24  26
ENDBRANCH  17  19
ENDBRANCH  13   5
BRANCH  14   3
ATOM      3  O   UNL     1      -0.954   3.784  24.556  0.00  0.00    -0.442 OA
BRANCH   3  18
ATOM      4  O   UNL     1       0.756   2.283  24.787  0.00  0.00    -0.226 OA
ATOM      9  N   UNL     1      -0.053   3.513  26.607  0.00  0.00    -0.251 N 
ATOM     18  C   UNL     1       0.001   3.108  25.287  0.00  0.00    +0.405 C 
ATOM     38  H   UNL     1      -0.754   4.215  26.831  0.00  0.00    +0.158 HD
BRANCH   9  25
ATOM     25  C   UNL     1       0.745   3.072  27.686  0.00  0.00    +0.038 A 
ATOM     27  C   UNL     1       0.180   2.958  28.947  0.00  0.00    +0.042 A 
ATOM     28  C   UNL     1       2.078   2.767  27.464  0.00  0.00    +0.023 A 
ATOM     31  C   UNL     1       0.969   2.525  30.012  0.00  0.00    +0.054 A 
ATOM     32  C   UNL     1       2.867   2.334  28.529  0.00  0.00    +0.003 A 
ATOM     33  C   UNL     1       2.314   2.213  29.803  0.00  0.00    +0.019 A 
BRANCH  31  37
ATOM     10  N   UNL     1      -0.058   2.302  32.380  0.00  0.00    -0.191 NA
ATOM     37  C   UNL     1       0.403   2.401  31.318  0.00  0.00    +0.099 C 
ENDBRANCH  31  37
ENDBRANCH   9  25
ENDBRANCH   3  18
ENDBRANCH  14   3
TORSDOF 7
ENDMDL
MODEL 5
REMARK VINA RESULT:       8.7      2.699      4.845
REMARK  Name = 11886077
REMARK  7 active torsions:
REMARK  status: ('A' for Active; 'I' for Inactive)
REMARK    1  A    between atoms: O_3  and  C_14
REMARK    2  A    between atoms: O_3  and  C_18
REMARK    3  A    between atoms: N_5  and  C_13
REMARK    4  A    between atoms: N_9  and  C_25
REMARK    5  A    between atoms: C_17  and  C_19
REMARK    6  A    between atoms: C_24  and  C_26
REMARK    7  A    between atoms: C_31  and  C_37
REMARK                            x       y       z     vdW  Elec       q    Type
REMARK                         _______ _______ _______ _____ _____    ______ ____
ROOT
ATOM      1  O   UNL     1      -2.361   2.823  26.396  0.00  0.00    -0.368 OA
ATOM      2  O   UNL     1      -1.374   5.406  25.016  0.00  0.00    -0.368 OA
ATOM     11  C   UNL     1      -2.597   4.648  24.893  0.00  0.00    +0.177 C 
ATOM     12  C   UNL     1      -2.219   3.185  25.013  0.00  0.00    +0.192 C 
ATOM     13  C   UNL     1      -3.481   4.912  26.096  0.00  0.00    +0.168 C 
ATOM     14  C   UNL     1      -0.772   3.179  24.580  0.00  0.00    +0.235 C 
ATOM     15  C   UNL     1      -2.968   3.904  27.119  0.00  0.00    +0.190 C 
ATOM     16  C   UNL     1      -0.272   4.495  25.128  0.00  0.00    +0.207 C 
ENDROOT
BRANCH  13   5
ATOM      5  N   UNL     1      -4.907   4.813  25.777  0.00  0.00    -0.217 N 
ATOM      6  N   UNL     1      -5.710   5.872  25.920  0.00  0.00    -0.043 NA
ATOM      7  N   UNL     1      -6.864   4.114  25.179  0.00  0.00    -0.108 NA
ATOM      8  N   UNL     1      -6.909   5.439  25.551  0.00  0.00    -0.023 NA
ATOM     17  C   UNL     1      -5.612   3.747  25.327  0.00  0.00    +0.182 A 
BRANCH  17  19
ATOM     19  C   UNL     1      -5.054   2.445  25.065  0.00  0.00    +0.021 A 
ATOM     20  C   UNL     1      -4.342   2.213  23.886  0.00  0.00    +0.012 A 
ATOM     21  C   UNL     1      -5.222   1.413  25.990  0.00  0.00    +0.012 A 
ATOM     22  C   UNL     1      -3.802   0.953  23.634  0.00  0.00    +0.009 A 
ATOM     23  C   UNL     1      -4.681   0.153  25.736  0.00  0.00    +0.009 A 
ATOM     24  C   UNL     1      -3.971  -0.078  24.559  0.00  0.00    -0.018 A 
BRANCH  24  26
ATOM     26  C   UNL     1      -3.409  -1.385  24.296  0.00  0.00    -0.018 A 
ATOM     29  C   UNL     1      -2.051  -1.617  24.511  0.00  0.00    +0.008 A 
ATOM     30  C   UNL     1      -4.228  -2.415  23.831  0.00  0.00    +0.008 A 
ATOM     34  C   UNL     1      -1.510  -2.878  24.259  0.00  0.00    +0.001 A 
ATOM     35  C   UNL     1      -3.687  -3.675  23.580  0.00  0.00    +0.001 A 
ATOM     36  C   UNL     1      -2.328  -3.908  23.794  0.00  0.00    +0.000 A 
ENDBRANCH  24  26
ENDBRANCH  17  19
ENDBRANCH  13   5
BRANCH  14   3
ATOM      3  O   UNL     1      -0.040   2.083  25.080  0.00  0.00    -0.442 OA
BRANCH   3  18
ATOM      4  O   UNL     1      -0.082   0.415  23.516  0.00  0.00    -0.226 OA
ATOM      9  N   UNL     1       1.903   1.521  24.080  0.00  0.00    -0.251 N 
ATOM     18  C   UNL     1       0.550   1.250  24.152  0.00  0.00    +0.405 C 
ATOM     38  H   UNL     1       2.245   2.258  24.692  0.00  0.00    +0.158 HD
BRANCH   9  25
ATOM     25  C   UNL     1       2.872   0.901  23.261  0.00  0.00    +0.038 A 
ATOM     27  C   UNL     1       4.165   0.742  23.739  0.00  0.00    +0.042 A 
ATOM     28  C   UNL     1       2.514   0.466  21.995  0.00  0.00    +0.023 A 
ATOM     31  C   UNL     1       5.121   0.131  22.928  0.00  0.00    +0.054 A 
ATOM     32  C   UNL     1       3.471  -0.145  21.185  0.00  0.00    +0.003 A 
ATOM     33  C   UNL     1       4.775  -0.312  21.651  0.00  0.00    +0.019 A 
BRANCH  31  37
ATOM     10  N   UNL     1       7.544  -0.182  23.792  0.00  0.00    -0.191 NA
ATOM     37  C   UNL     1       6.457  -0.041  23.405  0.00  0.00    +0.099 C 
ENDBRANCH  31  37
ENDBRANCH   9  25
ENDBRANCH   3  18
ENDBRANCH  14   3
TORSDOF 7
ENDMDL
