MODEL 1
REMARK VINA RESULT:      10.1      0.000      0.000
REMARK  Name = 51136881
REMARK  10 active torsions:
REMARK  status: ('A' for Active; 'I' for Inactive)
REMARK    1  A    between atoms: O_3  and  C_35
REMARK    2  A    between atoms: O_3  and  C_36
REMARK    3  A    between atoms: N_4  and  C_13
REMARK    4  A    between atoms: N_8  and  C_28
REMARK    5  A    between atoms: C_9  and  C_14
REMARK    6  A    between atoms: C_13  and  C_15
REMARK    7  A    between atoms: C_15  and  C_16
REMARK    8  A    between atoms: C_16  and  C_17
REMARK    9  A    between atoms: C_18  and  C_21
REMARK   10  A    between atoms: C_29  and  C_30
REMARK                            x       y       z     vdW  Elec       q    Type
REMARK                         _______ _______ _______ _____ _____    ______ ____
ROOT
ATOM      1  O   UNL     1      -3.664   1.064  22.822  0.00  0.00    -0.336 OA
ATOM      5  N   UNL     1      -2.153   2.328  23.889  0.00  0.00    -0.190 NA
ATOM      6  N   UNL     1      -2.411   0.518  22.513  0.00  0.00    -0.056 NA
ATOM     14  C   UNL     1      -3.422   2.126  23.635  0.00  0.00    +0.245 A 
ATOM     18  C   UNL     1      -1.572   1.317  23.180  0.00  0.00    +0.204 A 
ENDROOT
BRANCH  18  21
ATOM      7  N   UNL     1       2.039   1.866  23.873  0.00  0.00    -0.239 NA
ATOM     21  C   UNL     1      -0.150   1.134  23.156  0.00  0.00    +0.041 A 
ATOM     24  C   UNL     1       0.426   0.097  22.430  0.00  0.00    +0.016 A 
ATOM     25  C   UNL     1       0.693   1.983  23.854  0.00  0.00    +0.124 A 
ATOM     27  C   UNL     1       1.808  -0.057  22.424  0.00  0.00    +0.044 A 
ATOM     28  C   UNL     1       2.563   0.846  23.156  0.00  0.00    +0.125 A 
BRANCH  28   8
ATOM      2  O   UNL     1       4.246  -1.505  23.948  0.00  0.00    -0.270 OA
ATOM      8  N   UNL     1       3.953   0.683  23.143  0.00  0.00    -0.266 N 
ATOM     29  C   UNL     1       4.689  -0.442  23.526  0.00  0.00    +0.249 C 
ATOM     37  H   UNL     1       4.440   1.491  22.766  0.00  0.00    +0.157 HD
BRANCH  29  30
ATOM     30  C   UNL     1       6.163  -0.319  23.370  0.00  0.00    +0.037 A 
ATOM     31  C   UNL     1       6.847   0.719  24.002  0.00  0.00    +0.016 A 
ATOM     32  C   UNL     1       6.861  -1.242  22.591  0.00  0.00    +0.016 A 
ATOM     33  C   UNL     1       8.229   0.835  23.854  0.00  0.00    +0.046 A 
ATOM     34  C   UNL     1       8.243  -1.126  22.443  0.00  0.00    +0.046 A 
ATOM     35  C   UNL     1       8.927  -0.087  23.075  0.00  0.00    +0.120 A 
BRANCH  35   3
ATOM      3  O   UNL     1      10.275   0.026  22.930  0.00  0.00    -0.495 OA
ATOM     36  C   UNL     1      10.747   0.882  21.890  0.00  0.00    +0.277 C 
ENDBRANCH  35   3
ENDBRANCH  29  30
ENDBRANCH  28   8
ENDBRANCH  18  21
BRANCH  14   9
ATOM      4  N   UNL     1      -5.162   2.383  25.395  0.00  0.00    -0.291 NA
ATOM      9  C   UNL     1      -4.632   2.898  24.116  0.00  0.00    +0.146 C 
ATOM     10  C   UNL     1      -4.321   4.380  24.391  0.00  0.00    +0.030 C 
ATOM     11  C   UNL     1      -5.779   3.523  26.075  0.00  0.00    +0.085 C 
ATOM     12  C   UNL     1      -4.766   4.621  25.826  0.00  0.00    +0.017 C 
BRANCH   4  13
ATOM     13  C   UNL     1      -6.094   1.275  25.226  0.00  0.00    +0.085 C 
BRANCH  13  15
ATOM     15  C   UNL     1      -5.333  -0.026  24.979  0.00  0.00    +0.020 C 
BRANCH  15  16
ATOM     16  C   UNL     1      -4.284  -0.265  26.068  0.00  0.00    +0.036 C 
BRANCH  16  17
ATOM     17  C   UNL     1      -3.114  -1.063  25.551  0.00  0.00    -0.047 A 
ATOM     19  C   UNL     1      -1.817  -0.735  25.943  0.00  0.00    +0.003 A 
ATOM     20  C   UNL     1      -3.330  -2.131  24.679  0.00  0.00    +0.003 A 
ATOM     22  C   UNL     1      -0.735  -1.474  25.466  0.00  0.00    +0.000 A 
ATOM     23  C   UNL     1      -2.248  -2.870  24.202  0.00  0.00    +0.000 A 
ATOM     26  C   UNL     1      -0.951  -2.542  24.594  0.00  0.00    +0.000 A 
ENDBRANCH  16  17
ENDBRANCH  15  16
ENDBRANCH  13  15
ENDBRANCH   4  13
ENDBRANCH  14   9
TORSDOF 9
ENDMDL
