MODEL 1
REMARK VINA RESULT:      -3.9      0.000      0.000
REMARK  Name = 51137368
REMARK  5 active torsions:
REMARK  status: ('A' for Active; 'I' for Inactive)
REMARK    1  A    between atoms: N_2  and  C_7
REMARK    2  A    between atoms: N_3  and  C_17
REMARK    3  A    between atoms: C_9  and  C_16
REMARK    4  A    between atoms: C_18  and  C_19
REMARK    5  A    between atoms: C_19  and  C_20
REMARK                            x       y       z     vdW  Elec       q    Type
REMARK                         _______ _______ _______ _____ _____    ______ ____
ROOT
ATOM      1  O   UNL     1      14.039 -10.066  29.270  0.00  0.00    -0.424 OA
ATOM      4  N   UNL     1      15.888 -10.389  30.486  0.00  0.00    -0.112 NA
ATOM      5  N   UNL     1      14.808 -10.371  31.349  0.00  0.00    -0.112 NA
ATOM     16  C   UNL     1      15.393 -10.208  29.285  0.00  0.00    +0.222 A 
ATOM     18  C   UNL     1      13.750 -10.180  30.595  0.00  0.00    +0.222 A 
ENDROOT
BRANCH  16   9
ATOM      2  N   UNL     1      16.918  -8.634  26.348  0.00  0.00    -0.299 NA
ATOM      8  C   UNL     1      16.954  -8.873  27.792  0.00  0.00    +0.097 C 
ATOM      9  C   UNL     1      16.101 -10.138  27.951  0.00  0.00    +0.092 C 
ATOM     10  C   UNL     1      15.526  -8.868  25.962  0.00  0.00    +0.085 C 
ATOM     11  C   UNL     1      15.169 -10.136  26.725  0.00  0.00    +0.029 C 
BRANCH   2   7
ATOM      3  N   UNL     1      16.766  -4.568  25.122  0.00  0.00    -0.305 NA
ATOM      7  C   UNL     1      17.377  -7.294  25.992  0.00  0.00    +0.059 C 
ATOM     12  C   UNL     1      16.761  -6.256  26.933  0.00  0.00    +0.034 C 
ATOM     13  C   UNL     1      17.023  -6.960  24.541  0.00  0.00    +0.034 C 
ATOM     14  C   UNL     1      17.152  -4.836  26.515  0.00  0.00    +0.085 C 
ATOM     15  C   UNL     1      17.405  -5.517  24.201  0.00  0.00    +0.085 C 
ATOM     17  C   UNL     1      17.101  -3.193  24.754  0.00  0.00    +0.104 C 
ENDBRANCH   2   7
ENDBRANCH  16   9
BRANCH  18  19
ATOM     19  C   UNL     1      12.337 -10.077  30.977  0.00  0.00    +0.135 C 
BRANCH  19  20
ATOM      6  N   UNL     1      10.828  -7.180  32.715  0.00  0.00    -0.360 N 
ATOM     20  C   UNL     1      11.935  -8.734  31.579  0.00  0.00    -0.013 A 
ATOM     21  C   UNL     1      12.614  -7.494  31.416  0.00  0.00    +0.003 A 
ATOM     22  C   UNL     1      10.841  -8.508  32.383  0.00  0.00    +0.087 A 
ATOM     23  C   UNL     1      11.899  -6.537  32.138  0.00  0.00    +0.047 A 
ATOM     24  C   UNL     1      13.773  -7.094  30.720  0.00  0.00    +0.010 A 
ATOM     25  C   UNL     1      12.285  -5.193  32.199  0.00  0.00    +0.026 A 
ATOM     26  C   UNL     1      14.172  -5.754  30.772  0.00  0.00    +0.001 A 
ATOM     27  C   UNL     1      13.438  -4.819  31.501  0.00  0.00    +0.002 A 
ATOM     28  H   UNL     1      10.132  -6.736  33.297  0.00  0.00    +0.165 HD
ENDBRANCH  19  20
ENDBRANCH  18  19
TORSDOF 4
ENDMDL
MODEL 2
REMARK VINA RESULT:      -3.0      2.012      2.893
REMARK  Name = 51137368
REMARK  5 active torsions:
REMARK  status: ('A' for Active; 'I' for Inactive)
REMARK    1  A    between atoms: N_2  and  C_7
REMARK    2  A    between atoms: N_3  and  C_17
REMARK    3  A    between atoms: C_9  and  C_16
REMARK    4  A    between atoms: C_18  and  C_19
REMARK    5  A    between atoms: C_19  and  C_20
REMARK                            x       y       z     vdW  Elec       q    Type
REMARK                         _______ _______ _______ _____ _____    ______ ____
ROOT
ATOM      1  O   UNL     1      15.263  -8.582  29.443  0.00  0.00    -0.424 OA
ATOM      4  N   UNL     1      14.491  -6.524  29.031  0.00  0.00    -0.112 NA
ATOM      5  N   UNL     1      13.777  -7.043  30.095  0.00  0.00    -0.112 NA
ATOM     16  C   UNL     1      15.347  -7.456  28.683  0.00  0.00    +0.222 A 
ATOM     18  C   UNL     1      14.262  -8.246  30.300  0.00  0.00    +0.222 A 
ENDROOT
BRANCH  16   9
ATOM      2  N   UNL     1      17.215  -6.162  25.808  0.00  0.00    -0.299 NA
ATOM      8  C   UNL     1      16.867  -6.037  27.225  0.00  0.00    +0.097 C 
ATOM      9  C   UNL     1      16.385  -7.449  27.584  0.00  0.00    +0.092 C 
ATOM     10  C   UNL     1      16.129  -6.948  25.221  0.00  0.00    +0.085 C 
ATOM     11  C   UNL     1      15.915  -8.052  26.248  0.00  0.00    +0.029 C 
BRANCH   2   7
ATOM      3  N   UNL     1      16.316  -2.765  23.419  0.00  0.00    -0.305 NA
ATOM      7  C   UNL     1      17.379  -4.864  25.158  0.00  0.00    +0.059 C 
ATOM     12  C   UNL     1      16.283  -3.899  25.618  0.00  0.00    +0.034 C 
ATOM     13  C   UNL     1      17.343  -5.006  23.634  0.00  0.00    +0.034 C 
ATOM     14  C   UNL     1      16.379  -2.565  24.874  0.00  0.00    +0.085 C 
ATOM     15  C   UNL     1      17.404  -3.636  22.954  0.00  0.00    +0.085 C 
ATOM     17  C   UNL     1      16.358  -1.479  22.723  0.00  0.00    +0.104 C 
ENDBRANCH   2   7
ENDBRANCH  16   9
BRANCH  18  19
ATOM     19  C   UNL     1      13.881  -9.248  31.302  0.00  0.00    +0.135 C 
BRANCH  19  20
ATOM      6  N   UNL     1      10.332 -10.239  31.626  0.00  0.00    -0.360 N 
ATOM     20  C   UNL     1      12.379  -9.386  31.529  0.00  0.00    -0.013 A 
ATOM     21  C   UNL     1      11.498  -8.376  32.007  0.00  0.00    +0.003 A 
ATOM     22  C   UNL     1      11.633 -10.519  31.304  0.00  0.00    +0.087 A 
ATOM     23  C   UNL     1      10.220  -8.937  32.058  0.00  0.00    +0.047 A 
ATOM     24  C   UNL     1      11.666  -7.034  32.402  0.00  0.00    +0.010 A 
ATOM     25  C   UNL     1       9.097  -8.220  32.486  0.00  0.00    +0.026 A 
ATOM     26  C   UNL     1      10.552  -6.304  32.833  0.00  0.00    +0.001 A 
ATOM     27  C   UNL     1       9.287  -6.891  32.873  0.00  0.00    +0.002 A 
ATOM     28  H   UNL     1       9.564 -10.893  31.555  0.00  0.00    +0.165 HD
ENDBRANCH  19  20
ENDBRANCH  18  19
TORSDOF 4
ENDMDL
MODEL 3
REMARK VINA RESULT:      -1.9     23.461     24.396
REMARK  Name = 51137368
REMARK  5 active torsions:
REMARK  status: ('A' for Active; 'I' for Inactive)
REMARK    1  A    between atoms: N_2  and  C_7
REMARK    2  A    between atoms: N_3  and  C_17
REMARK    3  A    between atoms: C_9  and  C_16
REMARK    4  A    between atoms: C_18  and  C_19
REMARK    5  A    between atoms: C_19  and  C_20
REMARK                            x       y       z     vdW  Elec       q    Type
REMARK                         _______ _______ _______ _____ _____    ______ ____
ROOT
ATOM      1  O   UNL     1      -5.292 -10.767  13.584  0.00  0.00    -0.424 OA
ATOM      4  N   UNL     1      -3.751 -10.192  15.100  0.00  0.00    -0.112 NA
ATOM      5  N   UNL     1      -4.990 -10.154  15.714  0.00  0.00    -0.112 NA
ATOM     16  C   UNL     1      -3.976 -10.555  13.859  0.00  0.00    +0.222 A 
ATOM     18  C   UNL     1      -5.859 -10.496  14.791  0.00  0.00    +0.222 A 
ENDROOT
BRANCH  16   9
ATOM      2  N   UNL     1      -1.343  -9.684  11.463  0.00  0.00    -0.299 NA
ATOM      8  C   UNL     1      -1.734  -9.906  12.857  0.00  0.00    +0.097 C 
ATOM      9  C   UNL     1      -2.999 -10.764  12.724  0.00  0.00    +0.092 C 
ATOM     10  C   UNL     1      -2.593  -9.390  10.763  0.00  0.00    +0.085 C 
ATOM     11  C   UNL     1      -3.552 -10.430  11.327  0.00  0.00    +0.029 C 
BRANCH   2   7
ATOM      3  N   UNL     1       2.155  -7.374  12.160  0.00  0.00    -0.305 NA
ATOM      7  C   UNL     1      -0.361  -8.612  11.324  0.00  0.00    +0.059 C 
ATOM     12  C   UNL     1       1.003  -9.190  10.935  0.00  0.00    +0.034 C 
ATOM     13  C   UNL     1      -0.237  -7.809  12.622  0.00  0.00    +0.034 C 
ATOM     14  C   UNL     1       2.068  -8.092  10.880  0.00  0.00    +0.085 C 
ATOM     15  C   UNL     1       0.869  -6.757  12.513  0.00  0.00    +0.085 C 
ATOM     17  C   UNL     1       3.211  -6.364  12.109  0.00  0.00    +0.104 C 
ENDBRANCH   2   7
ENDBRANCH  16   9
BRANCH  18  19
ATOM     19  C   UNL     1      -7.318 -10.625  14.884  0.00  0.00    +0.135 C 
BRANCH  19  20
ATOM      6  N   UNL     1      -8.420  -9.536  18.243  0.00  0.00    -0.360 N 
ATOM     20  C   UNL     1      -7.937  -9.988  16.124  0.00  0.00    -0.013 A 
ATOM     21  C   UNL     1      -8.892  -8.933  16.148  0.00  0.00    +0.003 A 
ATOM     22  C   UNL     1      -7.667 -10.337  17.427  0.00  0.00    +0.087 A 
ATOM     23  C   UNL     1      -9.178  -8.670  17.489  0.00  0.00    +0.047 A 
ATOM     24  C   UNL     1      -9.542  -8.175  15.153  0.00  0.00    +0.010 A 
ATOM     25  C   UNL     1     -10.086  -7.682  17.887  0.00  0.00    +0.026 A 
ATOM     26  C   UNL     1     -10.453  -7.185  15.537  0.00  0.00    +0.001 A 
ATOM     27  C   UNL     1     -10.719  -6.943  16.884  0.00  0.00    +0.002 A 
ATOM     28  H   UNL     1      -8.420  -9.576  19.253  0.00  0.00    +0.165 HD
ENDBRANCH  19  20
ENDBRANCH  18  19
TORSDOF 4
ENDMDL
MODEL 4
REMARK VINA RESULT:      -1.2     24.776     25.894
REMARK  Name = 51137368
REMARK  5 active torsions:
REMARK  status: ('A' for Active; 'I' for Inactive)
REMARK    1  A    between atoms: N_2  and  C_7
REMARK    2  A    between atoms: N_3  and  C_17
REMARK    3  A    between atoms: C_9  and  C_16
REMARK    4  A    between atoms: C_18  and  C_19
REMARK    5  A    between atoms: C_19  and  C_20
REMARK                            x       y       z     vdW  Elec       q    Type
REMARK                         _______ _______ _______ _____ _____    ______ ____
ROOT
ATOM      1  O   UNL     1      -5.608 -10.195  12.781  0.00  0.00    -0.424 OA
ATOM      4  N   UNL     1      -4.560 -10.449  14.741  0.00  0.00    -0.112 NA
ATOM      5  N   UNL     1      -5.878 -10.123  15.000  0.00  0.00    -0.112 NA
ATOM     16  C   UNL     1      -4.447 -10.480  13.434  0.00  0.00    +0.222 A 
ATOM     18  C   UNL     1      -6.452  -9.985  13.827  0.00  0.00    +0.222 A 
ENDROOT
BRANCH  16   9
ATOM      2  N   UNL     1      -1.404  -9.775  11.517  0.00  0.00    -0.299 NA
ATOM      8  C   UNL     1      -2.077  -9.807  12.817  0.00  0.00    +0.097 C 
ATOM      9  C   UNL     1      -3.239 -10.781  12.577  0.00  0.00    +0.092 C 
ATOM     10  C   UNL     1      -2.486  -9.704  10.534  0.00  0.00    +0.085 C 
ATOM     11  C   UNL     1      -3.491 -10.720  11.060  0.00  0.00    +0.029 C 
BRANCH   2   7
ATOM      3  N   UNL     1       2.075  -7.414  12.130  0.00  0.00    -0.305 NA
ATOM      7  C   UNL     1      -0.470  -8.658  11.400  0.00  0.00    +0.059 C 
ATOM     12  C   UNL     1       0.867  -9.143  10.835  0.00  0.00    +0.034 C 
ATOM     13  C   UNL     1      -0.250  -7.983  12.756  0.00  0.00    +0.034 C 
ATOM     14  C   UNL     1       1.891  -8.006  10.796  0.00  0.00    +0.085 C 
ATOM     15  C   UNL     1       0.810  -6.884  12.656  0.00  0.00    +0.085 C 
ATOM     17  C   UNL     1       3.093  -6.364  12.087  0.00  0.00    +0.104 C 
ENDBRANCH   2   7
ENDBRANCH  16   9
BRANCH  18  19
ATOM     19  C   UNL     1      -7.842  -9.645  13.501  0.00  0.00    +0.135 C 
BRANCH  19  20
ATOM      6  N   UNL     1      -9.337 -10.781  10.313  0.00  0.00    -0.360 N 
ATOM     20  C   UNL     1      -8.252  -9.951  12.064  0.00  0.00    -0.013 A 
ATOM     21  C   UNL     1      -7.633  -9.457  10.881  0.00  0.00    +0.003 A 
ATOM     22  C   UNL     1      -9.296 -10.762  11.682  0.00  0.00    +0.087 A 
ATOM     23  C   UNL     1      -8.333  -9.993   9.798  0.00  0.00    +0.047 A 
ATOM     24  C   UNL     1      -6.542  -8.602  10.629  0.00  0.00    +0.010 A 
ATOM     25  C   UNL     1      -7.993  -9.716   8.469  0.00  0.00    +0.026 A 
ATOM     26  C   UNL     1      -6.190  -8.317   9.305  0.00  0.00    +0.001 A 
ATOM     27  C   UNL     1      -6.907  -8.866   8.242  0.00  0.00    +0.002 A 
ATOM     28  H   UNL     1     -10.006 -11.299   9.761  0.00  0.00    +0.165 HD
ENDBRANCH  19  20
ENDBRANCH  18  19
TORSDOF 4
ENDMDL
MODEL 5
REMARK VINA RESULT:      -0.6     23.755     24.696
REMARK  Name = 51137368
REMARK  5 active torsions:
REMARK  status: ('A' for Active; 'I' for Inactive)
REMARK    1  A    between atoms: N_2  and  C_7
REMARK    2  A    between atoms: N_3  and  C_17
REMARK    3  A    between atoms: C_9  and  C_16
REMARK    4  A    between atoms: C_18  and  C_19
REMARK    5  A    between atoms: C_19  and  C_20
REMARK                            x       y       z     vdW  Elec       q    Type
REMARK                         _______ _______ _______ _____ _____    ______ ____
ROOT
ATOM      1  O   UNL     1      -5.332 -10.781  15.038  0.00  0.00    -0.424 OA
ATOM      4  N   UNL     1      -3.454 -10.138  16.068  0.00  0.00    -0.112 NA
ATOM      5  N   UNL     1      -4.479 -10.117  16.996  0.00  0.00    -0.112 NA
ATOM     16  C   UNL     1      -3.998 -10.531  14.940  0.00  0.00    +0.222 A 
ATOM     18  C   UNL     1      -5.556 -10.500  16.350  0.00  0.00    +0.222 A 
ENDROOT
BRANCH  16   9
ATOM      2  N   UNL     1      -1.963  -9.721  12.002  0.00  0.00    -0.299 NA
ATOM      8  C   UNL     1      -2.018 -10.013  13.436  0.00  0.00    +0.097 C 
ATOM      9  C   UNL     1      -3.362 -10.740  13.585  0.00  0.00    +0.092 C 
ATOM     10  C   UNL     1      -3.309  -9.260  11.659  0.00  0.00    +0.085 C 
ATOM     11  C   UNL     1      -4.204 -10.249  12.394  0.00  0.00    +0.029 C 
BRANCH   2   7
ATOM      3  N   UNL     1       1.802  -7.751  11.977  0.00  0.00    -0.305 NA
ATOM      7  C   UNL     1      -0.937  -8.735  11.673  0.00  0.00    +0.059 C 
ATOM     12  C   UNL     1       0.256  -9.417  10.997  0.00  0.00    +0.034 C 
ATOM     13  C   UNL     1      -0.470  -7.990  12.927  0.00  0.00    +0.034 C 
ATOM     14  C   UNL     1       1.384  -8.416  10.734  0.00  0.00    +0.085 C 
ATOM     15  C   UNL     1       0.682  -7.036  12.602  0.00  0.00    +0.085 C 
ATOM     17  C   UNL     1       2.914  -6.837  11.718  0.00  0.00    +0.104 C 
ENDBRANCH   2   7
ENDBRANCH  16   9
BRANCH  18  19
ATOM     19  C   UNL     1      -6.930 -10.662  16.839  0.00  0.00    +0.135 C 
BRANCH  19  20
ATOM      6  N   UNL     1      -9.482  -8.216  15.748  0.00  0.00    -0.360 N 
ATOM     20  C   UNL     1      -7.965  -9.791  16.135  0.00  0.00    -0.013 A 
ATOM     21  C   UNL     1      -8.399  -9.913  14.785  0.00  0.00    +0.003 A 
ATOM     22  C   UNL     1      -8.649  -8.740  16.700  0.00  0.00    +0.087 A 
ATOM     23  C   UNL     1      -9.350  -8.914  14.569  0.00  0.00    +0.047 A 
ATOM     24  C   UNL     1      -8.071 -10.780  13.724  0.00  0.00    +0.010 A 
ATOM     25  C   UNL     1      -9.994  -8.739  13.339  0.00  0.00    +0.026 A 
ATOM     26  C   UNL     1      -8.707 -10.617  12.488  0.00  0.00    +0.001 A 
ATOM     27  C   UNL     1      -9.654  -9.611  12.300  0.00  0.00    +0.002 A 
ATOM     28  H   UNL     1     -10.104  -7.433  15.890  0.00  0.00    +0.165 HD
ENDBRANCH  19  20
ENDBRANCH  18  19
TORSDOF 4
ENDMDL
MODEL 6
REMARK VINA RESULT:      -0.2     17.496     19.601
REMARK  Name = 51137368
REMARK  5 active torsions:
REMARK  status: ('A' for Active; 'I' for Inactive)
REMARK    1  A    between atoms: N_2  and  C_7
REMARK    2  A    between atoms: N_3  and  C_17
REMARK    3  A    between atoms: C_9  and  C_16
REMARK    4  A    between atoms: C_18  and  C_19
REMARK    5  A    between atoms: C_19  and  C_20
REMARK                            x       y       z     vdW  Elec       q    Type
REMARK                         _______ _______ _______ _____ _____    ______ ____
ROOT
ATOM      1  O   UNL     1      -3.861   1.511  24.506  0.00  0.00    -0.424 OA
ATOM      4  N   UNL     1      -4.846   3.454  25.017  0.00  0.00    -0.112 NA
ATOM      5  N   UNL     1      -5.797   2.455  25.113  0.00  0.00    -0.112 NA
ATOM     16  C   UNL     1      -3.732   2.858  24.660  0.00  0.00    +0.222 A 
ATOM     18  C   UNL     1      -5.177   1.338  24.806  0.00  0.00    +0.222 A 
ENDROOT
BRANCH  16   9
ATOM      2  N   UNL     1      -0.086   2.895  24.292  0.00  0.00    -0.299 NA
ATOM      8  C   UNL     1      -1.384   2.438  23.790  0.00  0.00    +0.097 C 
ATOM      9  C   UNL     1      -2.363   3.446  24.406  0.00  0.00    +0.092 C 
ATOM     10  C   UNL     1      -0.320   3.219  25.700  0.00  0.00    +0.085 C 
ATOM     11  C   UNL     1      -1.643   3.972  25.661  0.00  0.00    +0.029 C 
BRANCH   2   7
ATOM      3  N   UNL     1       2.604   0.248  22.340  0.00  0.00    -0.305 NA
ATOM      7  C   UNL     1       0.963   1.895  24.117  0.00  0.00    +0.059 C 
ATOM     12  C   UNL     1       2.120   2.477  23.301  0.00  0.00    +0.034 C 
ATOM     13  C   UNL     1       0.417   0.641  23.428  0.00  0.00    +0.034 C 
ATOM     14  C   UNL     1       3.185   1.413  23.022  0.00  0.00    +0.085 C 
ATOM     15  C   UNL     1       1.537  -0.362  23.145  0.00  0.00    +0.085 C 
ATOM     17  C   UNL     1       3.643  -0.737  22.036  0.00  0.00    +0.104 C 
ENDBRANCH   2   7
ENDBRANCH  16   9
BRANCH  18  19
ATOM     19  C   UNL     1      -5.697  -0.033  24.746  0.00  0.00    +0.135 C 
BRANCH  19  20
ATOM      6  N   UNL     1      -3.649  -2.905  23.633  0.00  0.00    -0.360 N 
ATOM     20  C   UNL     1      -4.647  -1.100  24.454  0.00  0.00    -0.013 A 
ATOM     21  C   UNL     1      -3.325  -1.155  24.977  0.00  0.00    +0.003 A 
ATOM     22  C   UNL     1      -4.817  -2.190  23.631  0.00  0.00    +0.087 A 
ATOM     23  C   UNL     1      -2.721  -2.296  24.446  0.00  0.00    +0.047 A 
ATOM     24  C   UNL     1      -2.582  -0.339  25.853  0.00  0.00    +0.010 A 
ATOM     25  C   UNL     1      -1.406  -2.665  24.750  0.00  0.00    +0.026 A 
ATOM     26  C   UNL     1      -1.265  -0.695  26.166  0.00  0.00    +0.001 A 
ATOM     27  C   UNL     1      -0.687  -1.841  25.622  0.00  0.00    +0.002 A 
ATOM     28  H   UNL     1      -3.492  -3.758  23.113  0.00  0.00    +0.165 HD
ENDBRANCH  19  20
ENDBRANCH  18  19
TORSDOF 4
ENDMDL
