MODEL 1
REMARK VINA RESULT:       4.0      0.000      0.000
REMARK  Name = 11912972
REMARK  4 active torsions:
REMARK  status: ('A' for Active; 'I' for Inactive)
REMARK    1  A    between atoms: N_7  and  C_13
REMARK    2  A    between atoms: N_8  and  C_14
REMARK    3  A    between atoms: C_17  and  C_19
REMARK    4  A    between atoms: C_22  and  C_28
REMARK                            x       y       z     vdW  Elec       q    Type
REMARK                         _______ _______ _______ _____ _____    ______ ____
ROOT
ATOM      1  O   UNL     1      -2.525  -1.303  26.114  0.00  0.00    -0.370 OA
ATOM      2  O   UNL     1      -3.996  -1.328  23.385  0.00  0.00    -0.370 OA
ATOM     11  C   UNL     1      -2.698  -0.857  23.787  0.00  0.00    +0.171 C 
ATOM     12  C   UNL     1      -2.847  -0.262  25.174  0.00  0.00    +0.171 C 
ATOM     13  C   UNL     1      -1.753  -2.024  23.983  0.00  0.00    +0.130 C 
ATOM     14  C   UNL     1      -4.312   0.089  25.267  0.00  0.00    +0.130 C 
ATOM     15  C   UNL     1      -2.097  -2.470  25.395  0.00  0.00    +0.185 C 
ATOM     16  C   UNL     1      -4.962  -0.957  24.380  0.00  0.00    +0.185 C 
ENDROOT
BRANCH  14   8
ATOM      8  N   UNL     1      -4.539   1.413  24.730  0.00  0.00    -0.306 N 
ATOM      9  N   UNL     1      -2.512   2.227  25.586  0.00  0.00    -0.211 NA
ATOM     10  N   UNL     1      -3.989   3.659  24.329  0.00  0.00    -0.223 NA
ATOM     18  C   UNL     1      -3.653   2.465  24.887  0.00  0.00    +0.216 A 
ATOM     22  C   UNL     1      -1.671   3.275  25.718  0.00  0.00    +0.111 A 
ATOM     23  C   UNL     1      -3.103   4.661  24.500  0.00  0.00    +0.116 A 
ATOM     26  C   UNL     1      -1.916   4.527  25.192  0.00  0.00    +0.051 A 
ATOM     34  H   UNL     1      -5.362   1.587  24.163  0.00  0.00    +0.149 HD
BRANCH  22  28
ATOM      6  O   UNL     1      -0.667   2.567  27.736  0.00  0.00    -0.461 OA
ATOM     28  C   UNL     1      -0.472   2.994  26.462  0.00  0.00    +0.153 A 
ATOM     30  C   UNL     1       0.868   3.062  26.171  0.00  0.00    +0.051 A 
ATOM     31  C   UNL     1       1.544   2.650  27.344  0.00  0.00    +0.042 A 
ATOM     32  C   UNL     1       0.566   2.360  28.266  0.00  0.00    +0.196 A 
ENDBRANCH  22  28
ENDBRANCH  14   8
BRANCH  13   7
ATOM      3  O   UNL     1      -0.743   0.334  22.668  0.00  0.00    -0.270 OA
ATOM      7  N   UNL     1      -0.364  -1.573  23.932  0.00  0.00    -0.304 N 
ATOM     17  C   UNL     1       0.021  -0.417  23.268  0.00  0.00    +0.245 C 
ATOM     33  H   UNL     1       0.335  -2.205  24.309  0.00  0.00    +0.149 HD
BRANCH  17  19
ATOM      4  O   UNL     1       4.727  -1.621  23.939  0.00  0.00    -0.453 OA
ATOM      5  O   UNL     1       5.487   0.595  23.378  0.00  0.00    -0.453 OA
ATOM     19  C   UNL     1       1.475  -0.112  23.286  0.00  0.00    +0.040 A 
ATOM     20  C   UNL     1       2.360  -1.117  23.629  0.00  0.00    +0.062 A 
ATOM     21  C   UNL     1       1.888   1.176  22.958  0.00  0.00    +0.017 A 
ATOM     24  C   UNL     1       3.699  -0.785  23.632  0.00  0.00    +0.167 A 
ATOM     25  C   UNL     1       3.250   1.486  22.969  0.00  0.00    +0.050 A 
ATOM     27  C   UNL     1       4.133   0.481  23.311  0.00  0.00    +0.166 A 
ATOM     29  C   UNL     1       5.857  -0.740  23.776  0.00  0.00    +0.466 C 
ENDBRANCH  17  19
ENDBRANCH  13   7
TORSDOF 4
ENDMDL
