MODEL 1
REMARK VINA RESULT:      22.1      0.000      0.000
REMARK  Name = 40777680
REMARK  10 active torsions:
REMARK  status: ('A' for Active; 'I' for Inactive)
REMARK    1  A    between atoms: N_5  and  C_11
REMARK    2  A    between atoms: N_6  and  C_20
REMARK    3  A    between atoms: N_8  and  C_29
REMARK    4  A    between atoms: N_8  and  C_33
REMARK    5  A    between atoms: N_8  and  C_34
REMARK    6  A    between atoms: C_9  and  C_12
REMARK    7  A    between atoms: C_15  and  C_17
REMARK    8  A    between atoms: C_16  and  C_18
REMARK    9  A    between atoms: C_19  and  C_21
REMARK   10  A    between atoms: C_28  and  C_32
REMARK                            x       y       z     vdW  Elec       q    Type
REMARK                         _______ _______ _______ _____ _____    ______ ____
ROOT
ATOM      9  C   UNL     1       4.882   0.754  23.119  0.00  0.00    +0.047 C 
ATOM     10  C   UNL     1       5.560   1.376  24.358  0.00  0.00    +0.039 C 
ATOM     11  C   UNL     1       7.069   1.237  24.124  0.00  0.00    +0.097 C 
ATOM     13  C   UNL     1       5.959  -0.142  22.578  0.00  0.00    -0.021 C 
ATOM     14  C   UNL     1       7.149   0.128  23.126  0.00  0.00    -0.009 C 
ENDROOT
BRANCH   9  12
ATOM      6  N   UNL     1       1.484  -0.420  23.824  0.00  0.00    -0.236 N 
ATOM      7  N   UNL     1       2.102  -1.604  23.971  0.00  0.00    -0.171 NA
ATOM     12  C   UNL     1       3.581   0.054  23.439  0.00  0.00    +0.003 A 
ATOM     15  C   UNL     1       2.326   0.605  23.505  0.00  0.00    +0.046 A 
ATOM     16  C   UNL     1       3.383  -1.309  23.735  0.00  0.00    +0.064 A 
ATOM     17  C   UNL     1       1.868   1.993  23.294  0.00  0.00    +0.066 C 
ATOM     18  C   UNL     1       4.397  -2.376  23.802  0.00  0.00    +0.068 C 
BRANCH   6  20
ATOM     20  C   UNL     1       0.102  -0.334  24.000  0.00  0.00    +0.066 A 
ATOM     22  C   UNL     1      -0.611  -1.437  24.472  0.00  0.00    +0.028 A 
ATOM     23  C   UNL     1      -0.566   0.852  23.699  0.00  0.00    +0.028 A 
ATOM     24  C   UNL     1      -1.992  -1.352  24.644  0.00  0.00    +0.014 A 
ATOM     25  C   UNL     1      -1.948   0.937  23.869  0.00  0.00    +0.014 A 
ATOM     28  C   UNL     1      -2.661  -0.165  24.342  0.00  0.00    +0.055 A 
BRANCH  28  32
ATOM      1  F   UNL     1      -4.831  -1.059  23.880  0.00  0.00    -0.166 F 
ATOM      2  F   UNL     1      -4.655   1.100  24.060  0.00  0.00    -0.166 F 
ATOM      3  F   UNL     1      -4.533  -0.158  25.830  0.00  0.00    -0.166 F 
ATOM     32  C   UNL     1      -4.138  -0.075  24.525  0.00  0.00    +0.417 C 
ENDBRANCH  28  32
ENDBRANCH   6  20
ENDBRANCH   9  12
BRANCH  11   5
ATOM      4  O   UNL     1       9.846   1.966  24.177  0.00  0.00    -0.270 OA
ATOM      5  N   UNL     1       7.657   2.422  23.561  0.00  0.00    -0.305 N 
ATOM     19  C   UNL     1       9.018   2.694  23.634  0.00  0.00    +0.245 C 
ATOM     35  H   UNL     1       7.023   3.119  23.180  0.00  0.00    +0.150 HD
BRANCH  19  21
ATOM     21  C   UNL     1       9.464   3.973  23.027  0.00  0.00    +0.037 A 
ATOM     26  C   UNL     1      10.642   4.018  22.279  0.00  0.00    +0.015 A 
ATOM     27  C   UNL     1       8.705   5.130  23.202  0.00  0.00    +0.015 A 
ATOM     29  C   UNL     1      10.302   6.377  21.885  0.00  0.00    +0.029 A 
ATOM     30  C   UNL     1      11.061   5.220  21.710  0.00  0.00    +0.024 A 
ATOM     31  C   UNL     1       9.125   6.333  22.631  0.00  0.00    +0.024 A 
BRANCH  29   8
ATOM      8  N   UNL     1      10.725   7.593  21.308  0.00  0.00    -0.336 N 
ATOM     33  C   UNL     1      11.428   7.598  20.041  0.00  0.00    +0.129 C 
ATOM     34  C   UNL     1      10.469   8.852  21.978  0.00  0.00    +0.129 C 
ENDBRANCH  29   8
ENDBRANCH  19  21
ENDBRANCH  11   5
TORSDOF 6
ENDMDL
MODEL 2
REMARK VINA RESULT:      22.1      0.045      1.319
REMARK  Name = 40777680
REMARK  10 active torsions:
REMARK  status: ('A' for Active; 'I' for Inactive)
REMARK    1  A    between atoms: N_5  and  C_11
REMARK    2  A    between atoms: N_6  and  C_20
REMARK    3  A    between atoms: N_8  and  C_29
REMARK    4  A    between atoms: N_8  and  C_33
REMARK    5  A    between atoms: N_8  and  C_34
REMARK    6  A    between atoms: C_9  and  C_12
REMARK    7  A    between atoms: C_15  and  C_17
REMARK    8  A    between atoms: C_16  and  C_18
REMARK    9  A    between atoms: C_19  and  C_21
REMARK   10  A    between atoms: C_28  and  C_32
REMARK                            x       y       z     vdW  Elec       q    Type
REMARK                         _______ _______ _______ _____ _____    ______ ____
ROOT
ATOM      9  C   UNL     1       4.891   0.758  23.117  0.00  0.00    +0.047 C 
ATOM     10  C   UNL     1       5.562   1.385  24.357  0.00  0.00    +0.039 C 
ATOM     11  C   UNL     1       7.073   1.245  24.132  0.00  0.00    +0.097 C 
ATOM     13  C   UNL     1       5.971  -0.139  22.585  0.00  0.00    -0.021 C 
ATOM     14  C   UNL     1       7.158   0.133  23.138  0.00  0.00    -0.009 C 
ENDROOT
BRANCH   9  12
ATOM      6  N   UNL     1       1.490  -0.412  23.813  0.00  0.00    -0.236 N 
ATOM      7  N   UNL     1       2.105  -1.599  23.955  0.00  0.00    -0.171 NA
ATOM     12  C   UNL     1       3.588   0.059  23.433  0.00  0.00    +0.003 A 
ATOM     15  C   UNL     1       2.334   0.612  23.500  0.00  0.00    +0.046 A 
ATOM     16  C   UNL     1       3.388  -1.304  23.722  0.00  0.00    +0.064 A 
ATOM     17  C   UNL     1       1.879   2.003  23.295  0.00  0.00    +0.066 C 
ATOM     18  C   UNL     1       4.400  -2.374  23.785  0.00  0.00    +0.068 C 
BRANCH   6  20
ATOM     20  C   UNL     1       0.108  -0.325  23.988  0.00  0.00    +0.066 A 
ATOM     22  C   UNL     1      -0.573   0.828  23.596  0.00  0.00    +0.028 A 
ATOM     23  C   UNL     1      -0.591  -1.388  24.557  0.00  0.00    +0.028 A 
ATOM     24  C   UNL     1      -1.953   0.917  23.773  0.00  0.00    +0.014 A 
ATOM     25  C   UNL     1      -1.972  -1.299  24.735  0.00  0.00    +0.014 A 
ATOM     28  C   UNL     1      -2.653  -0.147  24.343  0.00  0.00    +0.055 A 
BRANCH  28  32
ATOM      1  F   UNL     1      -4.833  -0.995  23.841  0.00  0.00    -0.166 F 
ATOM      2  F   UNL     1      -4.634   1.151  24.128  0.00  0.00    -0.166 F 
ATOM      3  F   UNL     1      -4.523  -0.195  25.832  0.00  0.00    -0.166 F 
ATOM     32  C   UNL     1      -4.129  -0.051  24.533  0.00  0.00    +0.417 C 
ENDBRANCH  28  32
ENDBRANCH   6  20
ENDBRANCH   9  12
BRANCH  11   5
ATOM      4  O   UNL     1       9.857   1.948  24.151  0.00  0.00    -0.270 OA
ATOM      5  N   UNL     1       7.663   2.429  23.568  0.00  0.00    -0.305 N 
ATOM     19  C   UNL     1       9.028   2.687  23.624  0.00  0.00    +0.245 C 
ATOM     35  H   UNL     1       7.031   3.134  23.201  0.00  0.00    +0.150 HD
BRANCH  19  21
ATOM     21  C   UNL     1       9.477   3.966  23.018  0.00  0.00    +0.037 A 
ATOM     26  C   UNL     1       8.722   5.126  23.200  0.00  0.00    +0.015 A 
ATOM     27  C   UNL     1      10.651   4.009  22.268  0.00  0.00    +0.015 A 
ATOM     29  C   UNL     1      10.318   6.370  21.879  0.00  0.00    +0.029 A 
ATOM     30  C   UNL     1       9.143   6.328  22.631  0.00  0.00    +0.024 A 
ATOM     31  C   UNL     1      11.072   5.212  21.698  0.00  0.00    +0.024 A 
BRANCH  29   8
ATOM      8  N   UNL     1      10.744   7.586  21.304  0.00  0.00    -0.336 N 
ATOM     33  C   UNL     1      10.448   8.847  21.951  0.00  0.00    +0.129 C 
ATOM     34  C   UNL     1      11.477   7.588  20.054  0.00  0.00    +0.129 C 
ENDBRANCH  29   8
ENDBRANCH  19  21
ENDBRANCH  11   5
TORSDOF 6
ENDMDL
MODEL 3
REMARK VINA RESULT:      23.2      0.718      1.279
REMARK  Name = 40777680
REMARK  10 active torsions:
REMARK  status: ('A' for Active; 'I' for Inactive)
REMARK    1  A    between atoms: N_5  and  C_11
REMARK    2  A    between atoms: N_6  and  C_20
REMARK    3  A    between atoms: N_8  and  C_29
REMARK    4  A    between atoms: N_8  and  C_33
REMARK    5  A    between atoms: N_8  and  C_34
REMARK    6  A    between atoms: C_9  and  C_12
REMARK    7  A    between atoms: C_15  and  C_17
REMARK    8  A    between atoms: C_16  and  C_18
REMARK    9  A    between atoms: C_19  and  C_21
REMARK   10  A    between atoms: C_28  and  C_32
REMARK                            x       y       z     vdW  Elec       q    Type
REMARK                         _______ _______ _______ _____ _____    ______ ____
ROOT
ATOM      9  C   UNL     1       4.344   0.995  23.092  0.00  0.00    +0.047 C 
ATOM     10  C   UNL     1       5.105   1.481  24.343  0.00  0.00    +0.039 C 
ATOM     11  C   UNL     1       6.589   1.222  24.058  0.00  0.00    +0.097 C 
ATOM     13  C   UNL     1       5.323   0.041  22.470  0.00  0.00    -0.021 C 
ATOM     14  C   UNL     1       6.545   0.171  22.997  0.00  0.00    -0.009 C 
ENDROOT
BRANCH   9  12
ATOM      6  N   UNL     1       0.871   0.088  23.822  0.00  0.00    -0.236 N 
ATOM      7  N   UNL     1       1.385  -1.152  23.898  0.00  0.00    -0.171 NA
ATOM     12  C   UNL     1       2.993   0.396  23.410  0.00  0.00    +0.003 A 
ATOM     15  C   UNL     1       1.793   1.050  23.532  0.00  0.00    +0.046 A 
ATOM     16  C   UNL     1       2.682  -0.957  23.645  0.00  0.00    +0.064 A 
ATOM     17  C   UNL     1       1.455   2.482  23.397  0.00  0.00    +0.066 C 
ATOM     18  C   UNL     1       3.600  -2.111  23.638  0.00  0.00    +0.068 C 
BRANCH   6  20
ATOM     20  C   UNL     1      -0.494   0.285  24.035  0.00  0.00    +0.066 A 
ATOM     22  C   UNL     1      -1.194  -0.554  24.904  0.00  0.00    +0.028 A 
ATOM     23  C   UNL     1      -1.160   1.317  23.375  0.00  0.00    +0.028 A 
ATOM     24  C   UNL     1      -2.558  -0.359  25.113  0.00  0.00    +0.014 A 
ATOM     25  C   UNL     1      -2.526   1.511  23.583  0.00  0.00    +0.014 A 
ATOM     28  C   UNL     1      -3.225   0.674  24.452  0.00  0.00    +0.055 A 
BRANCH  28  32
ATOM      1  F   UNL     1      -5.150   2.069  24.189  0.00  0.00    -0.166 F 
ATOM      2  F   UNL     1      -5.020   0.872  25.999  0.00  0.00    -0.166 F 
ATOM      3  F   UNL     1      -5.468  -0.074  24.093  0.00  0.00    -0.166 F 
ATOM     32  C   UNL     1      -4.684   0.881  24.676  0.00  0.00    +0.417 C 
ENDBRANCH  28  32
ENDBRANCH   6  20
ENDBRANCH   9  12
BRANCH  11   5
ATOM      4  O   UNL     1       9.415   1.729  24.138  0.00  0.00    -0.270 OA
ATOM      5  N   UNL     1       7.268   2.381  23.546  0.00  0.00    -0.305 N 
ATOM     19  C   UNL     1       8.647   2.543  23.629  0.00  0.00    +0.245 C 
ATOM     35  H   UNL     1       6.692   3.141  23.197  0.00  0.00    +0.150 HD
BRANCH  19  21
ATOM     21  C   UNL     1       9.191   3.809  23.076  0.00  0.00    +0.037 A 
ATOM     26  C   UNL     1       8.496   5.005  23.260  0.00  0.00    +0.015 A 
ATOM     27  C   UNL     1      10.396   3.803  22.374  0.00  0.00    +0.015 A 
ATOM     29  C   UNL     1      10.213   6.189  22.038  0.00  0.00    +0.029 A 
ATOM     30  C   UNL     1       9.007   6.195  22.741  0.00  0.00    +0.024 A 
ATOM     31  C   UNL     1      10.907   4.993  21.854  0.00  0.00    +0.024 A 
BRANCH  29   8
ATOM      8  N   UNL     1      10.730   7.391  21.513  0.00  0.00    -0.336 N 
ATOM     33  C   UNL     1      11.703   7.365  20.440  0.00  0.00    +0.129 C 
ATOM     34  C   UNL     1      10.300   8.669  22.046  0.00  0.00    +0.129 C 
ENDBRANCH  29   8
ENDBRANCH  19  21
ENDBRANCH  11   5
TORSDOF 6
ENDMDL
