MODEL 1
REMARK VINA RESULT:      -3.6      0.000      0.000
REMARK  Name = 75536262
REMARK  9 active torsions:
REMARK  status: ('A' for Active; 'I' for Inactive)
REMARK    1  A    between atoms: O_3  and  C_9
REMARK    2  A    between atoms: O_5  and  C_21
REMARK    3  A    between atoms: N_6  and  C_13
REMARK    4  A    between atoms: N_6  and  C_16
REMARK    5  A    between atoms: C_8  and  C_13
REMARK    6  A    between atoms: C_10  and  C_14
REMARK    7  A    between atoms: C_14  and  C_15
REMARK    8  A    between atoms: C_16  and  C_18
REMARK    9  A    between atoms: C_19  and  C_20
REMARK                            x       y       z     vdW  Elec       q    Type
REMARK                         _______ _______ _______ _____ _____    ______ ____
ROOT
ATOM      2  O   UNL     1      15.057  -4.533  30.620  0.00  0.00    -0.369 OA
ATOM      8  C   UNL     1      16.363  -4.677  30.047  0.00  0.00    +0.161 C 
ATOM      9  C   UNL     1      17.331  -3.618  30.590  0.00  0.00    +0.145 C 
ATOM     10  C   UNL     1      15.013  -4.557  32.049  0.00  0.00    +0.125 C 
ATOM     11  C   UNL     1      17.307  -3.536  32.113  0.00  0.00    +0.036 C 
ATOM     12  C   UNL     1      15.875  -3.438  32.632  0.00  0.00    +0.034 C 
ENDROOT
BRANCH   9   3
ATOM      3  O   UNL     1      16.948  -2.339  30.077  0.00  0.00    -0.389 OA
ATOM     32  H   UNL     1      17.230  -1.669  30.723  0.00  0.00    +0.210 HD
ENDBRANCH   9   3
BRANCH   8  13
ATOM     13  C   UNL     1      16.882  -6.104  30.215  0.00  0.00    +0.115 C 
BRANCH  13   6
ATOM      6  N   UNL     1      17.050  -6.751  28.923  0.00  0.00    -0.309 NA
ATOM     31  H   UNL     1      17.738  -6.235  28.376  0.00  0.00    +0.122 HD
BRANCH   6  16
ATOM     16  C   UNL     1      15.787  -6.810  28.201  0.00  0.00    +0.120 C 
BRANCH  16  18
ATOM     18  C   UNL     1      15.615  -8.119  27.475  0.00  0.00    +0.008 A 
ATOM     21  C   UNL     1      15.531  -9.319  28.181  0.00  0.00    +0.121 A 
ATOM     22  C   UNL     1      15.540  -8.121  26.082  0.00  0.00    +0.008 A 
ATOM     23  C   UNL     1      15.372 -10.522  27.494  0.00  0.00    +0.046 A 
ATOM     24  C   UNL     1      15.382  -9.325  25.396  0.00  0.00    +0.001 A 
ATOM     27  C   UNL     1      15.297 -10.525  26.102  0.00  0.00    +0.004 A 
BRANCH  21   5
ATOM      5  O   UNL     1      15.602  -9.333  29.542  0.00  0.00    -0.506 OA
ATOM     33  H   UNL     1      14.964  -8.692  29.900  0.00  0.00    +0.292 HD
ENDBRANCH  21   5
ENDBRANCH  16  18
ENDBRANCH   6  16
ENDBRANCH  13   6
ENDBRANCH   8  13
BRANCH  10  14
ATOM     14  C   UNL     1      13.556  -4.394  32.466  0.00  0.00    +0.090 C 
BRANCH  14  15
ATOM      4  O   UNL     1      12.515  -7.838  32.271  0.00  0.00    -0.354 OA
ATOM      7  N   UNL     1      13.487  -6.846  32.270  0.00  0.00    -0.083 NA
ATOM     15  C   UNL     1      12.814  -5.702  32.422  0.00  0.00    +0.087 A 
ATOM     17  C   UNL     1      11.427  -5.908  32.523  0.00  0.00    +0.076 A 
ATOM     19  C   UNL     1      11.292  -7.267  32.422  0.00  0.00    +0.167 A 
BRANCH  19  20
ATOM      1  F   UNL     1       6.980 -10.781  32.511  0.00  0.00    -0.205 F 
ATOM     20  C   UNL     1      10.180  -8.174  32.445  0.00  0.00    +0.020 A 
ATOM     25  C   UNL     1      10.371  -9.519  32.128  0.00  0.00    +0.014 A 
ATOM     26  C   UNL     1       8.910  -7.710  32.786  0.00  0.00    +0.014 A 
ATOM     28  C   UNL     1       9.289 -10.399  32.151  0.00  0.00    +0.039 A 
ATOM     29  C   UNL     1       7.829  -8.591  32.808  0.00  0.00    +0.039 A 
ATOM     30  C   UNL     1       8.018  -9.935  32.490  0.00  0.00    +0.123 A 
ENDBRANCH  19  20
ENDBRANCH  14  15
ENDBRANCH  10  14
TORSDOF 9
ENDMDL
MODEL 2
REMARK VINA RESULT:      -2.7      1.480      2.139
REMARK  Name = 75536262
REMARK  9 active torsions:
REMARK  status: ('A' for Active; 'I' for Inactive)
REMARK    1  A    between atoms: O_3  and  C_9
REMARK    2  A    between atoms: O_5  and  C_21
REMARK    3  A    between atoms: N_6  and  C_13
REMARK    4  A    between atoms: N_6  and  C_16
REMARK    5  A    between atoms: C_8  and  C_13
REMARK    6  A    between atoms: C_10  and  C_14
REMARK    7  A    between atoms: C_14  and  C_15
REMARK    8  A    between atoms: C_16  and  C_18
REMARK    9  A    between atoms: C_19  and  C_20
REMARK                            x       y       z     vdW  Elec       q    Type
REMARK                         _______ _______ _______ _____ _____    ______ ____
ROOT
ATOM      2  O   UNL     1      14.346  -5.474  30.417  0.00  0.00    -0.369 OA
ATOM      8  C   UNL     1      15.615  -5.807  29.839  0.00  0.00    +0.161 C 
ATOM      9  C   UNL     1      16.618  -4.657  29.994  0.00  0.00    +0.145 C 
ATOM     10  C   UNL     1      14.387  -5.079  31.790  0.00  0.00    +0.125 C 
ATOM     11  C   UNL     1      16.685  -4.133  31.425  0.00  0.00    +0.036 C 
ATOM     12  C   UNL     1      15.287  -3.857  31.972  0.00  0.00    +0.034 C 
ENDROOT
BRANCH   9   3
ATOM      3  O   UNL     1      16.211  -3.576  29.151  0.00  0.00    -0.389 OA
ATOM     32  H   UNL     1      16.001  -3.949  28.278  0.00  0.00    +0.210 HD
ENDBRANCH   9   3
BRANCH   8  13
ATOM     13  C   UNL     1      16.137  -7.134  30.389  0.00  0.00    +0.115 C 
BRANCH  13   6
ATOM      6  N   UNL     1      17.121  -7.717  29.490  0.00  0.00    -0.309 NA
ATOM     31  H   UNL     1      17.730  -6.981  29.135  0.00  0.00    +0.122 HD
BRANCH   6  16
ATOM     16  C   UNL     1      16.473  -8.400  28.378  0.00  0.00    +0.120 C 
BRANCH  16  18
ATOM     18  C   UNL     1      16.780  -7.741  27.059  0.00  0.00    +0.008 A 
ATOM     21  C   UNL     1      17.085  -8.507  25.934  0.00  0.00    +0.121 A 
ATOM     22  C   UNL     1      16.755  -6.349  26.970  0.00  0.00    +0.008 A 
ATOM     23  C   UNL     1      17.367  -7.881  24.720  0.00  0.00    +0.046 A 
ATOM     24  C   UNL     1      17.037  -5.724  25.756  0.00  0.00    +0.001 A 
ATOM     27  C   UNL     1      17.343  -6.490  24.631  0.00  0.00    +0.004 A 
BRANCH  21   5
ATOM      5  O   UNL     1      17.113  -9.867  26.004  0.00  0.00    -0.506 OA
ATOM     33  H   UNL     1      17.991 -10.151  26.310  0.00  0.00    +0.292 HD
ENDBRANCH  21   5
ENDBRANCH  16  18
ENDBRANCH   6  16
ENDBRANCH  13   6
ENDBRANCH   8  13
BRANCH  10  14
ATOM     14  C   UNL     1      12.959  -4.769  32.221  0.00  0.00    +0.090 C 
BRANCH  14  15
ATOM      4  O   UNL     1      11.741  -8.108  32.817  0.00  0.00    -0.354 OA
ATOM      7  N   UNL     1      12.762  -7.172  32.715  0.00  0.00    -0.083 NA
ATOM     15  C   UNL     1      12.150  -6.024  32.412  0.00  0.00    +0.087 A 
ATOM     17  C   UNL     1      10.755  -6.173  32.313  0.00  0.00    +0.076 A 
ATOM     19  C   UNL     1      10.551  -7.501  32.575  0.00  0.00    +0.167 A 
BRANCH  19  20
ATOM      1  F   UNL     1       6.066 -10.780  32.863  0.00  0.00    -0.205 F 
ATOM     20  C   UNL     1       9.394  -8.346  32.649  0.00  0.00    +0.020 A 
ATOM     25  C   UNL     1       8.126  -7.783  32.797  0.00  0.00    +0.014 A 
ATOM     26  C   UNL     1       9.537  -9.732  32.573  0.00  0.00    +0.014 A 
ATOM     28  C   UNL     1       7.003  -8.605  32.869  0.00  0.00    +0.039 A 
ATOM     29  C   UNL     1       8.413 -10.554  32.645  0.00  0.00    +0.039 A 
ATOM     30  C   UNL     1       7.145  -9.991  32.794  0.00  0.00    +0.123 A 
ENDBRANCH  19  20
ENDBRANCH  14  15
ENDBRANCH  10  14
TORSDOF 9
ENDMDL
MODEL 3
REMARK VINA RESULT:      -2.3     16.675     19.601
REMARK  Name = 75536262
REMARK  9 active torsions:
REMARK  status: ('A' for Active; 'I' for Inactive)
REMARK    1  A    between atoms: O_3  and  C_9
REMARK    2  A    between atoms: O_5  and  C_21
REMARK    3  A    between atoms: N_6  and  C_13
REMARK    4  A    between atoms: N_6  and  C_16
REMARK    5  A    between atoms: C_8  and  C_13
REMARK    6  A    between atoms: C_10  and  C_14
REMARK    7  A    between atoms: C_14  and  C_15
REMARK    8  A    between atoms: C_16  and  C_18
REMARK    9  A    between atoms: C_19  and  C_20
REMARK                            x       y       z     vdW  Elec       q    Type
REMARK                         _______ _______ _______ _____ _____    ______ ____
ROOT
ATOM      2  O   UNL     1      -3.521   0.255  23.755  0.00  0.00    -0.369 OA
ATOM      8  C   UNL     1      -4.421  -0.432  24.634  0.00  0.00    +0.161 C 
ATOM      9  C   UNL     1      -3.703  -1.544  25.410  0.00  0.00    +0.145 C 
ATOM     10  C   UNL     1      -2.360   0.806  24.381  0.00  0.00    +0.125 C 
ATOM     11  C   UNL     1      -2.416  -1.055  26.067  0.00  0.00    +0.036 C 
ATOM     12  C   UNL     1      -1.549  -0.292  25.070  0.00  0.00    +0.034 C 
ENDROOT
BRANCH   9   3
ATOM      3  O   UNL     1      -3.358  -2.592  24.500  0.00  0.00    -0.389 OA
ATOM     32  H   UNL     1      -3.460  -3.435  24.973  0.00  0.00    +0.210 HD
ENDBRANCH   9   3
BRANCH   8  13
ATOM     13  C   UNL     1      -5.159   0.550  25.542  0.00  0.00    +0.115 C 
BRANCH  13   6
ATOM      6  N   UNL     1      -5.723   1.647  24.771  0.00  0.00    -0.309 NA
ATOM     31  H   UNL     1      -5.209   1.741  23.896  0.00  0.00    +0.122 HD
BRANCH   6  16
ATOM     16  C   UNL     1      -5.659   2.897  25.518  0.00  0.00    +0.120 C 
BRANCH  16  18
ATOM     18  C   UNL     1      -4.299   3.537  25.424  0.00  0.00    +0.008 A 
ATOM     21  C   UNL     1      -3.752   3.869  24.185  0.00  0.00    +0.121 A 
ATOM     22  C   UNL     1      -3.587   3.798  26.595  0.00  0.00    +0.008 A 
ATOM     23  C   UNL     1      -2.491   4.462  24.117  0.00  0.00    +0.046 A 
ATOM     24  C   UNL     1      -2.326   4.391  26.526  0.00  0.00    +0.001 A 
ATOM     27  C   UNL     1      -1.779   4.723  25.286  0.00  0.00    +0.004 A 
BRANCH  21   5
ATOM      5  O   UNL     1      -4.435   3.621  23.033  0.00  0.00    -0.506 OA
ATOM     33  H   UNL     1      -5.357   3.907  23.143  0.00  0.00    +0.292 HD
ENDBRANCH  21   5
ENDBRANCH  16  18
ENDBRANCH   6  16
ENDBRANCH  13   6
ENDBRANCH   8  13
BRANCH  10  14
ATOM     14  C   UNL     1      -1.535   1.490  23.297  0.00  0.00    +0.090 C 
BRANCH  14  15
ATOM      4  O   UNL     1       1.241  -0.621  22.390  0.00  0.00    -0.354 OA
ATOM      7  N   UNL     1      -0.103  -0.274  22.351  0.00  0.00    -0.083 NA
ATOM     15  C   UNL     1      -0.200   0.823  23.108  0.00  0.00    +0.087 A 
ATOM     17  C   UNL     1       1.040   1.210  23.646  0.00  0.00    +0.076 A 
ATOM     19  C   UNL     1       1.911   0.269  23.165  0.00  0.00    +0.167 A 
BRANCH  19  20
ATOM      1  F   UNL     1       7.379  -0.617  23.686  0.00  0.00    -0.205 F 
ATOM     20  C   UNL     1       3.321   0.040  23.299  0.00  0.00    +0.020 A 
ATOM     25  C   UNL     1       3.788  -1.200  23.735  0.00  0.00    +0.014 A 
ATOM     26  C   UNL     1       4.225   1.058  22.993  0.00  0.00    +0.014 A 
ATOM     28  C   UNL     1       5.159  -1.422  23.865  0.00  0.00    +0.039 A 
ATOM     29  C   UNL     1       5.595   0.836  23.124  0.00  0.00    +0.039 A 
ATOM     30  C   UNL     1       6.063  -0.404  23.561  0.00  0.00    +0.123 A 
ENDBRANCH  19  20
ENDBRANCH  14  15
ENDBRANCH  10  14
TORSDOF 9
ENDMDL
MODEL 4
REMARK VINA RESULT:      -1.7     16.903     19.578
REMARK  Name = 75536262
REMARK  9 active torsions:
REMARK  status: ('A' for Active; 'I' for Inactive)
REMARK    1  A    between atoms: O_3  and  C_9
REMARK    2  A    between atoms: O_5  and  C_21
REMARK    3  A    between atoms: N_6  and  C_13
REMARK    4  A    between atoms: N_6  and  C_16
REMARK    5  A    between atoms: C_8  and  C_13
REMARK    6  A    between atoms: C_10  and  C_14
REMARK    7  A    between atoms: C_14  and  C_15
REMARK    8  A    between atoms: C_16  and  C_18
REMARK    9  A    between atoms: C_19  and  C_20
REMARK                            x       y       z     vdW  Elec       q    Type
REMARK                         _______ _______ _______ _____ _____    ______ ____
ROOT
ATOM      2  O   UNL     1      -3.848   2.336  25.791  0.00  0.00    -0.369 OA
ATOM      8  C   UNL     1      -5.016   1.602  25.405  0.00  0.00    +0.161 C 
ATOM      9  C   UNL     1      -6.299   2.346  25.799  0.00  0.00    +0.145 C 
ATOM     10  C   UNL     1      -3.776   3.674  25.291  0.00  0.00    +0.125 C 
ATOM     11  C   UNL     1      -6.284   3.804  25.351  0.00  0.00    +0.036 C 
ATOM     12  C   UNL     1      -4.982   4.488  25.759  0.00  0.00    +0.034 C 
ENDROOT
BRANCH   9   3
ATOM      3  O   UNL     1      -6.423   2.327  27.223  0.00  0.00    -0.389 OA
ATOM     32  H   UNL     1      -6.593   1.407  27.490  0.00  0.00    +0.210 HD
ENDBRANCH   9   3
BRANCH   8  13
ATOM     13  C   UNL     1      -4.970   1.233  23.923  0.00  0.00    +0.115 C 
BRANCH  13   6
ATOM      6  N   UNL     1      -4.600  -0.163  23.747  0.00  0.00    -0.309 NA
ATOM     31  H   UNL     1      -5.359  -0.654  23.275  0.00  0.00    +0.122 HD
BRANCH   6  16
ATOM     16  C   UNL     1      -4.325  -0.796  25.029  0.00  0.00    +0.120 C 
BRANCH  16  18
ATOM     18  C   UNL     1      -2.891  -1.240  25.139  0.00  0.00    +0.008 A 
ATOM     21  C   UNL     1      -2.450  -2.395  24.491  0.00  0.00    +0.121 A 
ATOM     22  C   UNL     1      -1.998  -0.482  25.898  0.00  0.00    +0.008 A 
ATOM     23  C   UNL     1      -1.118  -2.792  24.604  0.00  0.00    +0.046 A 
ATOM     24  C   UNL     1      -0.666  -0.881  26.010  0.00  0.00    +0.001 A 
ATOM     27  C   UNL     1      -0.226  -2.035  25.362  0.00  0.00    +0.004 A 
BRANCH  21   5
ATOM      5  O   UNL     1      -3.309  -3.146  23.746  0.00  0.00    -0.506 OA
ATOM     33  H   UNL     1      -3.240  -4.075  24.024  0.00  0.00    +0.292 HD
ENDBRANCH  21   5
ENDBRANCH  16  18
ENDBRANCH   6  16
ENDBRANCH  13   6
ENDBRANCH   8  13
BRANCH  10  14
ATOM     14  C   UNL     1      -2.478   4.286  25.800  0.00  0.00    +0.090 C 
BRANCH  14  15
ATOM      4  O   UNL     1       0.500   2.257  25.813  0.00  0.00    -0.354 OA
ATOM      7  N   UNL     1      -0.469   3.021  26.450  0.00  0.00    -0.083 NA
ATOM     15  C   UNL     1      -1.289   3.423  25.474  0.00  0.00    +0.087 A 
ATOM     17  C   UNL     1      -0.890   2.947  24.213  0.00  0.00    +0.076 A 
ATOM     19  C   UNL     1       0.239   2.221  24.481  0.00  0.00    +0.167 A 
BRANCH  19  20
ATOM      1  F   UNL     1       3.812  -0.727  21.400  0.00  0.00    -0.205 F 
ATOM     20  C   UNL     1       1.160   1.461  23.686  0.00  0.00    +0.020 A 
ATOM     25  C   UNL     1       0.724   0.318  23.015  0.00  0.00    +0.014 A 
ATOM     26  C   UNL     1       2.491   1.866  23.584  0.00  0.00    +0.014 A 
ATOM     28  C   UNL     1       1.621  -0.420  22.243  0.00  0.00    +0.039 A 
ATOM     29  C   UNL     1       3.387   1.126  22.812  0.00  0.00    +0.039 A 
ATOM     30  C   UNL     1       2.952  -0.017  22.141  0.00  0.00    +0.123 A 
ENDBRANCH  19  20
ENDBRANCH  14  15
ENDBRANCH  10  14
TORSDOF 9
ENDMDL
MODEL 5
REMARK VINA RESULT:      -1.5     15.668     18.176
REMARK  Name = 75536262
REMARK  9 active torsions:
REMARK  status: ('A' for Active; 'I' for Inactive)
REMARK    1  A    between atoms: O_3  and  C_9
REMARK    2  A    between atoms: O_5  and  C_21
REMARK    3  A    between atoms: N_6  and  C_13
REMARK    4  A    between atoms: N_6  and  C_16
REMARK    5  A    between atoms: C_8  and  C_13
REMARK    6  A    between atoms: C_10  and  C_14
REMARK    7  A    between atoms: C_14  and  C_15
REMARK    8  A    between atoms: C_16  and  C_18
REMARK    9  A    between atoms: C_19  and  C_20
REMARK                            x       y       z     vdW  Elec       q    Type
REMARK                         _______ _______ _______ _____ _____    ______ ____
ROOT
ATOM      2  O   UNL     1      -0.990   2.762  24.202  0.00  0.00    -0.369 OA
ATOM      8  C   UNL     1      -1.068   3.468  25.447  0.00  0.00    +0.161 C 
ATOM      9  C   UNL     1      -2.401   4.215  25.583  0.00  0.00    +0.145 C 
ATOM     10  C   UNL     1      -2.059   1.847  23.952  0.00  0.00    +0.125 C 
ATOM     11  C   UNL     1      -3.600   3.323  25.277  0.00  0.00    +0.036 C 
ATOM     12  C   UNL     1      -3.403   2.574  23.962  0.00  0.00    +0.034 C 
ENDROOT
BRANCH   9   3
ATOM      3  O   UNL     1      -2.416   5.301  24.653  0.00  0.00    -0.389 OA
ATOM     32  H   UNL     1      -2.004   6.066  25.090  0.00  0.00    +0.210 HD
ENDBRANCH   9   3
BRANCH   8  13
ATOM     13  C   UNL     1      -0.782   2.537  26.625  0.00  0.00    +0.115 C 
BRANCH  13   6
ATOM      6  N   UNL     1      -0.338   1.233  26.160  0.00  0.00    -0.309 NA
ATOM     31  H   UNL     1      -0.526   1.150  25.161  0.00  0.00    +0.122 HD
BRANCH   6  16
ATOM     16  C   UNL     1      -1.016   0.163  26.880  0.00  0.00    +0.120 C 
BRANCH  16  18
ATOM     18  C   UNL     1      -1.753  -0.762  25.948  0.00  0.00    +0.008 A 
ATOM     21  C   UNL     1      -1.062  -1.708  25.190  0.00  0.00    +0.121 A 
ATOM     22  C   UNL     1      -3.141  -0.665  25.848  0.00  0.00    +0.008 A 
ATOM     23  C   UNL     1      -1.760  -2.557  24.332  0.00  0.00    +0.046 A 
ATOM     24  C   UNL     1      -3.838  -1.515  24.989  0.00  0.00    +0.001 A 
ATOM     27  C   UNL     1      -3.148  -2.461  24.231  0.00  0.00    +0.004 A 
BRANCH  21   5
ATOM      5  O   UNL     1       0.293  -1.816  25.277  0.00  0.00    -0.506 OA
ATOM     33  H   UNL     1       0.622  -2.306  24.505  0.00  0.00    +0.292 HD
ENDBRANCH  21   5
ENDBRANCH  16  18
ENDBRANCH   6  16
ENDBRANCH  13   6
ENDBRANCH   8  13
BRANCH  10  14
ATOM     14  C   UNL     1      -1.803   1.199  22.597  0.00  0.00    +0.090 C 
BRANCH  14  15
ATOM      4  O   UNL     1       1.232  -0.550  21.749  0.00  0.00    -0.354 OA
ATOM      7  N   UNL     1      -0.112  -0.256  21.557  0.00  0.00    -0.083 NA
ATOM     15  C   UNL     1      -0.408   0.643  22.500  0.00  0.00    +0.087 A 
ATOM     17  C   UNL     1       0.700   0.953  23.308  0.00  0.00    +0.076 A 
ATOM     19  C   UNL     1       1.704   0.176  22.795  0.00  0.00    +0.167 A 
BRANCH  19  20
ATOM      1  F   UNL     1       7.075  -0.584  24.031  0.00  0.00    -0.205 F 
ATOM     20  C   UNL     1       3.089  -0.021  23.113  0.00  0.00    +0.020 A 
ATOM     25  C   UNL     1       3.525  -1.254  23.597  0.00  0.00    +0.014 A 
ATOM     26  C   UNL     1       3.999   1.022  22.937  0.00  0.00    +0.014 A 
ATOM     28  C   UNL     1       4.872  -1.444  23.907  0.00  0.00    +0.039 A 
ATOM     29  C   UNL     1       5.346   0.831  23.248  0.00  0.00    +0.039 A 
ATOM     30  C   UNL     1       5.782  -0.401  23.733  0.00  0.00    +0.123 A 
ENDBRANCH  19  20
ENDBRANCH  14  15
ENDBRANCH  10  14
TORSDOF 9
ENDMDL
MODEL 6
REMARK VINA RESULT:      -1.3     16.342     18.992
REMARK  Name = 75536262
REMARK  9 active torsions:
REMARK  status: ('A' for Active; 'I' for Inactive)
REMARK    1  A    between atoms: O_3  and  C_9
REMARK    2  A    between atoms: O_5  and  C_21
REMARK    3  A    between atoms: N_6  and  C_13
REMARK    4  A    between atoms: N_6  and  C_16
REMARK    5  A    between atoms: C_8  and  C_13
REMARK    6  A    between atoms: C_10  and  C_14
REMARK    7  A    between atoms: C_14  and  C_15
REMARK    8  A    between atoms: C_16  and  C_18
REMARK    9  A    between atoms: C_19  and  C_20
REMARK                            x       y       z     vdW  Elec       q    Type
REMARK                         _______ _______ _______ _____ _____    ______ ____
ROOT
ATOM      2  O   UNL     1      -2.817   1.749  24.596  0.00  0.00    -0.369 OA
ATOM      8  C   UNL     1      -3.559   2.530  25.541  0.00  0.00    +0.161 C 
ATOM      9  C   UNL     1      -3.589   4.011  25.142  0.00  0.00    +0.145 C 
ATOM     10  C   UNL     1      -3.259   1.852  23.240  0.00  0.00    +0.125 C 
ATOM     11  C   UNL     1      -3.998   4.211  23.686  0.00  0.00    +0.036 C 
ATOM     12  C   UNL     1      -3.193   3.302  22.762  0.00  0.00    +0.034 C 
ENDROOT
BRANCH   9   3
ATOM      3  O   UNL     1      -2.277   4.558  25.306  0.00  0.00    -0.389 OA
ATOM     32  H   UNL     1      -2.378   5.508  25.487  0.00  0.00    +0.210 HD
ENDBRANCH   9   3
BRANCH   8  13
ATOM     13  C   UNL     1      -4.952   1.944  25.766  0.00  0.00    +0.115 C 
BRANCH  13   6
ATOM      6  N   UNL     1      -4.986   0.535  25.407  0.00  0.00    -0.309 NA
ATOM     31  H   UNL     1      -5.942   0.189  25.492  0.00  0.00    +0.122 HD
BRANCH   6  16
ATOM     16  C   UNL     1      -4.102  -0.244  26.263  0.00  0.00    +0.120 C 
BRANCH  16  18
ATOM     18  C   UNL     1      -3.261  -1.210  25.470  0.00  0.00    +0.008 A 
ATOM     21  C   UNL     1      -1.869  -1.139  25.506  0.00  0.00    +0.121 A 
ATOM     22  C   UNL     1      -3.891  -2.185  24.695  0.00  0.00    +0.008 A 
ATOM     23  C   UNL     1      -1.105  -2.042  24.766  0.00  0.00    +0.046 A 
ATOM     24  C   UNL     1      -3.126  -3.087  23.955  0.00  0.00    +0.001 A 
ATOM     27  C   UNL     1      -1.734  -3.016  23.991  0.00  0.00    +0.004 A 
BRANCH  21   5
ATOM      5  O   UNL     1      -1.239  -0.194  26.259  0.00  0.00    -0.506 OA
ATOM     33  H   UNL     1      -1.466   0.687  25.916  0.00  0.00    +0.292 HD
ENDBRANCH  21   5
ENDBRANCH  16  18
ENDBRANCH   6  16
ENDBRANCH  13   6
ENDBRANCH   8  13
BRANCH  10  14
ATOM     14  C   UNL     1      -2.359   0.960  22.394  0.00  0.00    +0.090 C 
BRANCH  14  15
ATOM      4  O   UNL     1       0.783   1.616  24.033  0.00  0.00    -0.354 OA
ATOM      7  N   UNL     1      -0.574   1.843  23.840  0.00  0.00    -0.083 NA
ATOM     15  C   UNL     1      -0.932   0.995  22.872  0.00  0.00    +0.087 A 
ATOM     17  C   UNL     1       0.146   0.215  22.419  0.00  0.00    +0.076 A 
ATOM     19  C   UNL     1       1.200   0.645  23.180  0.00  0.00    +0.167 A 
BRANCH  19  20
ATOM      1  F   UNL     1       6.588  -0.703  23.506  0.00  0.00    -0.205 F 
ATOM     20  C   UNL     1       2.590   0.298  23.264  0.00  0.00    +0.020 A 
ATOM     25  C   UNL     1       3.565   1.244  22.950  0.00  0.00    +0.014 A 
ATOM     26  C   UNL     1       2.964  -0.986  23.662  0.00  0.00    +0.014 A 
ATOM     28  C   UNL     1       4.916   0.906  23.033  0.00  0.00    +0.039 A 
ATOM     29  C   UNL     1       4.315  -1.323  23.743  0.00  0.00    +0.039 A 
ATOM     30  C   UNL     1       5.291  -0.378  23.428  0.00  0.00    +0.123 A 
ENDBRANCH  19  20
ENDBRANCH  14  15
ENDBRANCH  10  14
TORSDOF 9
ENDMDL
