MODEL 1
REMARK VINA RESULT:      -2.8      0.000      0.000
REMARK  Name = 26742624
REMARK  13 active torsions:
REMARK  status: ('A' for Active; 'I' for Inactive)
REMARK    1  A    between atoms: O_2  and  C_18
REMARK    2  A    between atoms: O_3  and  C_25
REMARK    3  A    between atoms: O_3  and  C_27
REMARK    4  A    between atoms: N_4  and  C_14
REMARK    5  A    between atoms: N_5  and  C_20
REMARK    6  A    between atoms: N_5  and  C_21
REMARK    7  A    between atoms: C_7  and  C_12
REMARK    8  A    between atoms: C_8  and  C_13
REMARK    9  A    between atoms: C_12  and  C_15
REMARK   10  A    between atoms: C_13  and  C_16
REMARK   11  A    between atoms: C_14  and  C_17
REMARK   12  A    between atoms: C_20  and  C_24
REMARK   13  A    between atoms: C_24  and  C_26
REMARK                            x       y       z     vdW  Elec       q    Type
REMARK                         _______ _______ _______ _____ _____    ______ ____
ROOT
ATOM      4  N   UNL     1       0.516  -0.121  23.720  0.00  0.00    -0.298 NA
ATOM      7  C   UNL     1      -1.578  -1.090  24.644  0.00  0.00    +0.006 C 
ATOM      8  C   UNL     1      -2.046   0.302  25.128  0.00  0.00    +0.003 C 
ATOM      9  C   UNL     1      -0.817   1.200  25.329  0.00  0.00    +0.019 C 
ATOM     10  C   UNL     1      -0.637  -0.986  23.430  0.00  0.00    +0.088 C 
ATOM     11  C   UNL     1       0.094   1.232  24.100  0.00  0.00    +0.085 C 
ENDROOT
BRANCH   7  12
ATOM     12  C   UNL     1      -2.738  -2.040  24.344  0.00  0.00    +0.002 C 
ATOM     15  C   UNL     1      -3.339  -2.596  25.620  0.00  0.00    +0.004 C 
ENDBRANCH   7  12
BRANCH   8  13
ATOM     13  C   UNL     1      -3.069   0.972  24.203  0.00  0.00    +0.100 C 
BRANCH  13  16
ATOM      1  O   UNL     1      -5.114   0.406  25.320  0.00  0.00    -0.276 OA
ATOM      5  N   UNL     1      -4.633   2.664  25.095  0.00  0.00    -0.304 N 
ATOM     16  C   UNL     1      -4.364   1.301  24.923  0.00  0.00    +0.216 C 
ATOM     21  C   UNL     1      -5.835   3.144  25.766  0.00  0.00    +0.132 C 
BRANCH   5  20
ATOM     20  C   UNL     1      -3.729   3.708  24.616  0.00  0.00    +0.122 C 
BRANCH  20  24
ATOM     24  C   UNL     1      -2.832   4.252  25.722  0.00  0.00    +0.137 C 
BRANCH  24  26
ATOM      6  N   UNL     1      -0.543   5.139  24.776  0.00  0.00    -0.197 NA
ATOM     26  C   UNL     1      -1.552   4.747  25.194  0.00  0.00    +0.064 C 
ENDBRANCH  24  26
ENDBRANCH  20  24
ENDBRANCH   5  20
ENDBRANCH  13  16
ENDBRANCH   8  13
BRANCH   4  14
ATOM     14  C   UNL     1       1.423  -0.074  22.573  0.00  0.00    +0.123 C 
BRANCH  14  17
ATOM     17  C   UNL     1       2.861  -0.188  22.989  0.00  0.00    +0.008 A 
ATOM     18  C   UNL     1       3.712   0.915  22.925  0.00  0.00    +0.125 A 
ATOM     19  C   UNL     1       3.343  -1.416  23.444  0.00  0.00    +0.012 A 
ATOM     22  C   UNL     1       5.046   0.792  23.315  0.00  0.00    +0.091 A 
ATOM     23  C   UNL     1       4.677  -1.539  23.834  0.00  0.00    +0.046 A 
ATOM     25  C   UNL     1       5.528  -0.436  23.769  0.00  0.00    +0.124 A 
BRANCH  18   2
ATOM      2  O   UNL     1       3.257   2.121  22.482  0.00  0.00    -0.506 OA
ATOM     28  H   UNL     1       2.795   1.995  21.636  0.00  0.00    +0.292 HD
ENDBRANCH  18   2
BRANCH  25   3
ATOM      3  O   UNL     1       6.829  -0.557  24.150  0.00  0.00    -0.495 OA
ATOM     27  C   UNL     1       7.819  -0.403  23.135  0.00  0.00    +0.277 C 
ENDBRANCH  25   3
ENDBRANCH  14  17
ENDBRANCH   4  14
TORSDOF 10
ENDMDL
MODEL 2
REMARK VINA RESULT:      -1.7     14.945     17.792
REMARK  Name = 26742624
REMARK  13 active torsions:
REMARK  status: ('A' for Active; 'I' for Inactive)
REMARK    1  A    between atoms: O_2  and  C_18
REMARK    2  A    between atoms: O_3  and  C_25
REMARK    3  A    between atoms: O_3  and  C_27
REMARK    4  A    between atoms: N_4  and  C_14
REMARK    5  A    between atoms: N_5  and  C_20
REMARK    6  A    between atoms: N_5  and  C_21
REMARK    7  A    between atoms: C_7  and  C_12
REMARK    8  A    between atoms: C_8  and  C_13
REMARK    9  A    between atoms: C_12  and  C_15
REMARK   10  A    between atoms: C_13  and  C_16
REMARK   11  A    between atoms: C_14  and  C_17
REMARK   12  A    between atoms: C_20  and  C_24
REMARK   13  A    between atoms: C_24  and  C_26
REMARK                            x       y       z     vdW  Elec       q    Type
REMARK                         _______ _______ _______ _____ _____    ______ ____
ROOT
ATOM      4  N   UNL     1      -6.978  -9.757  14.876  0.00  0.00    -0.298 NA
ATOM      7  C   UNL     1      -4.709 -10.763  14.757  0.00  0.00    +0.006 C 
ATOM      8  C   UNL     1      -4.754 -10.762  13.211  0.00  0.00    +0.003 C 
ATOM      9  C   UNL     1      -6.221 -10.777  12.755  0.00  0.00    +0.019 C 
ATOM     10  C   UNL     1      -5.593  -9.653  15.355  0.00  0.00    +0.088 C 
ATOM     11  C   UNL     1      -7.052  -9.673  13.412  0.00  0.00    +0.085 C 
ENDROOT
BRANCH   7  12
ATOM     12  C   UNL     1      -3.287 -10.675  15.313  0.00  0.00    +0.002 C 
ATOM     15  C   UNL     1      -3.288 -10.667  16.828  0.00  0.00    +0.004 C 
ENDBRANCH   7  12
BRANCH   8  13
ATOM     13  C   UNL     1      -3.993  -9.599  12.565  0.00  0.00    +0.100 C 
BRANCH  13  16
ATOM      1  O   UNL     1      -2.658 -10.619  10.854  0.00  0.00    -0.276 OA
ATOM      5  N   UNL     1      -4.419  -9.282  10.153  0.00  0.00    -0.304 N 
ATOM     16  C   UNL     1      -3.616  -9.890  11.124  0.00  0.00    +0.216 C 
ATOM     21  C   UNL     1      -4.189  -9.462   8.724  0.00  0.00    +0.132 C 
BRANCH   5  20
ATOM     20  C   UNL     1      -5.550  -8.422  10.496  0.00  0.00    +0.122 C 
BRANCH  20  24
ATOM     24  C   UNL     1      -6.620  -8.407   9.410  0.00  0.00    +0.137 C 
BRANCH  24  26
ATOM      6  N   UNL     1      -8.490 -10.203   9.854  0.00  0.00    -0.197 NA
ATOM     26  C   UNL     1      -7.664  -9.412   9.658  0.00  0.00    +0.064 C 
ENDBRANCH  24  26
ENDBRANCH  20  24
ENDBRANCH   5  20
ENDBRANCH  13  16
ENDBRANCH   8  13
BRANCH   4  14
ATOM     14  C   UNL     1      -7.813  -8.726  15.492  0.00  0.00    +0.123 C 
BRANCH  14  17
ATOM     17  C   UNL     1      -8.594  -9.258  16.659  0.00  0.00    +0.008 A 
ATOM     18  C   UNL     1      -9.938  -8.929  16.827  0.00  0.00    +0.125 A 
ATOM     19  C   UNL     1      -7.957 -10.090  17.581  0.00  0.00    +0.012 A 
ATOM     22  C   UNL     1     -10.649  -9.432  17.918  0.00  0.00    +0.091 A 
ATOM     23  C   UNL     1      -8.668 -10.592  18.671  0.00  0.00    +0.046 A 
ATOM     25  C   UNL     1     -10.013 -10.264  18.839  0.00  0.00    +0.124 A 
BRANCH  18   2
ATOM      2  O   UNL     1     -10.574  -8.117  15.936  0.00  0.00    -0.506 OA
ATOM     28  H   UNL     1     -11.469  -7.924  16.265  0.00  0.00    +0.292 HD
ENDBRANCH  18   2
BRANCH  25   3
ATOM      3  O   UNL     1     -10.706 -10.755  19.904  0.00  0.00    -0.495 OA
ATOM     27  C   UNL     1     -10.719  -9.963  21.090  0.00  0.00    +0.277 C 
ENDBRANCH  25   3
ENDBRANCH  14  17
ENDBRANCH   4  14
TORSDOF 10
ENDMDL
MODEL 3
REMARK VINA RESULT:      -1.3      2.839      7.131
REMARK  Name = 26742624
REMARK  13 active torsions:
REMARK  status: ('A' for Active; 'I' for Inactive)
REMARK    1  A    between atoms: O_2  and  C_18
REMARK    2  A    between atoms: O_3  and  C_25
REMARK    3  A    between atoms: O_3  and  C_27
REMARK    4  A    between atoms: N_4  and  C_14
REMARK    5  A    between atoms: N_5  and  C_20
REMARK    6  A    between atoms: N_5  and  C_21
REMARK    7  A    between atoms: C_7  and  C_12
REMARK    8  A    between atoms: C_8  and  C_13
REMARK    9  A    between atoms: C_12  and  C_15
REMARK   10  A    between atoms: C_13  and  C_16
REMARK   11  A    between atoms: C_14  and  C_17
REMARK   12  A    between atoms: C_20  and  C_24
REMARK   13  A    between atoms: C_24  and  C_26
REMARK                            x       y       z     vdW  Elec       q    Type
REMARK                         _______ _______ _______ _____ _____    ______ ____
ROOT
ATOM      4  N   UNL     1      -0.008   2.249  24.824  0.00  0.00    -0.298 NA
ATOM      7  C   UNL     1       1.137   0.340  23.718  0.00  0.00    +0.006 C 
ATOM      8  C   UNL     1       0.217  -0.672  24.442  0.00  0.00    +0.003 C 
ATOM      9  C   UNL     1      -0.313  -0.030  25.733  0.00  0.00    +0.019 C 
ATOM     10  C   UNL     1       0.450   1.707  23.537  0.00  0.00    +0.088 C 
ATOM     11  C   UNL     1      -0.950   1.340  25.489  0.00  0.00    +0.085 C 
ENDROOT
BRANCH   7  12
ATOM     12  C   UNL     1       1.660  -0.180  22.379  0.00  0.00    +0.002 C 
ATOM     15  C   UNL     1       3.103   0.227  22.157  0.00  0.00    +0.004 C 
ENDBRANCH   7  12
BRANCH   8  13
ATOM     13  C   UNL     1      -0.935  -1.196  23.578  0.00  0.00    +0.100 C 
BRANCH  13  16
ATOM      1  O   UNL     1      -0.981  -3.249  24.816  0.00  0.00    -0.276 OA
ATOM      5  N   UNL     1      -3.016  -2.442  24.049  0.00  0.00    -0.304 N 
ATOM     16  C   UNL     1      -1.626  -2.391  24.208  0.00  0.00    +0.216 C 
ATOM     21  C   UNL     1      -3.826  -3.524  24.595  0.00  0.00    +0.132 C 
BRANCH   5  20
ATOM     20  C   UNL     1      -3.760  -1.414  23.325  0.00  0.00    +0.122 C 
BRANCH  20  24
ATOM     24  C   UNL     1      -4.350  -0.360  24.254  0.00  0.00    +0.137 C 
BRANCH  24  26
ATOM      6  N   UNL     1      -3.680  -0.784  26.762  0.00  0.00    -0.197 NA
ATOM     26  C   UNL     1      -3.976  -0.596  25.656  0.00  0.00    +0.064 C 
ENDBRANCH  24  26
ENDBRANCH  20  24
ENDBRANCH   5  20
ENDBRANCH  13  16
ENDBRANCH   8  13
BRANCH   4  14
ATOM     14  C   UNL     1      -0.613   3.568  24.638  0.00  0.00    +0.123 C 
BRANCH  14  17
ATOM     17  C   UNL     1      -2.087   3.556  24.921  0.00  0.00    +0.008 A 
ATOM     18  C   UNL     1      -2.985   3.015  24.001  0.00  0.00    +0.125 A 
ATOM     19  C   UNL     1      -2.555   4.094  26.120  0.00  0.00    +0.012 A 
ATOM     22  C   UNL     1      -4.352   3.012  24.279  0.00  0.00    +0.091 A 
ATOM     23  C   UNL     1      -3.922   4.091  26.398  0.00  0.00    +0.046 A 
ATOM     25  C   UNL     1      -4.820   3.550  25.478  0.00  0.00    +0.124 A 
BRANCH  18   2
ATOM      2  O   UNL     1      -2.544   2.486  22.825  0.00  0.00    -0.506 OA
ATOM     28  H   UNL     1      -3.094   1.717  22.597  0.00  0.00    +0.292 HD
ENDBRANCH  18   2
BRANCH  25   3
ATOM      3  O   UNL     1      -6.155   3.546  25.750  0.00  0.00    -0.495 OA
ATOM     27  C   UNL     1      -6.733   2.302  26.142  0.00  0.00    +0.277 C 
ENDBRANCH  25   3
ENDBRANCH  14  17
ENDBRANCH   4  14
TORSDOF 10
ENDMDL
MODEL 4
REMARK VINA RESULT:      -1.2      3.312      6.315
REMARK  Name = 26742624
REMARK  13 active torsions:
REMARK  status: ('A' for Active; 'I' for Inactive)
REMARK    1  A    between atoms: O_2  and  C_18
REMARK    2  A    between atoms: O_3  and  C_25
REMARK    3  A    between atoms: O_3  and  C_27
REMARK    4  A    between atoms: N_4  and  C_14
REMARK    5  A    between atoms: N_5  and  C_20
REMARK    6  A    between atoms: N_5  and  C_21
REMARK    7  A    between atoms: C_7  and  C_12
REMARK    8  A    between atoms: C_8  and  C_13
REMARK    9  A    between atoms: C_12  and  C_15
REMARK   10  A    between atoms: C_13  and  C_16
REMARK   11  A    between atoms: C_14  and  C_17
REMARK   12  A    between atoms: C_20  and  C_24
REMARK   13  A    between atoms: C_24  and  C_26
REMARK                            x       y       z     vdW  Elec       q    Type
REMARK                         _______ _______ _______ _____ _____    ______ ____
ROOT
ATOM      4  N   UNL     1      -5.530   1.249  24.716  0.00  0.00    -0.298 NA
ATOM      7  C   UNL     1      -4.165   3.043  23.669  0.00  0.00    +0.006 C 
ATOM      8  C   UNL     1      -4.293   3.923  24.934  0.00  0.00    +0.003 C 
ATOM      9  C   UNL     1      -5.563   3.519  25.697  0.00  0.00    +0.019 C 
ATOM     10  C   UNL     1      -4.279   1.544  24.002  0.00  0.00    +0.088 C 
ATOM     11  C   UNL     1      -5.632   2.013  25.965  0.00  0.00    +0.085 C 
ENDROOT
BRANCH   7  12
ATOM     12  C   UNL     1      -2.888   3.321  22.875  0.00  0.00    +0.002 C 
ATOM     15  C   UNL     1      -2.468   2.109  22.066  0.00  0.00    +0.004 C 
ENDBRANCH   7  12
BRANCH   8  13
ATOM     13  C   UNL     1      -3.065   3.879  25.851  0.00  0.00    +0.100 C 
BRANCH  13  16
ATOM      1  O   UNL     1      -1.922   5.858  25.125  0.00  0.00    -0.276 OA
ATOM      5  N   UNL     1      -0.783   3.849  24.908  0.00  0.00    -0.304 N 
ATOM     16  C   UNL     1      -1.885   4.633  25.266  0.00  0.00    +0.216 C 
ATOM     21  C   UNL     1       0.429   4.421  24.334  0.00  0.00    +0.132 C 
BRANCH   5  20
ATOM     20  C   UNL     1      -0.761   2.398  25.084  0.00  0.00    +0.122 C 
BRANCH  20  24
ATOM     24  C   UNL     1       0.606   1.796  24.780  0.00  0.00    +0.137 C 
BRANCH  24  26
ATOM      6  N   UNL     1       0.465  -0.061  22.923  0.00  0.00    -0.197 NA
ATOM     26  C   UNL     1       0.527   0.758  23.743  0.00  0.00    +0.064 C 
ENDBRANCH  24  26
ENDBRANCH  20  24
ENDBRANCH   5  20
ENDBRANCH  13  16
ENDBRANCH   8  13
BRANCH   4  14
ATOM     14  C   UNL     1      -5.644  -0.185  24.980  0.00  0.00    +0.123 C 
BRANCH  14  17
ATOM     17  C   UNL     1      -4.310  -0.872  24.938  0.00  0.00    +0.008 A 
ATOM     18  C   UNL     1      -4.111  -1.997  24.138  0.00  0.00    +0.125 A 
ATOM     19  C   UNL     1      -3.262  -0.372  25.712  0.00  0.00    +0.012 A 
ATOM     22  C   UNL     1      -2.865  -2.623  24.111  0.00  0.00    +0.091 A 
ATOM     23  C   UNL     1      -2.016  -0.999  25.685  0.00  0.00    +0.046 A 
ATOM     25  C   UNL     1      -1.818  -2.124  24.885  0.00  0.00    +0.124 A 
BRANCH  18   2
ATOM      2  O   UNL     1      -5.125  -2.498  23.376  0.00  0.00    -0.506 OA
ATOM     28  H   UNL     1      -5.118  -2.057  22.510  0.00  0.00    +0.292 HD
ENDBRANCH  18   2
BRANCH  25   3
ATOM      3  O   UNL     1      -0.601  -2.735  24.859  0.00  0.00    -0.495 OA
ATOM     27  C   UNL     1       0.397  -2.230  25.745  0.00  0.00    +0.277 C 
ENDBRANCH  25   3
ENDBRANCH  14  17
ENDBRANCH   4  14
TORSDOF 10
ENDMDL
MODEL 5
REMARK VINA RESULT:      -0.6      1.970      3.976
REMARK  Name = 26742624
REMARK  13 active torsions:
REMARK  status: ('A' for Active; 'I' for Inactive)
REMARK    1  A    between atoms: O_2  and  C_18
REMARK    2  A    between atoms: O_3  and  C_25
REMARK    3  A    between atoms: O_3  and  C_27
REMARK    4  A    between atoms: N_4  and  C_14
REMARK    5  A    between atoms: N_5  and  C_20
REMARK    6  A    between atoms: N_5  and  C_21
REMARK    7  A    between atoms: C_7  and  C_12
REMARK    8  A    between atoms: C_8  and  C_13
REMARK    9  A    between atoms: C_12  and  C_15
REMARK   10  A    between atoms: C_13  and  C_16
REMARK   11  A    between atoms: C_14  and  C_17
REMARK   12  A    between atoms: C_20  and  C_24
REMARK   13  A    between atoms: C_24  and  C_26
REMARK                            x       y       z     vdW  Elec       q    Type
REMARK                         _______ _______ _______ _____ _____    ______ ____
ROOT
ATOM      4  N   UNL     1      -1.170   1.738  23.032  0.00  0.00    -0.298 NA
ATOM      7  C   UNL     1      -1.174   3.637  24.635  0.00  0.00    +0.006 C 
ATOM      8  C   UNL     1      -2.716   3.739  24.559  0.00  0.00    +0.003 C 
ATOM      9  C   UNL     1      -3.190   3.151  23.222  0.00  0.00    +0.019 C 
ATOM     10  C   UNL     1      -0.681   2.209  24.336  0.00  0.00    +0.088 C 
ATOM     11  C   UNL     1      -2.637   1.747  22.969  0.00  0.00    +0.085 C 
ENDROOT
BRANCH   7  12
ATOM     12  C   UNL     1      -0.607   4.133  25.966  0.00  0.00    +0.002 C 
ATOM     15  C   UNL     1       0.072   3.013  26.727  0.00  0.00    +0.004 C 
ENDBRANCH   7  12
BRANCH   8  13
ATOM     13  C   UNL     1      -3.443   3.080  25.736  0.00  0.00    +0.100 C 
BRANCH  13  16
ATOM      1  O   UNL     1      -5.682   3.871  25.402  0.00  0.00    -0.276 OA
ATOM      5  N   UNL     1      -5.355   1.577  25.298  0.00  0.00    -0.304 N 
ATOM     16  C   UNL     1      -4.925   2.899  25.465  0.00  0.00    +0.216 C 
ATOM     21  C   UNL     1      -6.747   1.236  25.032  0.00  0.00    +0.132 C 
BRANCH   5  20
ATOM     20  C   UNL     1      -4.441   0.440  25.377  0.00  0.00    +0.122 C 
BRANCH  20  24
ATOM     24  C   UNL     1      -4.655  -0.558  24.245  0.00  0.00    +0.137 C 
BRANCH  24  26
ATOM      6  N   UNL     1      -2.988  -2.587  24.399  0.00  0.00    -0.197 NA
ATOM     26  C   UNL     1      -3.724  -1.692  24.332  0.00  0.00    +0.064 C 
ENDBRANCH  24  26
ENDBRANCH  20  24
ENDBRANCH   5  20
ENDBRANCH  13  16
ENDBRANCH   8  13
BRANCH   4  14
ATOM     14  C   UNL     1      -0.652   0.400  22.743  0.00  0.00    +0.123 C 
BRANCH  14  17
ATOM     17  C   UNL     1       0.848   0.378  22.691  0.00  0.00    +0.008 A 
ATOM     18  C   UNL     1       1.516  -0.239  21.634  0.00  0.00    +0.125 A 
ATOM     19  C   UNL     1       1.575   0.985  23.717  0.00  0.00    +0.012 A 
ATOM     22  C   UNL     1       2.911  -0.250  21.601  0.00  0.00    +0.091 A 
ATOM     23  C   UNL     1       2.969   0.973  23.684  0.00  0.00    +0.046 A 
ATOM     25  C   UNL     1       3.637   0.356  22.626  0.00  0.00    +0.124 A 
BRANCH  18   2
ATOM      2  O   UNL     1       0.822  -0.836  20.624  0.00  0.00    -0.506 OA
ATOM     28  H   UNL     1      -0.023  -1.168  20.974  0.00  0.00    +0.292 HD
ENDBRANCH  18   2
BRANCH  25   3
ATOM      3  O   UNL     1       4.998   0.345  22.594  0.00  0.00    -0.495 OA
ATOM     27  C   UNL     1       5.672  -0.028  23.795  0.00  0.00    +0.277 C 
ENDBRANCH  25   3
ENDBRANCH  14  17
ENDBRANCH   4  14
TORSDOF 10
ENDMDL
MODEL 6
REMARK VINA RESULT:      -0.6      1.306      2.285
REMARK  Name = 26742624
REMARK  13 active torsions:
REMARK  status: ('A' for Active; 'I' for Inactive)
REMARK    1  A    between atoms: O_2  and  C_18
REMARK    2  A    between atoms: O_3  and  C_25
REMARK    3  A    between atoms: O_3  and  C_27
REMARK    4  A    between atoms: N_4  and  C_14
REMARK    5  A    between atoms: N_5  and  C_20
REMARK    6  A    between atoms: N_5  and  C_21
REMARK    7  A    between atoms: C_7  and  C_12
REMARK    8  A    between atoms: C_8  and  C_13
REMARK    9  A    between atoms: C_12  and  C_15
REMARK   10  A    between atoms: C_13  and  C_16
REMARK   11  A    between atoms: C_14  and  C_17
REMARK   12  A    between atoms: C_20  and  C_24
REMARK   13  A    between atoms: C_24  and  C_26
REMARK                            x       y       z     vdW  Elec       q    Type
REMARK                         _______ _______ _______ _____ _____    ______ ____
ROOT
ATOM      4  N   UNL     1       0.465  -0.188  23.826  0.00  0.00    -0.298 NA
ATOM      7  C   UNL     1      -1.799  -0.687  24.722  0.00  0.00    +0.006 C 
ATOM      8  C   UNL     1      -1.891   0.717  25.362  0.00  0.00    +0.003 C 
ATOM      9  C   UNL     1      -0.470   1.247  25.610  0.00  0.00    +0.019 C 
ATOM     10  C   UNL     1      -0.873  -0.695  23.491  0.00  0.00    +0.088 C 
ATOM     11  C   UNL     1       0.407   1.179  24.358  0.00  0.00    +0.085 C 
ENDROOT
BRANCH   7  12
ATOM     12  C   UNL     1      -3.167  -1.273  24.369  0.00  0.00    +0.002 C 
ATOM     15  C   UNL     1      -3.305  -2.694  24.878  0.00  0.00    +0.004 C 
ENDBRANCH   7  12
BRANCH   8  13
ATOM     13  C   UNL     1      -2.715   1.721  24.548  0.00  0.00    +0.100 C 
BRANCH  13  16
ATOM      1  O   UNL     1      -1.108   3.172  23.519  0.00  0.00    -0.276 OA
ATOM      5  N   UNL     1      -2.401   4.078  25.218  0.00  0.00    -0.304 N 
ATOM     16  C   UNL     1      -1.994   3.044  24.368  0.00  0.00    +0.216 C 
ATOM     21  C   UNL     1      -1.806   5.409  25.171  0.00  0.00    +0.132 C 
BRANCH   5  20
ATOM     20  C   UNL     1      -3.453   3.904  26.217  0.00  0.00    +0.122 C 
BRANCH  20  24
ATOM     24  C   UNL     1      -4.849   3.977  25.610  0.00  0.00    +0.137 C 
BRANCH  24  26
ATOM      6  N   UNL     1      -6.227   1.781  26.054  0.00  0.00    -0.197 NA
ATOM     26  C   UNL     1      -5.619   2.749  25.858  0.00  0.00    +0.064 C 
ENDBRANCH  24  26
ENDBRANCH  20  24
ENDBRANCH   5  20
ENDBRANCH  13  16
ENDBRANCH   8  13
BRANCH   4  14
ATOM     14  C   UNL     1       1.344  -0.248  22.658  0.00  0.00    +0.123 C 
BRANCH  14  17
ATOM     17  C   UNL     1       2.792  -0.301  23.047  0.00  0.00    +0.008 A 
ATOM     18  C   UNL     1       3.605   0.826  22.925  0.00  0.00    +0.125 A 
ATOM     19  C   UNL     1       3.324  -1.495  23.536  0.00  0.00    +0.012 A 
ATOM     22  C   UNL     1       4.950   0.760  23.291  0.00  0.00    +0.091 A 
ATOM     23  C   UNL     1       4.669  -1.561  23.901  0.00  0.00    +0.046 A 
ATOM     25  C   UNL     1       5.481  -0.433  23.779  0.00  0.00    +0.124 A 
BRANCH  18   2
ATOM      2  O   UNL     1       3.102   2.000  22.450  0.00  0.00    -0.506 OA
ATOM     28  H   UNL     1       2.136   2.000  22.563  0.00  0.00    +0.292 HD
ENDBRANCH  18   2
BRANCH  25   3
ATOM      3  O   UNL     1       6.793  -0.498  24.137  0.00  0.00    -0.495 OA
ATOM     27  C   UNL     1       7.756  -0.392  23.090  0.00  0.00    +0.277 C 
ENDBRANCH  25   3
ENDBRANCH  14  17
ENDBRANCH   4  14
TORSDOF 10
ENDMDL
MODEL 7
REMARK VINA RESULT:      -0.2      2.818      5.384
REMARK  Name = 26742624
REMARK  13 active torsions:
REMARK  status: ('A' for Active; 'I' for Inactive)
REMARK    1  A    between atoms: O_2  and  C_18
REMARK    2  A    between atoms: O_3  and  C_25
REMARK    3  A    between atoms: O_3  and  C_27
REMARK    4  A    between atoms: N_4  and  C_14
REMARK    5  A    between atoms: N_5  and  C_20
REMARK    6  A    between atoms: N_5  and  C_21
REMARK    7  A    between atoms: C_7  and  C_12
REMARK    8  A    between atoms: C_8  and  C_13
REMARK    9  A    between atoms: C_12  and  C_15
REMARK   10  A    between atoms: C_13  and  C_16
REMARK   11  A    between atoms: C_14  and  C_17
REMARK   12  A    between atoms: C_20  and  C_24
REMARK   13  A    between atoms: C_24  and  C_26
REMARK                            x       y       z     vdW  Elec       q    Type
REMARK                         _______ _______ _______ _____ _____    ______ ____
ROOT
ATOM      4  N   UNL     1      -4.900   0.197  25.085  0.00  0.00    -0.298 NA
ATOM      7  C   UNL     1      -4.609   2.324  23.833  0.00  0.00    +0.006 C 
ATOM      8  C   UNL     1      -5.196   3.135  25.012  0.00  0.00    +0.003 C 
ATOM      9  C   UNL     1      -6.103   2.218  25.846  0.00  0.00    +0.019 C 
ATOM     10  C   UNL     1      -3.955   1.014  24.311  0.00  0.00    +0.088 C 
ATOM     11  C   UNL     1      -5.405   0.920  26.258  0.00  0.00    +0.085 C 
ENDROOT
BRANCH   7  12
ATOM     12  C   UNL     1      -3.631   3.132  22.980  0.00  0.00    +0.002 C 
ATOM     15  C   UNL     1      -2.544   2.249  22.402  0.00  0.00    +0.004 C 
ENDBRANCH   7  12
BRANCH   8  13
ATOM     13  C   UNL     1      -4.138   3.808  25.894  0.00  0.00    +0.100 C 
BRANCH  13  16
ATOM      1  O   UNL     1      -3.533   5.479  24.284  0.00  0.00    -0.276 OA
ATOM      5  N   UNL     1      -1.797   4.327  25.302  0.00  0.00    -0.304 N 
ATOM     16  C   UNL     1      -3.147   4.621  25.081  0.00  0.00    +0.216 C 
ATOM     21  C   UNL     1      -0.722   5.019  24.600  0.00  0.00    +0.132 C 
BRANCH   5  20
ATOM     20  C   UNL     1      -1.361   3.305  26.252  0.00  0.00    +0.122 C 
BRANCH  20  24
ATOM     24  C   UNL     1       0.049   2.805  25.961  0.00  0.00    +0.137 C 
BRANCH  24  26
ATOM      6  N   UNL     1       1.474   2.563  28.159  0.00  0.00    -0.197 NA
ATOM     26  C   UNL     1       0.845   2.669  27.190  0.00  0.00    +0.064 C 
ENDBRANCH  24  26
ENDBRANCH  20  24
ENDBRANCH   5  20
ENDBRANCH  13  16
ENDBRANCH   8  13
BRANCH   4  14
ATOM     14  C   UNL     1      -4.277  -1.065  25.488  0.00  0.00    +0.123 C 
BRANCH  14  17
ATOM     17  C   UNL     1      -2.834  -1.134  25.079  0.00  0.00    +0.008 A 
ATOM     18  C   UNL     1      -2.350  -2.222  24.353  0.00  0.00    +0.125 A 
ATOM     19  C   UNL     1      -1.975  -0.094  25.435  0.00  0.00    +0.012 A 
ATOM     22  C   UNL     1      -1.006  -2.271  23.982  0.00  0.00    +0.091 A 
ATOM     23  C   UNL     1      -0.631  -0.143  25.064  0.00  0.00    +0.046 A 
ATOM     25  C   UNL     1      -0.147  -1.231  24.337  0.00  0.00    +0.124 A 
BRANCH  18   2
ATOM      2  O   UNL     1      -3.176  -3.246  23.998  0.00  0.00    -0.506 OA
ATOM     28  H   UNL     1      -2.734  -3.792  23.325  0.00  0.00    +0.292 HD
ENDBRANCH  18   2
BRANCH  25   3
ATOM      3  O   UNL     1       1.165  -1.278  23.975  0.00  0.00    -0.495 OA
ATOM     27  C   UNL     1       1.603  -0.331  23.002  0.00  0.00    +0.277 C 
ENDBRANCH  25   3
ENDBRANCH  14  17
ENDBRANCH   4  14
TORSDOF 10
ENDMDL
MODEL 8
REMARK VINA RESULT:       0.1      3.654      5.938
REMARK  Name = 26742624
REMARK  13 active torsions:
REMARK  status: ('A' for Active; 'I' for Inactive)
REMARK    1  A    between atoms: O_2  and  C_18
REMARK    2  A    between atoms: O_3  and  C_25
REMARK    3  A    between atoms: O_3  and  C_27
REMARK    4  A    between atoms: N_4  and  C_14
REMARK    5  A    between atoms: N_5  and  C_20
REMARK    6  A    between atoms: N_5  and  C_21
REMARK    7  A    between atoms: C_7  and  C_12
REMARK    8  A    between atoms: C_8  and  C_13
REMARK    9  A    between atoms: C_12  and  C_15
REMARK   10  A    between atoms: C_13  and  C_16
REMARK   11  A    between atoms: C_14  and  C_17
REMARK   12  A    between atoms: C_20  and  C_24
REMARK   13  A    between atoms: C_24  and  C_26
REMARK                            x       y       z     vdW  Elec       q    Type
REMARK                         _______ _______ _______ _____ _____    ______ ____
ROOT
ATOM      4  N   UNL     1      -0.284   1.659  25.662  0.00  0.00    -0.298 NA
ATOM      7  C   UNL     1      -0.852   4.012  25.097  0.00  0.00    +0.006 C 
ATOM      8  C   UNL     1      -1.095   3.632  23.618  0.00  0.00    +0.003 C 
ATOM      9  C   UNL     1      -0.296   2.361  23.291  0.00  0.00    +0.019 C 
ATOM     10  C   UNL     1      -1.101   2.821  26.041  0.00  0.00    +0.088 C 
ATOM     11  C   UNL     1      -0.562   1.229  24.286  0.00  0.00    +0.085 C 
ENDROOT
BRANCH   7  12
ATOM     12  C   UNL     1      -1.664   5.229  25.542  0.00  0.00    +0.002 C 
ATOM     15  C   UNL     1      -2.878   4.815  26.350  0.00  0.00    +0.004 C 
ENDBRANCH   7  12
BRANCH   8  13
ATOM     13  C   UNL     1      -2.574   3.458  23.253  0.00  0.00    +0.100 C 
BRANCH  13  16
ATOM      1  O   UNL     1      -2.477   1.801  21.523  0.00  0.00    -0.276 OA
ATOM      5  N   UNL     1      -3.578   1.212  23.477  0.00  0.00    -0.304 N 
ATOM     16  C   UNL     1      -2.861   2.091  22.658  0.00  0.00    +0.216 C 
ATOM     21  C   UNL     1      -3.933  -0.137  23.053  0.00  0.00    +0.132 C 
BRANCH   5  20
ATOM     20  C   UNL     1      -4.023   1.577  24.820  0.00  0.00    +0.122 C 
BRANCH  20  24
ATOM     24  C   UNL     1      -5.530   1.791  24.895  0.00  0.00    +0.137 C 
BRANCH  24  26
ATOM      6  N   UNL     1      -6.134   4.176  25.827  0.00  0.00    -0.197 NA
ATOM     26  C   UNL     1      -5.868   3.124  25.416  0.00  0.00    +0.064 C 
ENDBRANCH  24  26
ENDBRANCH  20  24
ENDBRANCH   5  20
ENDBRANCH  13  16
ENDBRANCH   8  13
BRANCH   4  14
ATOM     14  C   UNL     1      -0.496   0.555  26.598  0.00  0.00    +0.123 C 
BRANCH  14  17
ATOM     17  C   UNL     1      -1.297  -0.556  25.984  0.00  0.00    +0.008 A 
ATOM     18  C   UNL     1      -0.720  -1.425  25.059  0.00  0.00    +0.125 A 
ATOM     19  C   UNL     1      -2.635  -0.713  26.349  0.00  0.00    +0.012 A 
ATOM     22  C   UNL     1      -1.479  -2.452  24.498  0.00  0.00    +0.091 A 
ATOM     23  C   UNL     1      -3.394  -1.740  25.787  0.00  0.00    +0.046 A 
ATOM     25  C   UNL     1      -2.816  -2.610  24.862  0.00  0.00    +0.124 A 
BRANCH  18   2
ATOM      2  O   UNL     1       0.585  -1.285  24.692  0.00  0.00    -0.506 OA
ATOM     28  H   UNL     1       0.624  -0.967  23.774  0.00  0.00    +0.292 HD
ENDBRANCH  18   2
BRANCH  25   3
ATOM      3  O   UNL     1      -3.557  -3.612  24.315  0.00  0.00    -0.495 OA
ATOM     27  C   UNL     1      -4.673  -3.229  23.512  0.00  0.00    +0.277 C 
ENDBRANCH  25   3
ENDBRANCH  14  17
ENDBRANCH   4  14
TORSDOF 10
ENDMDL
MODEL 9
REMARK VINA RESULT:       0.2     14.564     17.328
REMARK  Name = 26742624
REMARK  13 active torsions:
REMARK  status: ('A' for Active; 'I' for Inactive)
REMARK    1  A    between atoms: O_2  and  C_18
REMARK    2  A    between atoms: O_3  and  C_25
REMARK    3  A    between atoms: O_3  and  C_27
REMARK    4  A    between atoms: N_4  and  C_14
REMARK    5  A    between atoms: N_5  and  C_20
REMARK    6  A    between atoms: N_5  and  C_21
REMARK    7  A    between atoms: C_7  and  C_12
REMARK    8  A    between atoms: C_8  and  C_13
REMARK    9  A    between atoms: C_12  and  C_15
REMARK   10  A    between atoms: C_13  and  C_16
REMARK   11  A    between atoms: C_14  and  C_17
REMARK   12  A    between atoms: C_20  and  C_24
REMARK   13  A    between atoms: C_24  and  C_26
REMARK                            x       y       z     vdW  Elec       q    Type
REMARK                         _______ _______ _______ _____ _____    ______ ____
ROOT
ATOM      4  N   UNL     1      -6.698  -9.999  13.910  0.00  0.00    -0.298 NA
ATOM      7  C   UNL     1      -4.365 -10.781  14.261  0.00  0.00    +0.006 C 
ATOM      8  C   UNL     1      -4.064 -10.660  12.749  0.00  0.00    +0.003 C 
ATOM      9  C   UNL     1      -5.381 -10.772  11.966  0.00  0.00    +0.019 C 
ATOM     10  C   UNL     1      -5.475  -9.808  14.702  0.00  0.00    +0.088 C 
ATOM     11  C   UNL     1      -6.451  -9.805  12.477  0.00  0.00    +0.085 C 
ENDROOT
BRANCH   7  12
ATOM     12  C   UNL     1      -3.122 -10.609  15.134  0.00  0.00    +0.002 C 
ATOM     15  C   UNL     1      -3.475 -10.642  16.608  0.00  0.00    +0.004 C 
ENDBRANCH   7  12
BRANCH   8  13
ATOM     13  C   UNL     1      -3.305  -9.384  12.365  0.00  0.00    +0.100 C 
BRANCH  13  16
ATOM      1  O   UNL     1      -2.583 -10.208  10.232  0.00  0.00    -0.276 OA
ATOM      5  N   UNL     1      -0.980  -9.179  11.556  0.00  0.00    -0.304 N 
ATOM     16  C   UNL     1      -2.274  -9.635  11.280  0.00  0.00    +0.216 C 
ATOM     21  C   UNL     1       0.123  -9.343  10.617  0.00  0.00    +0.132 C 
BRANCH   5  20
ATOM     20  C   UNL     1      -0.637  -8.502  12.805  0.00  0.00    +0.122 C 
BRANCH  20  24
ATOM     24  C   UNL     1      -0.138  -7.080  12.578  0.00  0.00    +0.137 C 
BRANCH  24  26
ATOM      6  N   UNL     1       2.429  -7.025  12.004  0.00  0.00    -0.197 NA
ATOM     26  C   UNL     1       1.296  -7.049  12.257  0.00  0.00    +0.064 C 
ENDBRANCH  24  26
ENDBRANCH  20  24
ENDBRANCH   5  20
ENDBRANCH  13  16
ENDBRANCH   8  13
BRANCH   4  14
ATOM     14  C   UNL     1      -7.756  -9.101  14.375  0.00  0.00    +0.123 C 
BRANCH  14  17
ATOM     17  C   UNL     1      -8.341  -9.551  15.682  0.00  0.00    +0.008 A 
ATOM     18  C   UNL     1      -9.610 -10.128  15.735  0.00  0.00    +0.125 A 
ATOM     19  C   UNL     1      -7.600  -9.387  16.853  0.00  0.00    +0.012 A 
ATOM     22  C   UNL     1     -10.139 -10.541  16.957  0.00  0.00    +0.091 A 
ATOM     23  C   UNL     1      -8.129  -9.800  18.076  0.00  0.00    +0.046 A 
ATOM     25  C   UNL     1      -9.399 -10.377  18.128  0.00  0.00    +0.124 A 
BRANCH  18   2
ATOM      2  O   UNL     1     -10.347 -10.295  14.600  0.00  0.00    -0.506 OA
ATOM     28  H   UNL     1     -11.290 -10.313  14.835  0.00  0.00    +0.292 HD
ENDBRANCH  18   2
BRANCH  25   3
ATOM      3  O   UNL     1      -9.915 -10.780  19.322  0.00  0.00    -0.495 OA
ATOM     27  C   UNL     1     -10.700  -9.831  20.042  0.00  0.00    +0.277 C 
ENDBRANCH  25   3
ENDBRANCH  14  17
ENDBRANCH   4  14
TORSDOF 10
ENDMDL
MODEL 10
REMARK VINA RESULT:       0.9      2.761      7.061
REMARK  Name = 26742624
REMARK  13 active torsions:
REMARK  status: ('A' for Active; 'I' for Inactive)
REMARK    1  A    between atoms: O_2  and  C_18
REMARK    2  A    between atoms: O_3  and  C_25
REMARK    3  A    between atoms: O_3  and  C_27
REMARK    4  A    between atoms: N_4  and  C_14
REMARK    5  A    between atoms: N_5  and  C_20
REMARK    6  A    between atoms: N_5  and  C_21
REMARK    7  A    between atoms: C_7  and  C_12
REMARK    8  A    between atoms: C_8  and  C_13
REMARK    9  A    between atoms: C_12  and  C_15
REMARK   10  A    between atoms: C_13  and  C_16
REMARK   11  A    between atoms: C_14  and  C_17
REMARK   12  A    between atoms: C_20  and  C_24
REMARK   13  A    between atoms: C_24  and  C_26
REMARK                            x       y       z     vdW  Elec       q    Type
REMARK                         _______ _______ _______ _____ _____    ______ ____
ROOT
ATOM      4  N   UNL     1      -4.399  -0.586  25.008  0.00  0.00    -0.298 NA
ATOM      7  C   UNL     1      -2.153  -1.228  25.858  0.00  0.00    +0.006 C 
ATOM      8  C   UNL     1      -1.970  -2.238  24.701  0.00  0.00    +0.003 C 
ATOM      9  C   UNL     1      -3.353  -2.673  24.193  0.00  0.00    +0.019 C 
ATOM     10  C   UNL     1      -3.098  -0.077  25.465  0.00  0.00    +0.088 C 
ATOM     11  C   UNL     1      -4.253  -1.483  23.855  0.00  0.00    +0.085 C 
ENDROOT
BRANCH   7  12
ATOM     12  C   UNL     1      -0.828  -0.678  26.387  0.00  0.00    +0.002 C 
ATOM     15  C   UNL     1      -0.880   0.828  26.545  0.00  0.00    +0.004 C 
ENDBRANCH   7  12
BRANCH   8  13
ATOM     13  C   UNL     1      -1.102  -1.718  23.550  0.00  0.00    +0.100 C 
BRANCH  13  16
ATOM      1  O   UNL     1      -2.105   0.458  23.451  0.00  0.00    -0.276 OA
ATOM      5  N   UNL     1       0.212   0.374  23.515  0.00  0.00    -0.304 N 
ATOM     16  C   UNL     1      -1.063  -0.202  23.500  0.00  0.00    +0.216 C 
ATOM     21  C   UNL     1       0.419   1.816  23.473  0.00  0.00    +0.132 C 
BRANCH   5  20
ATOM     20  C   UNL     1       1.433  -0.427  23.574  0.00  0.00    +0.122 C 
BRANCH  20  24
ATOM     24  C   UNL     1       2.399  -0.099  22.442  0.00  0.00    +0.137 C 
BRANCH  24  26
ATOM      6  N   UNL     1       4.719   0.745  23.350  0.00  0.00    -0.197 NA
ATOM     26  C   UNL     1       3.696   0.373  22.949  0.00  0.00    +0.064 C 
ENDBRANCH  24  26
ENDBRANCH  20  24
ENDBRANCH   5  20
ENDBRANCH  13  16
ENDBRANCH   8  13
BRANCH   4  14
ATOM     14  C   UNL     1      -5.299   0.522  24.687  0.00  0.00    +0.123 C 
BRANCH  14  17
ATOM     17  C   UNL     1      -4.615   1.853  24.801  0.00  0.00    +0.008 A 
ATOM     18  C   UNL     1      -4.985   2.764  25.789  0.00  0.00    +0.125 A 
ATOM     19  C   UNL     1      -3.597   2.175  23.901  0.00  0.00    +0.012 A 
ATOM     22  C   UNL     1      -4.339   3.997  25.881  0.00  0.00    +0.091 A 
ATOM     23  C   UNL     1      -2.951   3.408  23.992  0.00  0.00    +0.046 A 
ATOM     25  C   UNL     1      -3.322   4.318  24.982  0.00  0.00    +0.124 A 
BRANCH  18   2
ATOM      2  O   UNL     1      -5.977   2.466  26.675  0.00  0.00    -0.506 OA
ATOM     28  H   UNL     1      -6.063   3.195  27.313  0.00  0.00    +0.292 HD
ENDBRANCH  18   2
BRANCH  25   3
ATOM      3  O   UNL     1      -2.690   5.521  25.071  0.00  0.00    -0.495 OA
ATOM     27  C   UNL     1      -1.265   5.512  25.004  0.00  0.00    +0.277 C 
ENDBRANCH  25   3
ENDBRANCH  14  17
ENDBRANCH   4  14
TORSDOF 10
ENDMDL
