MODEL 1
REMARK VINA RESULT:       0.1      0.000      0.000
REMARK  Name = 11884162
REMARK  8 active torsions:
REMARK  status: ('A' for Active; 'I' for Inactive)
REMARK    1  A    between atoms: O_3  and  C_13
REMARK    2  A    between atoms: O_3  and  C_17
REMARK    3  A    between atoms: N_7  and  C_12
REMARK    4  A    between atoms: N_8  and  C_18
REMARK    5  A    between atoms: N_9  and  C_19
REMARK    6  A    between atoms: C_18  and  C_20
REMARK    7  A    between atoms: C_25  and  C_26
REMARK    8  A    between atoms: C_26  and  C_27
REMARK                            x       y       z     vdW  Elec       q    Type
REMARK                         _______ _______ _______ _____ _____    ______ ____
ROOT
ATOM      1  O   UNL     1      -3.464   1.823  25.864  0.00  0.00    -0.368 OA
ATOM      2  O   UNL     1      -6.127   3.113  25.057  0.00  0.00    -0.368 OA
ATOM     10  C   UNL     1      -5.333   2.085  24.428  0.00  0.00    +0.173 C 
ATOM     11  C   UNL     1      -3.881   2.459  24.643  0.00  0.00    +0.192 C 
ATOM     12  C   UNL     1      -5.487   0.781  25.174  0.00  0.00    +0.131 C 
ATOM     13  C   UNL     1      -3.947   3.960  24.789  0.00  0.00    +0.235 C 
ATOM     14  C   UNL     1      -4.507   0.950  26.323  0.00  0.00    +0.185 C 
ATOM     15  C   UNL     1      -5.254   4.151  25.526  0.00  0.00    +0.207 C 
ENDROOT
BRANCH  12   7
ATOM      4  O   UNL     1      -3.532  -1.261  25.755  0.00  0.00    -0.253 OA
ATOM      7  N   UNL     1      -5.131  -0.343  24.343  0.00  0.00    -0.292 N 
ATOM      8  N   UNL     1      -4.026  -2.264  23.721  0.00  0.00    -0.300 N 
ATOM     16  C   UNL     1      -4.171  -1.287  24.703  0.00  0.00    +0.300 C 
ATOM     28  H   UNL     1      -5.650  -0.493  23.483  0.00  0.00    +0.151 HD
ATOM     29  H   UNL     1      -4.604  -2.208  22.888  0.00  0.00    +0.150 HD
BRANCH   8  18
ATOM     18  C   UNL     1      -3.096  -3.361  23.840  0.00  0.00    +0.102 C 
ATOM     20  C   UNL     1      -1.695  -2.871  24.144  0.00  0.00    +0.024 C 
ENDBRANCH   8  18
ENDBRANCH  12   7
BRANCH  13   3
ATOM      3  O   UNL     1      -2.856   4.507  25.495  0.00  0.00    -0.442 OA
BRANCH   3  17
ATOM      5  O   UNL     1      -0.684   5.002  24.976  0.00  0.00    -0.226 OA
ATOM      9  N   UNL     1      -1.555   2.849  24.690  0.00  0.00    -0.251 N 
ATOM     17  C   UNL     1      -1.594   4.185  25.039  0.00  0.00    +0.405 C 
ATOM     30  H   UNL     1      -2.419   2.326  24.814  0.00  0.00    +0.158 HD
BRANCH   9  19
ATOM     19  C   UNL     1      -0.462   2.113  24.179  0.00  0.00    +0.036 A 
ATOM     21  C   UNL     1      -0.622   0.770  23.839  0.00  0.00    +0.024 A 
ATOM     22  C   UNL     1       0.779   2.731  24.018  0.00  0.00    +0.024 A 
ATOM     23  C   UNL     1       0.457   0.044  23.337  0.00  0.00    +0.013 A 
ATOM     24  C   UNL     1       1.858   2.004  23.516  0.00  0.00    +0.013 A 
ATOM     25  C   UNL     1       1.698   0.662  23.175  0.00  0.00    +0.017 A 
BRANCH  25  26
ATOM      6  O   UNL     1       3.160  -0.014  21.453  0.00  0.00    -0.292 OA
ATOM     26  C   UNL     1       2.823  -0.096  22.651  0.00  0.00    +0.160 C 
ATOM     27  C   UNL     1       3.624  -1.016  23.566  0.00  0.00    +0.091 C 
ENDBRANCH  25  26
ENDBRANCH   9  19
ENDBRANCH   3  17
ENDBRANCH  13   3
TORSDOF 6
ENDMDL
MODEL 2
REMARK VINA RESULT:       0.2      2.296      4.885
REMARK  Name = 11884162
REMARK  8 active torsions:
REMARK  status: ('A' for Active; 'I' for Inactive)
REMARK    1  A    between atoms: O_3  and  C_13
REMARK    2  A    between atoms: O_3  and  C_17
REMARK    3  A    between atoms: N_7  and  C_12
REMARK    4  A    between atoms: N_8  and  C_18
REMARK    5  A    between atoms: N_9  and  C_19
REMARK    6  A    between atoms: C_18  and  C_20
REMARK    7  A    between atoms: C_25  and  C_26
REMARK    8  A    between atoms: C_26  and  C_27
REMARK                            x       y       z     vdW  Elec       q    Type
REMARK                         _______ _______ _______ _____ _____    ______ ____
ROOT
ATOM      1  O   UNL     1      -2.398   0.480  23.595  0.00  0.00    -0.368 OA
ATOM      2  O   UNL     1      -5.049  -0.748  24.531  0.00  0.00    -0.368 OA
ATOM     10  C   UNL     1      -4.229   0.300  25.092  0.00  0.00    +0.173 C 
ATOM     11  C   UNL     1      -2.786  -0.097  24.854  0.00  0.00    +0.192 C 
ATOM     12  C   UNL     1      -4.392   1.571  24.293  0.00  0.00    +0.131 C 
ATOM     13  C   UNL     1      -2.869  -1.602  24.777  0.00  0.00    +0.235 C 
ATOM     14  C   UNL     1      -3.446   1.342  23.126  0.00  0.00    +0.185 C 
ATOM     15  C   UNL     1      -4.198  -1.813  24.085  0.00  0.00    +0.207 C 
ENDROOT
BRANCH  12   7
ATOM      4  O   UNL     1      -2.315   3.470  23.654  0.00  0.00    -0.253 OA
ATOM      7  N   UNL     1      -4.005   2.728  25.063  0.00  0.00    -0.292 N 
ATOM      8  N   UNL     1      -2.821   4.626  25.601  0.00  0.00    -0.300 N 
ATOM     16  C   UNL     1      -2.985   3.596  24.678  0.00  0.00    +0.300 C 
ATOM     28  H   UNL     1      -4.542   2.959  25.892  0.00  0.00    +0.151 HD
ATOM     29  H   UNL     1      -3.427   4.654  26.415  0.00  0.00    +0.150 HD
BRANCH   8  18
ATOM     18  C   UNL     1      -1.830   5.665  25.445  0.00  0.00    +0.102 C 
ATOM     20  C   UNL     1      -0.542   5.121  24.864  0.00  0.00    +0.024 C 
ENDBRANCH   8  18
ENDBRANCH  12   7
BRANCH  13   3
ATOM      3  O   UNL     1      -1.802  -2.190  24.067  0.00  0.00    -0.442 OA
BRANCH   3  17
ATOM      5  O   UNL     1      -0.140  -2.067  25.633  0.00  0.00    -0.226 OA
ATOM      9  N   UNL     1       0.189  -1.341  23.433  0.00  0.00    -0.251 N 
ATOM     17  C   UNL     1      -0.526  -1.876  24.487  0.00  0.00    +0.405 C 
ATOM     30  H   UNL     1      -0.306  -1.262  22.548  0.00  0.00    +0.158 HD
BRANCH   9  19
ATOM     19  C   UNL     1       1.528  -0.888  23.430  0.00  0.00    +0.036 A 
ATOM     21  C   UNL     1       2.555  -1.744  23.829  0.00  0.00    +0.024 A 
ATOM     22  C   UNL     1       1.822   0.415  23.030  0.00  0.00    +0.024 A 
ATOM     23  C   UNL     1       3.875  -1.296  23.827  0.00  0.00    +0.013 A 
ATOM     24  C   UNL     1       3.143   0.863  23.029  0.00  0.00    +0.013 A 
ATOM     25  C   UNL     1       4.169   0.007  23.427  0.00  0.00    +0.017 A 
BRANCH  25  26
ATOM      6  O   UNL     1       5.849   1.612  23.835  0.00  0.00    -0.292 OA
ATOM     26  C   UNL     1       5.547   0.473  23.425  0.00  0.00    +0.160 C 
ATOM     27  C   UNL     1       6.664  -0.432  22.917  0.00  0.00    +0.091 C 
ENDBRANCH  25  26
ENDBRANCH   9  19
ENDBRANCH   3  17
ENDBRANCH  13   3
TORSDOF 6
ENDMDL
MODEL 3
REMARK VINA RESULT:       0.2      1.741      4.442
REMARK  Name = 11884162
REMARK  8 active torsions:
REMARK  status: ('A' for Active; 'I' for Inactive)
REMARK    1  A    between atoms: O_3  and  C_13
REMARK    2  A    between atoms: O_3  and  C_17
REMARK    3  A    between atoms: N_7  and  C_12
REMARK    4  A    between atoms: N_8  and  C_18
REMARK    5  A    between atoms: N_9  and  C_19
REMARK    6  A    between atoms: C_18  and  C_20
REMARK    7  A    between atoms: C_25  and  C_26
REMARK    8  A    between atoms: C_26  and  C_27
REMARK                            x       y       z     vdW  Elec       q    Type
REMARK                         _______ _______ _______ _____ _____    ______ ____
ROOT
ATOM      1  O   UNL     1      -3.628   1.602  23.617  0.00  0.00    -0.368 OA
ATOM      2  O   UNL     1      -5.877   1.449  25.697  0.00  0.00    -0.368 OA
ATOM     10  C   UNL     1      -4.642   2.196  25.676  0.00  0.00    +0.173 C 
ATOM     11  C   UNL     1      -3.603   1.308  25.024  0.00  0.00    +0.192 C 
ATOM     12  C   UNL     1      -4.761   3.370  24.733  0.00  0.00    +0.131 C 
ATOM     13  C   UNL     1      -4.126  -0.078  25.316  0.00  0.00    +0.235 C 
ATOM     14  C   UNL     1      -4.490   2.726  23.384  0.00  0.00    +0.185 C 
ATOM     15  C   UNL     1      -5.623   0.121  25.218  0.00  0.00    +0.207 C 
ENDROOT
BRANCH  12   7
ATOM      4  O   UNL     1      -1.927   3.268  24.200  0.00  0.00    -0.253 OA
ATOM      7  N   UNL     1      -3.783   4.386  25.035  0.00  0.00    -0.292 N 
ATOM      8  N   UNL     1      -1.710   5.380  25.137  0.00  0.00    -0.300 N 
ATOM     16  C   UNL     1      -2.427   4.254  24.741  0.00  0.00    +0.300 C 
ATOM     28  H   UNL     1      -4.105   5.268  25.421  0.00  0.00    +0.151 HD
ATOM     29  H   UNL     1      -2.211   6.151  25.569  0.00  0.00    +0.150 HD
BRANCH   8  18
ATOM     18  C   UNL     1      -0.284   5.505  24.951  0.00  0.00    +0.102 C 
ATOM     20  C   UNL     1       0.156   4.927  23.621  0.00  0.00    +0.024 C 
ENDBRANCH   8  18
ENDBRANCH  12   7
BRANCH  13   3
ATOM      3  O   UNL     1      -3.661  -1.057  24.415  0.00  0.00    -0.442 OA
BRANCH   3  17
ATOM      5  O   UNL     1      -1.752  -2.276  24.730  0.00  0.00    -0.226 OA
ATOM      9  N   UNL     1      -1.699  -0.126  23.807  0.00  0.00    -0.251 N 
ATOM     17  C   UNL     1      -2.296  -1.247  24.350  0.00  0.00    +0.405 C 
ATOM     30  H   UNL     1      -2.322   0.636  23.550  0.00  0.00    +0.158 HD
BRANCH   9  19
ATOM     19  C   UNL     1      -0.324   0.098  23.565  0.00  0.00    +0.036 A 
ATOM     21  C   UNL     1       0.339   1.137  24.218  0.00  0.00    +0.024 A 
ATOM     22  C   UNL     1       0.368  -0.720  22.671  0.00  0.00    +0.024 A 
ATOM     23  C   UNL     1       1.695   1.358  23.978  0.00  0.00    +0.013 A 
ATOM     24  C   UNL     1       1.724  -0.498  22.431  0.00  0.00    +0.013 A 
ATOM     25  C   UNL     1       2.387   0.540  23.084  0.00  0.00    +0.017 A 
BRANCH  25  26
ATOM      6  O   UNL     1       4.186   1.631  22.018  0.00  0.00    -0.292 OA
ATOM     26  C   UNL     1       3.801   0.771  22.835  0.00  0.00    +0.160 C 
ATOM     27  C   UNL     1       4.856  -0.043  23.577  0.00  0.00    +0.091 C 
ENDBRANCH  25  26
ENDBRANCH   9  19
ENDBRANCH   3  17
ENDBRANCH  13   3
TORSDOF 6
ENDMDL
MODEL 4
REMARK VINA RESULT:       0.9      2.078      5.381
REMARK  Name = 11884162
REMARK  8 active torsions:
REMARK  status: ('A' for Active; 'I' for Inactive)
REMARK    1  A    between atoms: O_3  and  C_13
REMARK    2  A    between atoms: O_3  and  C_17
REMARK    3  A    between atoms: N_7  and  C_12
REMARK    4  A    between atoms: N_8  and  C_18
REMARK    5  A    between atoms: N_9  and  C_19
REMARK    6  A    between atoms: C_18  and  C_20
REMARK    7  A    between atoms: C_25  and  C_26
REMARK    8  A    between atoms: C_26  and  C_27
REMARK                            x       y       z     vdW  Elec       q    Type
REMARK                         _______ _______ _______ _____ _____    ______ ____
ROOT
ATOM      1  O   UNL     1      -2.289  -0.557  24.011  0.00  0.00    -0.368 OA
ATOM      2  O   UNL     1      -3.530  -3.328  24.452  0.00  0.00    -0.368 OA
ATOM     10  C   UNL     1      -3.761  -2.061  25.105  0.00  0.00    +0.173 C 
ATOM     11  C   UNL     1      -2.420  -1.363  25.195  0.00  0.00    +0.192 C 
ATOM     12  C   UNL     1      -4.581  -1.158  24.214  0.00  0.00    +0.131 C 
ATOM     13  C   UNL     1      -1.448  -2.519  25.194  0.00  0.00    +0.235 C 
ATOM     14  C   UNL     1      -3.528  -0.581  23.284  0.00  0.00    +0.185 C 
ATOM     15  C   UNL     1      -2.119  -3.498  24.257  0.00  0.00    +0.207 C 
ENDROOT
BRANCH  12   7
ATOM      4  O   UNL     1      -4.198   1.690  23.958  0.00  0.00    -0.253 OA
ATOM      7  N   UNL     1      -5.233  -0.122  24.976  0.00  0.00    -0.292 N 
ATOM      8  N   UNL     1      -5.751   2.016  25.651  0.00  0.00    -0.300 N 
ATOM     16  C   UNL     1      -4.987   1.237  24.785  0.00  0.00    +0.300 C 
ATOM     28  H   UNL     1      -5.954  -0.389  25.639  0.00  0.00    +0.151 HD
ATOM     29  H   UNL     1      -6.384   1.553  26.296  0.00  0.00    +0.150 HD
BRANCH   8  18
ATOM     18  C   UNL     1      -5.689   3.459  25.665  0.00  0.00    +0.102 C 
ATOM     20  C   UNL     1      -4.308   3.952  26.045  0.00  0.00    +0.024 C 
ENDBRANCH   8  18
ENDBRANCH  12   7
BRANCH  13   3
ATOM      3  O   UNL     1      -0.155  -2.168  24.757  0.00  0.00    -0.442 OA
BRANCH   3  17
ATOM      5  O   UNL     1       0.613  -0.617  23.262  0.00  0.00    -0.226 OA
ATOM      9  N   UNL     1      -0.566   0.009  25.184  0.00  0.00    -0.251 N 
ATOM     17  C   UNL     1       0.020  -0.877  24.301  0.00  0.00    +0.405 C 
ATOM     30  H   UNL     1      -1.016  -0.401  25.999  0.00  0.00    +0.158 HD
BRANCH   9  19
ATOM     19  C   UNL     1      -0.617   1.418  25.098  0.00  0.00    +0.036 A 
ATOM     21  C   UNL     1      -0.438   2.194  26.244  0.00  0.00    +0.024 A 
ATOM     22  C   UNL     1      -0.850   2.034  23.868  0.00  0.00    +0.024 A 
ATOM     23  C   UNL     1      -0.491   3.585  26.159  0.00  0.00    +0.013 A 
ATOM     24  C   UNL     1      -0.903   3.425  23.784  0.00  0.00    +0.013 A 
ATOM     25  C   UNL     1      -0.723   4.200  24.928  0.00  0.00    +0.017 A 
BRANCH  25  26
ATOM      6  O   UNL     1       0.249   6.328  24.630  0.00  0.00    -0.292 OA
ATOM     26  C   UNL     1      -0.777   5.651  24.840  0.00  0.00    +0.160 C 
ATOM     27  C   UNL     1      -2.105   6.383  25.004  0.00  0.00    +0.091 C 
ENDBRANCH  25  26
ENDBRANCH   9  19
ENDBRANCH   3  17
ENDBRANCH  13   3
TORSDOF 6
ENDMDL
MODEL 5
REMARK VINA RESULT:       1.2      2.248      7.126
REMARK  Name = 11884162
REMARK  8 active torsions:
REMARK  status: ('A' for Active; 'I' for Inactive)
REMARK    1  A    between atoms: O_3  and  C_13
REMARK    2  A    between atoms: O_3  and  C_17
REMARK    3  A    between atoms: N_7  and  C_12
REMARK    4  A    between atoms: N_8  and  C_18
REMARK    5  A    between atoms: N_9  and  C_19
REMARK    6  A    between atoms: C_18  and  C_20
REMARK    7  A    between atoms: C_25  and  C_26
REMARK    8  A    between atoms: C_26  and  C_27
REMARK                            x       y       z     vdW  Elec       q    Type
REMARK                         _______ _______ _______ _____ _____    ______ ____
ROOT
ATOM      1  O   UNL     1      -1.890  -1.106  23.481  0.00  0.00    -0.368 OA
ATOM      2  O   UNL     1      -1.211  -1.225  26.470  0.00  0.00    -0.368 OA
ATOM     10  C   UNL     1      -0.447  -1.588  25.300  0.00  0.00    +0.173 C 
ATOM     11  C   UNL     1      -1.422  -2.186  24.307  0.00  0.00    +0.192 C 
ATOM     12  C   UNL     1       0.063  -0.347  24.606  0.00  0.00    +0.131 C 
ATOM     13  C   UNL     1      -2.515  -2.719  25.202  0.00  0.00    +0.235 C 
ATOM     14  C   UNL     1      -1.143   0.081  23.787  0.00  0.00    +0.185 C 
ATOM     15  C   UNL     1      -2.561  -1.681  26.301  0.00  0.00    +0.207 C 
ENDROOT
BRANCH  12   7
ATOM      4  O   UNL     1       2.170   1.460  23.815  0.00  0.00    -0.253 OA
ATOM      7  N   UNL     1       1.192  -0.646  23.760  0.00  0.00    -0.292 N 
ATOM      8  N   UNL     1       3.142  -0.262  22.601  0.00  0.00    -0.300 N 
ATOM     16  C   UNL     1       2.168   0.292  23.428  0.00  0.00    +0.300 C 
ATOM     28  H   UNL     1       1.319  -1.602  23.443  0.00  0.00    +0.151 HD
ATOM     29  H   UNL     1       3.063  -1.240  22.339  0.00  0.00    +0.150 HD
BRANCH   8  18
ATOM     18  C   UNL     1       4.270   0.493  22.106  0.00  0.00    +0.102 C 
ATOM     20  C   UNL     1       5.451   0.409  23.051  0.00  0.00    +0.024 C 
ENDBRANCH   8  18
ENDBRANCH  12   7
BRANCH  13   3
ATOM      3  O   UNL     1      -3.759  -2.857  24.552  0.00  0.00    -0.442 OA
BRANCH   3  17
ATOM      5  O   UNL     1      -5.265  -1.633  23.341  0.00  0.00    -0.226 OA
ATOM      9  N   UNL     1      -4.006  -0.675  25.066  0.00  0.00    -0.251 N 
ATOM     17  C   UNL     1      -4.429  -1.694  24.235  0.00  0.00    +0.405 C 
ATOM     30  H   UNL     1      -3.298  -0.921  25.754  0.00  0.00    +0.158 HD
BRANCH   9  19
ATOM     19  C   UNL     1      -4.434   0.672  25.081  0.00  0.00    +0.036 A 
ATOM     21  C   UNL     1      -3.730   1.636  24.359  0.00  0.00    +0.024 A 
ATOM     22  C   UNL     1      -5.559   1.037  25.820  0.00  0.00    +0.024 A 
ATOM     23  C   UNL     1      -4.152   2.965  24.375  0.00  0.00    +0.013 A 
ATOM     24  C   UNL     1      -5.980   2.367  25.836  0.00  0.00    +0.013 A 
ATOM     25  C   UNL     1      -5.277   3.330  25.114  0.00  0.00    +0.017 A 
BRANCH  25  26
ATOM      6  O   UNL     1      -6.634   5.099  25.881  0.00  0.00    -0.292 OA
ATOM     26  C   UNL     1      -5.717   4.716  25.129  0.00  0.00    +0.160 C 
ATOM     27  C   UNL     1      -5.055   5.743  24.215  0.00  0.00    +0.091 C 
ENDBRANCH  25  26
ENDBRANCH   9  19
ENDBRANCH   3  17
ENDBRANCH  13   3
TORSDOF 6
ENDMDL
MODEL 6
REMARK VINA RESULT:       1.7      2.118      5.013
REMARK  Name = 11884162
REMARK  8 active torsions:
REMARK  status: ('A' for Active; 'I' for Inactive)
REMARK    1  A    between atoms: O_3  and  C_13
REMARK    2  A    between atoms: O_3  and  C_17
REMARK    3  A    between atoms: N_7  and  C_12
REMARK    4  A    between atoms: N_8  and  C_18
REMARK    5  A    between atoms: N_9  and  C_19
REMARK    6  A    between atoms: C_18  and  C_20
REMARK    7  A    between atoms: C_25  and  C_26
REMARK    8  A    between atoms: C_26  and  C_27
REMARK                            x       y       z     vdW  Elec       q    Type
REMARK                         _______ _______ _______ _____ _____    ______ ____
ROOT
ATOM      1  O   UNL     1      -3.291   3.214  24.238  0.00  0.00    -0.368 OA
ATOM      2  O   UNL     1      -2.464   5.476  26.137  0.00  0.00    -0.368 OA
ATOM     10  C   UNL     1      -1.896   4.171  25.900  0.00  0.00    +0.173 C 
ATOM     11  C   UNL     1      -3.054   3.225  25.656  0.00  0.00    +0.192 C 
ATOM     12  C   UNL     1      -1.140   4.162  24.592  0.00  0.00    +0.131 C 
ATOM     13  C   UNL     1      -4.183   3.891  26.406  0.00  0.00    +0.235 C 
ATOM     14  C   UNL     1      -2.252   3.953  23.579  0.00  0.00    +0.185 C 
ATOM     15  C   UNL     1      -3.893   5.359  26.181  0.00  0.00    +0.207 C 
ENDROOT
BRANCH  12   7
ATOM      4  O   UNL     1      -1.449   1.611  23.279  0.00  0.00    -0.253 OA
ATOM      7  N   UNL     1      -0.181   3.085  24.548  0.00  0.00    -0.292 N 
ATOM      8  N   UNL     1       0.676   1.021  24.002  0.00  0.00    -0.300 N 
ATOM     16  C   UNL     1      -0.414   1.881  23.887  0.00  0.00    +0.300 C 
ATOM     28  H   UNL     1       0.734   3.235  24.962  0.00  0.00    +0.151 HD
ATOM     29  H   UNL     1       1.493   1.334  24.516  0.00  0.00    +0.150 HD
BRANCH   8  18
ATOM     18  C   UNL     1       0.698  -0.296  23.410  0.00  0.00    +0.102 C 
ATOM     20  C   UNL     1      -0.100  -1.288  24.231  0.00  0.00    +0.024 C 
ENDBRANCH   8  18
ENDBRANCH  12   7
BRANCH  13   3
ATOM      3  O   UNL     1      -5.462   3.526  25.940  0.00  0.00    -0.442 OA
BRANCH   3  17
ATOM      5  O   UNL     1      -6.568   1.948  24.706  0.00  0.00    -0.226 OA
ATOM      9  N   UNL     1      -4.438   1.547  25.591  0.00  0.00    -0.251 N 
ATOM     17  C   UNL     1      -5.579   2.286  25.345  0.00  0.00    +0.405 C 
ATOM     30  H   UNL     1      -3.718   2.002  26.146  0.00  0.00    +0.158 HD
BRANCH   9  19
ATOM     19  C   UNL     1      -4.146   0.231  25.167  0.00  0.00    +0.036 A 
ATOM     21  C   UNL     1      -3.663  -0.706  26.081  0.00  0.00    +0.024 A 
ATOM     22  C   UNL     1      -4.337  -0.131  23.833  0.00  0.00    +0.024 A 
ATOM     23  C   UNL     1      -3.373  -2.004  25.662  0.00  0.00    +0.013 A 
ATOM     24  C   UNL     1      -4.046  -1.429  23.414  0.00  0.00    +0.013 A 
ATOM     25  C   UNL     1      -3.565  -2.365  24.328  0.00  0.00    +0.017 A 
BRANCH  25  26
ATOM      6  O   UNL     1      -4.090  -4.644  24.020  0.00  0.00    -0.292 OA
ATOM     26  C   UNL     1      -3.262  -3.719  23.892  0.00  0.00    +0.160 C 
ATOM     27  C   UNL     1      -1.912  -4.041  23.261  0.00  0.00    +0.091 C 
ENDBRANCH  25  26
ENDBRANCH   9  19
ENDBRANCH   3  17
ENDBRANCH  13   3
TORSDOF 6
ENDMDL
MODEL 7
REMARK VINA RESULT:       1.7      2.087      5.702
REMARK  Name = 11884162
REMARK  8 active torsions:
REMARK  status: ('A' for Active; 'I' for Inactive)
REMARK    1  A    between atoms: O_3  and  C_13
REMARK    2  A    between atoms: O_3  and  C_17
REMARK    3  A    between atoms: N_7  and  C_12
REMARK    4  A    between atoms: N_8  and  C_18
REMARK    5  A    between atoms: N_9  and  C_19
REMARK    6  A    between atoms: C_18  and  C_20
REMARK    7  A    between atoms: C_25  and  C_26
REMARK    8  A    between atoms: C_26  and  C_27
REMARK                            x       y       z     vdW  Elec       q    Type
REMARK                         _______ _______ _______ _____ _____    ______ ____
ROOT
ATOM      1  O   UNL     1      -2.725  -0.670  25.589  0.00  0.00    -0.368 OA
ATOM      2  O   UNL     1      -2.650  -3.492  24.390  0.00  0.00    -0.368 OA
ATOM     10  C   UNL     1      -1.803  -2.342  24.182  0.00  0.00    +0.173 C 
ATOM     11  C   UNL     1      -2.701  -1.123  24.224  0.00  0.00    +0.192 C 
ATOM     12  C   UNL     1      -0.881  -2.155  25.365  0.00  0.00    +0.131 C 
ATOM     13  C   UNL     1      -4.036  -1.684  23.797  0.00  0.00    +0.235 C 
ATOM     14  C   UNL     1      -1.773  -1.424  26.354  0.00  0.00    +0.185 C 
ATOM     15  C   UNL     1      -4.018  -3.060  24.425  0.00  0.00    +0.207 C 
ENDROOT
BRANCH  12   7
ATOM      4  O   UNL     1      -0.172  -1.193  22.738  0.00  0.00    -0.253 OA
ATOM      7  N   UNL     1       0.271  -1.363  25.011  0.00  0.00    -0.292 N 
ATOM      8  N   UNL     1       1.710  -0.190  23.652  0.00  0.00    -0.300 N 
ATOM     16  C   UNL     1       0.537  -0.939  23.711  0.00  0.00    +0.300 C 
ATOM     28  H   UNL     1       0.884  -1.042  25.754  0.00  0.00    +0.151 HD
ATOM     29  H   UNL     1       2.227  -0.023  24.510  0.00  0.00    +0.150 HD
BRANCH   8  18
ATOM     18  C   UNL     1       2.219   0.372  22.423  0.00  0.00    +0.102 C 
ATOM     20  C   UNL     1       3.655   0.830  22.576  0.00  0.00    +0.024 C 
ENDBRANCH   8  18
ENDBRANCH  12   7
BRANCH  13   3
ATOM      3  O   UNL     1      -5.135  -0.917  24.233  0.00  0.00    -0.442 OA
BRANCH   3  17
ATOM      5  O   UNL     1      -5.518   0.857  25.625  0.00  0.00    -0.226 OA
ATOM      9  N   UNL     1      -3.768   0.870  24.071  0.00  0.00    -0.251 N 
ATOM     17  C   UNL     1      -4.860   0.340  24.731  0.00  0.00    +0.405 C 
ATOM     30  H   UNL     1      -3.350   0.285  23.352  0.00  0.00    +0.158 HD
BRANCH   9  19
ATOM     19  C   UNL     1      -3.157   2.129  24.270  0.00  0.00    +0.036 A 
ATOM     21  C   UNL     1      -1.767   2.226  24.341  0.00  0.00    +0.024 A 
ATOM     22  C   UNL     1      -3.945   3.273  24.398  0.00  0.00    +0.024 A 
ATOM     23  C   UNL     1      -1.165   3.468  24.539  0.00  0.00    +0.013 A 
ATOM     24  C   UNL     1      -3.342   4.515  24.597  0.00  0.00    +0.013 A 
ATOM     25  C   UNL     1      -1.953   4.613  24.667  0.00  0.00    +0.017 A 
BRANCH  25  26
ATOM      6  O   UNL     1      -1.980   6.897  25.254  0.00  0.00    -0.292 OA
ATOM     26  C   UNL     1      -1.323   5.907  24.873  0.00  0.00    +0.160 C 
ATOM     27  C   UNL     1       0.171   6.085  24.624  0.00  0.00    +0.091 C 
ENDBRANCH  25  26
ENDBRANCH   9  19
ENDBRANCH   3  17
ENDBRANCH  13   3
TORSDOF 6
ENDMDL
MODEL 8
REMARK VINA RESULT:       2.5      2.233      5.069
REMARK  Name = 11884162
REMARK  8 active torsions:
REMARK  status: ('A' for Active; 'I' for Inactive)
REMARK    1  A    between atoms: O_3  and  C_13
REMARK    2  A    between atoms: O_3  and  C_17
REMARK    3  A    between atoms: N_7  and  C_12
REMARK    4  A    between atoms: N_8  and  C_18
REMARK    5  A    between atoms: N_9  and  C_19
REMARK    6  A    between atoms: C_18  and  C_20
REMARK    7  A    between atoms: C_25  and  C_26
REMARK    8  A    between atoms: C_26  and  C_27
REMARK                            x       y       z     vdW  Elec       q    Type
REMARK                         _______ _______ _______ _____ _____    ______ ____
ROOT
ATOM      1  O   UNL     1      -1.275   3.054  26.132  0.00  0.00    -0.368 OA
ATOM      2  O   UNL     1      -1.502   5.907  25.028  0.00  0.00    -0.368 OA
ATOM     10  C   UNL     1      -2.462   4.832  25.106  0.00  0.00    +0.173 C 
ATOM     11  C   UNL     1      -1.704   3.546  24.850  0.00  0.00    +0.192 C 
ATOM     12  C   UNL     1      -2.962   4.684  26.524  0.00  0.00    +0.131 C 
ATOM     13  C   UNL     1      -0.538   4.014  24.013  0.00  0.00    +0.235 C 
ATOM     14  C   UNL     1      -1.862   3.857  27.167  0.00  0.00    +0.185 C 
ATOM     15  C   UNL     1      -0.237   5.369  24.615  0.00  0.00    +0.207 C 
ENDROOT
BRANCH  12   7
ATOM      4  O   UNL     1      -4.315   3.405  24.319  0.00  0.00    -0.253 OA
ATOM      7  N   UNL     1      -4.228   3.993  26.563  0.00  0.00    -0.292 N 
ATOM      8  N   UNL     1      -6.028   2.804  25.764  0.00  0.00    -0.300 N 
ATOM     16  C   UNL     1      -4.811   3.401  25.445  0.00  0.00    +0.300 C 
ATOM     28  H   UNL     1      -4.687   3.876  27.461  0.00  0.00    +0.151 HD
ATOM     29  H   UNL     1      -6.355   2.843  26.725  0.00  0.00    +0.150 HD
BRANCH   8  18
ATOM     18  C   UNL     1      -6.844   2.119  24.789  0.00  0.00    +0.102 C 
ATOM     20  C   UNL     1      -6.341   0.713  24.534  0.00  0.00    +0.024 C 
ENDBRANCH   8  18
ENDBRANCH  12   7
BRANCH  13   3
ATOM      3  O   UNL     1       0.576   3.152  24.065  0.00  0.00    -0.442 OA
BRANCH   3  17
ATOM      5  O   UNL     1       1.183   0.979  23.688  0.00  0.00    -0.226 OA
ATOM      9  N   UNL     1      -1.007   1.559  24.276  0.00  0.00    -0.251 N 
ATOM     17  C   UNL     1       0.321   1.799  23.982  0.00  0.00    +0.405 C 
ATOM     30  H   UNL     1      -1.573   2.375  24.498  0.00  0.00    +0.158 HD
BRANCH   9  19
ATOM     19  C   UNL     1      -1.683   0.318  24.305  0.00  0.00    +0.036 A 
ATOM     21  C   UNL     1      -1.020  -0.827  24.751  0.00  0.00    +0.024 A 
ATOM     22  C   UNL     1      -3.011   0.237  23.886  0.00  0.00    +0.024 A 
ATOM     23  C   UNL     1      -1.686  -2.051  24.779  0.00  0.00    +0.013 A 
ATOM     24  C   UNL     1      -3.676  -0.989  23.914  0.00  0.00    +0.013 A 
ATOM     25  C   UNL     1      -3.014  -2.132  24.360  0.00  0.00    +0.017 A 
BRANCH  25  26
ATOM      6  O   UNL     1      -3.573  -4.202  25.343  0.00  0.00    -0.292 OA
ATOM     26  C   UNL     1      -3.708  -3.410  24.389  0.00  0.00    +0.160 C 
ATOM     27  C   UNL     1      -4.629  -3.812  23.242  0.00  0.00    +0.091 C 
ENDBRANCH  25  26
ENDBRANCH   9  19
ENDBRANCH   3  17
ENDBRANCH  13   3
TORSDOF 6
ENDMDL
MODEL 9
REMARK VINA RESULT:       2.6      1.917      5.782
REMARK  Name = 11884162
REMARK  8 active torsions:
REMARK  status: ('A' for Active; 'I' for Inactive)
REMARK    1  A    between atoms: O_3  and  C_13
REMARK    2  A    between atoms: O_3  and  C_17
REMARK    3  A    between atoms: N_7  and  C_12
REMARK    4  A    between atoms: N_8  and  C_18
REMARK    5  A    between atoms: N_9  and  C_19
REMARK    6  A    between atoms: C_18  and  C_20
REMARK    7  A    between atoms: C_25  and  C_26
REMARK    8  A    between atoms: C_26  and  C_27
REMARK                            x       y       z     vdW  Elec       q    Type
REMARK                         _______ _______ _______ _____ _____    ______ ____
ROOT
ATOM      1  O   UNL     1      -1.919   2.593  23.957  0.00  0.00    -0.368 OA
ATOM      2  O   UNL     1      -0.053   4.770  25.047  0.00  0.00    -0.368 OA
ATOM     10  C   UNL     1       0.022   3.330  25.104  0.00  0.00    +0.173 C 
ATOM     11  C   UNL     1      -1.395   2.823  25.276  0.00  0.00    +0.192 C 
ATOM     12  C   UNL     1       0.444   2.779  23.762  0.00  0.00    +0.131 C 
ATOM     13  C   UNL     1      -2.079   3.985  25.955  0.00  0.00    +0.235 C 
ATOM     14  C   UNL     1      -0.867   2.763  22.994  0.00  0.00    +0.185 C 
ATOM     15  C   UNL     1      -1.406   5.174  25.304  0.00  0.00    +0.207 C 
ENDROOT
BRANCH  12   7
ATOM      4  O   UNL     1       2.988   1.846  22.770  0.00  0.00    -0.253 OA
ATOM      7  N   UNL     1       0.993   1.451  23.890  0.00  0.00    -0.292 N 
ATOM      8  N   UNL     1       2.520  -0.252  23.644  0.00  0.00    -0.300 N 
ATOM     16  C   UNL     1       2.237   1.085  23.378  0.00  0.00    +0.300 C 
ATOM     28  H   UNL     1       0.479   0.766  24.435  0.00  0.00    +0.151 HD
ATOM     29  H   UNL     1       1.842  -0.803  24.162  0.00  0.00    +0.150 HD
BRANCH   8  18
ATOM     18  C   UNL     1       3.745  -0.891  23.223  0.00  0.00    +0.102 C 
ATOM     20  C   UNL     1       4.935  -0.381  24.010  0.00  0.00    +0.024 C 
ENDBRANCH   8  18
ENDBRANCH  12   7
BRANCH  13   3
ATOM      3  O   UNL     1      -3.477   4.002  25.772  0.00  0.00    -0.442 OA
BRANCH   3  17
ATOM      5  O   UNL     1      -5.068   2.933  24.524  0.00  0.00    -0.226 OA
ATOM      9  N   UNL     1      -3.280   1.773  25.491  0.00  0.00    -0.251 N 
ATOM     17  C   UNL     1      -4.043   2.885  25.193  0.00  0.00    +0.405 C 
ATOM     30  H   UNL     1      -2.456   1.933  26.064  0.00  0.00    +0.158 HD
BRANCH   9  19
ATOM     19  C   UNL     1      -3.503   0.433  25.097  0.00  0.00    +0.036 A 
ATOM     21  C   UNL     1      -3.177  -0.611  25.963  0.00  0.00    +0.024 A 
ATOM     22  C   UNL     1      -4.045   0.156  23.842  0.00  0.00    +0.024 A 
ATOM     23  C   UNL     1      -3.396  -1.932  25.574  0.00  0.00    +0.013 A 
ATOM     24  C   UNL     1      -4.263  -1.165  23.454  0.00  0.00    +0.013 A 
ATOM     25  C   UNL     1      -3.938  -2.209  24.319  0.00  0.00    +0.017 A 
BRANCH  25  26
ATOM      6  O   UNL     1      -3.702  -4.542  24.569  0.00  0.00    -0.292 OA
ATOM     26  C   UNL     1      -4.166  -3.587  23.915  0.00  0.00    +0.160 C 
ATOM     27  C   UNL     1      -4.989  -3.897  22.669  0.00  0.00    +0.091 C 
ENDBRANCH  25  26
ENDBRANCH   9  19
ENDBRANCH   3  17
ENDBRANCH  13   3
TORSDOF 6
ENDMDL
MODEL 10
REMARK VINA RESULT:       2.9      2.910      5.620
REMARK  Name = 11884162
REMARK  8 active torsions:
REMARK  status: ('A' for Active; 'I' for Inactive)
REMARK    1  A    between atoms: O_3  and  C_13
REMARK    2  A    between atoms: O_3  and  C_17
REMARK    3  A    between atoms: N_7  and  C_12
REMARK    4  A    between atoms: N_8  and  C_18
REMARK    5  A    between atoms: N_9  and  C_19
REMARK    6  A    between atoms: C_18  and  C_20
REMARK    7  A    between atoms: C_25  and  C_26
REMARK    8  A    between atoms: C_26  and  C_27
REMARK                            x       y       z     vdW  Elec       q    Type
REMARK                         _______ _______ _______ _____ _____    ______ ____
ROOT
ATOM      1  O   UNL     1      -2.882   2.464  25.919  0.00  0.00    -0.368 OA
ATOM      2  O   UNL     1      -2.942   4.763  23.890  0.00  0.00    -0.368 OA
ATOM     10  C   UNL     1      -2.176   4.574  25.098  0.00  0.00    +0.173 C 
ATOM     11  C   UNL     1      -3.085   3.877  26.090  0.00  0.00    +0.192 C 
ATOM     12  C   UNL     1      -1.067   3.576  24.860  0.00  0.00    +0.131 C 
ATOM     13  C   UNL     1      -4.458   4.304  25.632  0.00  0.00    +0.235 C 
ATOM     14  C   UNL     1      -1.790   2.249  25.012  0.00  0.00    +0.185 C 
ATOM     15  C   UNL     1      -4.294   4.344  24.128  0.00  0.00    +0.207 C 
ENDROOT
BRANCH  12   7
ATOM      4  O   UNL     1      -0.139   1.569  26.714  0.00  0.00    -0.253 OA
ATOM      7  N   UNL     1      -0.016   3.716  25.838  0.00  0.00    -0.292 N 
ATOM      8  N   UNL     1       1.406   3.093  27.536  0.00  0.00    -0.300 N 
ATOM     16  C   UNL     1       0.370   2.689  26.698  0.00  0.00    +0.300 C 
ATOM     28  H   UNL     1       0.513   4.582  25.859  0.00  0.00    +0.151 HD
ATOM     29  H   UNL     1       1.769   4.037  27.445  0.00  0.00    +0.150 HD
BRANCH   8  18
ATOM     18  C   UNL     1       1.995   2.223  28.526  0.00  0.00    +0.102 C 
ATOM     20  C   UNL     1       1.530   2.578  29.924  0.00  0.00    +0.024 C 
ENDBRANCH   8  18
ENDBRANCH  12   7
BRANCH  13   3
ATOM      3  O   UNL     1      -5.485   3.423  26.029  0.00  0.00    -0.442 OA
BRANCH   3  17
ATOM      5  O   UNL     1      -6.499   1.974  24.579  0.00  0.00    -0.226 OA
ATOM      9  N   UNL     1      -4.504   1.423  25.673  0.00  0.00    -0.251 N 
ATOM     17  C   UNL     1      -5.579   2.228  25.347  0.00  0.00    +0.405 C 
ATOM     30  H   UNL     1      -3.837   1.811  26.335  0.00  0.00    +0.158 HD
BRANCH   9  19
ATOM     19  C   UNL     1      -4.215   0.123  25.202  0.00  0.00    +0.036 A 
ATOM     21  C   UNL     1      -3.637  -0.817  26.056  0.00  0.00    +0.024 A 
ATOM     22  C   UNL     1      -4.506  -0.221  23.881  0.00  0.00    +0.024 A 
ATOM     23  C   UNL     1      -3.351  -2.099  25.590  0.00  0.00    +0.013 A 
ATOM     24  C   UNL     1      -4.219  -1.503  23.415  0.00  0.00    +0.013 A 
ATOM     25  C   UNL     1      -3.642  -2.442  24.269  0.00  0.00    +0.017 A 
BRANCH  25  26
ATOM      6  O   UNL     1      -4.206  -4.681  23.786  0.00  0.00    -0.292 OA
ATOM     26  C   UNL     1      -3.343  -3.781  23.784  0.00  0.00    +0.160 C 
ATOM     27  C   UNL     1      -1.952  -4.115  23.255  0.00  0.00    +0.091 C 
ENDBRANCH  25  26
ENDBRANCH   9  19
ENDBRANCH   3  17
ENDBRANCH  13   3
TORSDOF 6
ENDMDL
