MODEL 1
REMARK VINA RESULT:       6.2      0.000      0.000
REMARK  Name = 26762210
REMARK  5 active torsions:
REMARK  status: ('A' for Active; 'I' for Inactive)
REMARK    1  A    between atoms: N_7  and  C_12
REMARK    2  A    between atoms: N_9  and  C_27
REMARK    3  A    between atoms: C_11  and  C_16
REMARK    4  A    between atoms: C_16  and  C_18
REMARK    5  A    between atoms: C_18  and  C_19
REMARK                            x       y       z     vdW  Elec       q    Type
REMARK                         _______ _______ _______ _____ _____    ______ ____
ROOT
ATOM      2  O   UNL     1      -3.579   4.627  22.512  0.00  0.00    -0.274 OA
ATOM      5  N   UNL     1      -3.763   3.742  25.827  0.00  0.00    -0.285 NA
ATOM      6  N   UNL     1      -5.455   4.110  23.758  0.00  0.00    -0.313 N 
ATOM     10  C   UNL     1      -3.482   4.857  24.925  0.00  0.00    +0.145 C 
ATOM     11  C   UNL     1      -5.178   3.627  26.192  0.00  0.00    +0.075 C 
ATOM     12  C   UNL     1      -1.529   4.240  26.226  0.00  0.00    +0.090 C 
ATOM     13  C   UNL     1      -1.958   4.916  24.915  0.00  0.00    +0.052 C 
ATOM     14  C   UNL     1      -2.835   3.893  26.942  0.00  0.00    +0.107 C 
ATOM     15  C   UNL     1      -6.097   4.143  25.062  0.00  0.00    +0.123 C 
ATOM     17  C   UNL     1      -4.138   4.517  23.599  0.00  0.00    +0.230 C 
ATOM     35  H   UNL     1      -6.008   3.885  22.937  0.00  0.00    +0.149 HD
ENDROOT
BRANCH  12   7
ATOM      4  O   UNL     1      -0.303   3.499  23.743  0.00  0.00    -0.253 OA
ATOM      7  N   UNL     1      -0.731   3.063  25.972  0.00  0.00    -0.295 N 
ATOM      9  N   UNL     1       0.549   1.574  24.780  0.00  0.00    -0.269 N 
ATOM     20  C   UNL     1      -0.167   2.773  24.724  0.00  0.00    +0.304 C 
ATOM     36  H   UNL     1      -0.496   2.461  26.756  0.00  0.00    +0.151 HD
ATOM     37  H   UNL     1       0.563   1.093  25.677  0.00  0.00    +0.156 HD
BRANCH   9  27
ATOM      1 CL   UNL     1       5.076   0.449  22.634  0.00  0.00    -0.083 Cl
ATOM     27  C   UNL     1       1.262   0.939  23.736  0.00  0.00    +0.036 A 
ATOM     30  C   UNL     1       2.655   1.000  23.705  0.00  0.00    +0.043 A 
ATOM     31  C   UNL     1       0.571   0.251  22.740  0.00  0.00    +0.023 A 
ATOM     32  C   UNL     1       3.356   0.373  22.675  0.00  0.00    +0.043 A 
ATOM     33  C   UNL     1       1.273  -0.376  21.710  0.00  0.00    +0.003 A 
ATOM     34  C   UNL     1       2.666  -0.315  21.677  0.00  0.00    +0.020 A 
ENDBRANCH   9  27
ENDBRANCH  12   7
BRANCH  11  16
ATOM     16  C   UNL     1      -5.485   2.158  26.494  0.00  0.00    +0.029 C 
BRANCH  16  18
ATOM     18  C   UNL     1      -5.167   1.244  25.321  0.00  0.00    +0.098 C 
BRANCH  18  19
ATOM      3  O   UNL     1      -2.907   1.282  26.036  0.00  0.00    -0.275 OA
ATOM      8  N   UNL     1      -3.642  -0.616  24.894  0.00  0.00    -0.271 N 
ATOM     19  C   UNL     1      -3.787   0.644  25.457  0.00  0.00    +0.220 C 
ATOM     21  C   UNL     1      -4.700  -1.380  24.201  0.00  0.00    +0.118 C 
ATOM     22  C   UNL     1      -2.461  -1.388  24.887  0.00  0.00    +0.039 A 
ATOM     23  C   UNL     1      -4.095  -2.715  23.752  0.00  0.00    +0.056 C 
ATOM     24  C   UNL     1      -2.686  -2.601  24.236  0.00  0.00    -0.024 A 
ATOM     25  C   UNL     1      -1.212  -1.090  25.411  0.00  0.00    +0.024 A 
ATOM     26  C   UNL     1      -1.678  -3.542  24.095  0.00  0.00    +0.005 A 
ATOM     28  C   UNL     1      -0.189  -2.033  25.273  0.00  0.00    +0.002 A 
ATOM     29  C   UNL     1      -0.419  -3.251  24.619  0.00  0.00    +0.000 A 
ENDBRANCH  18  19
ENDBRANCH  16  18
ENDBRANCH  11  16
TORSDOF 5
ENDMDL
MODEL 2
REMARK VINA RESULT:       6.5      1.704      2.191
REMARK  Name = 26762210
REMARK  5 active torsions:
REMARK  status: ('A' for Active; 'I' for Inactive)
REMARK    1  A    between atoms: N_7  and  C_12
REMARK    2  A    between atoms: N_9  and  C_27
REMARK    3  A    between atoms: C_11  and  C_16
REMARK    4  A    between atoms: C_16  and  C_18
REMARK    5  A    between atoms: C_18  and  C_19
REMARK                            x       y       z     vdW  Elec       q    Type
REMARK                         _______ _______ _______ _____ _____    ______ ____
ROOT
ATOM      2  O   UNL     1      -0.350   5.685  24.608  0.00  0.00    -0.274 OA
ATOM      5  N   UNL     1      -2.771   3.339  25.267  0.00  0.00    -0.285 NA
ATOM      6  N   UNL     1      -2.595   5.745  24.063  0.00  0.00    -0.313 N 
ATOM     10  C   UNL     1      -1.904   4.335  25.892  0.00  0.00    +0.145 C 
ATOM     11  C   UNL     1      -4.063   3.877  24.831  0.00  0.00    +0.075 C 
ATOM     12  C   UNL     1      -1.380   2.090  26.647  0.00  0.00    +0.090 C 
ATOM     13  C   UNL     1      -0.776   3.491  26.477  0.00  0.00    +0.052 C 
ATOM     14  C   UNL     1      -2.839   2.228  26.212  0.00  0.00    +0.107 C 
ATOM     15  C   UNL     1      -3.948   5.367  24.435  0.00  0.00    +0.123 C 
ATOM     17  C   UNL     1      -1.502   5.305  24.796  0.00  0.00    +0.230 C 
ATOM     35  H   UNL     1      -2.453   6.423  23.320  0.00  0.00    +0.149 HD
ENDROOT
BRANCH  12   7
ATOM      4  O   UNL     1       0.773   2.598  24.825  0.00  0.00    -0.253 OA
ATOM      7  N   UNL     1      -0.676   1.115  25.847  0.00  0.00    -0.295 N 
ATOM      9  N   UNL     1       0.856   0.303  24.341  0.00  0.00    -0.269 N 
ATOM     20  C   UNL     1       0.369   1.448  24.978  0.00  0.00    +0.304 C 
ATOM     36  H   UNL     1      -0.889   0.132  25.986  0.00  0.00    +0.151 HD
ATOM     37  H   UNL     1       0.408  -0.579  24.582  0.00  0.00    +0.156 HD
BRANCH   9  27
ATOM      1 CL   UNL     1       5.899   0.438  23.379  0.00  0.00    -0.083 Cl
ATOM     27  C   UNL     1       1.904   0.215  23.395  0.00  0.00    +0.036 A 
ATOM     30  C   UNL     1       3.230   0.353  23.807  0.00  0.00    +0.043 A 
ATOM     31  C   UNL     1       1.611  -0.012  22.051  0.00  0.00    +0.023 A 
ATOM     32  C   UNL     1       4.262   0.266  22.872  0.00  0.00    +0.043 A 
ATOM     33  C   UNL     1       2.644  -0.099  21.117  0.00  0.00    +0.003 A 
ATOM     34  C   UNL     1       3.970   0.040  21.527  0.00  0.00    +0.020 A 
ENDBRANCH   9  27
ENDBRANCH  12   7
BRANCH  11  16
ATOM     16  C   UNL     1      -4.559   3.051  23.642  0.00  0.00    +0.029 C 
BRANCH  16  18
ATOM     18  C   UNL     1      -3.476   2.829  22.596  0.00  0.00    +0.098 C 
BRANCH  18  19
ATOM      3  O   UNL     1      -1.493   1.531  22.566  0.00  0.00    -0.275 OA
ATOM      8  N   UNL     1      -3.389   0.574  23.534  0.00  0.00    -0.271 N 
ATOM     19  C   UNL     1      -2.679   1.581  22.895  0.00  0.00    +0.220 C 
ATOM     21  C   UNL     1      -4.812   0.637  23.928  0.00  0.00    +0.118 C 
ATOM     22  C   UNL     1      -2.877  -0.682  23.920  0.00  0.00    +0.039 A 
ATOM     23  C   UNL     1      -5.168  -0.690  24.608  0.00  0.00    +0.056 C 
ATOM     24  C   UNL     1      -3.875  -1.435  24.540  0.00  0.00    -0.024 A 
ATOM     25  C   UNL     1      -1.600  -1.199  23.760  0.00  0.00    +0.024 A 
ATOM     26  C   UNL     1      -3.624  -2.714  25.013  0.00  0.00    +0.005 A 
ATOM     28  C   UNL     1      -1.338  -2.488  24.234  0.00  0.00    +0.002 A 
ATOM     29  C   UNL     1      -2.343  -3.241  24.857  0.00  0.00    +0.000 A 
ENDBRANCH  18  19
ENDBRANCH  16  18
ENDBRANCH  11  16
TORSDOF 5
ENDMDL
MODEL 3
REMARK VINA RESULT:       7.3     14.840     17.771
REMARK  Name = 26762210
REMARK  5 active torsions:
REMARK  status: ('A' for Active; 'I' for Inactive)
REMARK    1  A    between atoms: N_7  and  C_12
REMARK    2  A    between atoms: N_9  and  C_27
REMARK    3  A    between atoms: C_11  and  C_16
REMARK    4  A    between atoms: C_16  and  C_18
REMARK    5  A    between atoms: C_18  and  C_19
REMARK                            x       y       z     vdW  Elec       q    Type
REMARK                         _______ _______ _______ _____ _____    ______ ____
ROOT
ATOM      2  O   UNL     1      -5.993  -6.469  10.984  0.00  0.00    -0.274 OA
ATOM      5  N   UNL     1      -6.350  -9.542   9.491  0.00  0.00    -0.285 NA
ATOM      6  N   UNL     1      -4.664  -7.441   9.363  0.00  0.00    -0.313 N 
ATOM     10  C   UNL     1      -6.939  -8.208   9.583  0.00  0.00    +0.145 C 
ATOM     11  C   UNL     1      -5.333  -9.663   8.442  0.00  0.00    +0.075 C 
ATOM     12  C   UNL     1      -8.440  -9.912  10.437  0.00  0.00    +0.090 C 
ATOM     13  C   UNL     1      -8.114  -8.415  10.533  0.00  0.00    +0.052 C 
ATOM     14  C   UNL     1      -7.476 -10.464   9.385  0.00  0.00    +0.107 C 
ATOM     15  C   UNL     1      -4.601  -8.322   8.209  0.00  0.00    +0.123 C 
ATOM     17  C   UNL     1      -5.842  -7.284  10.080  0.00  0.00    +0.230 C 
ATOM     35  H   UNL     1      -3.866  -6.853   9.585  0.00  0.00    +0.149 HD
ENDROOT
BRANCH  12   7
ATOM      4  O   UNL     1      -8.352  -8.661  13.014  0.00  0.00    -0.253 OA
ATOM      7  N   UNL     1      -8.271 -10.569  11.712  0.00  0.00    -0.295 N 
ATOM      9  N   UNL     1      -8.063 -10.775  13.990  0.00  0.00    -0.269 N 
ATOM     20  C   UNL     1      -8.238  -9.881  12.930  0.00  0.00    +0.304 C 
ATOM     36  H   UNL     1      -8.262 -11.584  11.734  0.00  0.00    +0.151 HD
ATOM     37  H   UNL     1      -7.986 -11.760  13.747  0.00  0.00    +0.156 HD
BRANCH   9  27
ATOM      1 CL   UNL     1      -5.267 -10.775  18.297  0.00  0.00    -0.083 Cl
ATOM     27  C   UNL     1      -7.979 -10.480  15.371  0.00  0.00    +0.036 A 
ATOM     30  C   UNL     1      -6.801 -10.742  16.070  0.00  0.00    +0.043 A 
ATOM     31  C   UNL     1      -9.075  -9.925  16.032  0.00  0.00    +0.023 A 
ATOM     32  C   UNL     1      -6.720 -10.450  17.432  0.00  0.00    +0.043 A 
ATOM     33  C   UNL     1      -8.993  -9.633  17.393  0.00  0.00    +0.003 A 
ATOM     34  C   UNL     1      -7.815  -9.896  18.094  0.00  0.00    +0.020 A 
ENDBRANCH   9  27
ENDBRANCH  12   7
BRANCH  11  16
ATOM     16  C   UNL     1      -4.334 -10.746   8.855  0.00  0.00    +0.029 C 
BRANCH  16  18
ATOM     18  C   UNL     1      -3.852 -10.578  10.288  0.00  0.00    +0.098 C 
BRANCH  18  19
ATOM      3  O   UNL     1      -2.247  -9.123   9.327  0.00  0.00    -0.275 OA
ATOM      8  N   UNL     1      -2.061  -9.571  11.610  0.00  0.00    -0.271 N 
ATOM     19  C   UNL     1      -2.639  -9.681  10.353  0.00  0.00    +0.220 C 
ATOM     21  C   UNL     1      -2.534 -10.241  12.839  0.00  0.00    +0.118 C 
ATOM     22  C   UNL     1      -0.926  -8.799  11.934  0.00  0.00    +0.039 A 
ATOM     23  C   UNL     1      -1.604  -9.827  13.985  0.00  0.00    +0.056 C 
ATOM     24  C   UNL     1      -0.634  -8.926  13.293  0.00  0.00    -0.024 A 
ATOM     25  C   UNL     1      -0.140  -8.002  11.115  0.00  0.00    +0.024 A 
ATOM     26  C   UNL     1       0.441  -8.263  13.865  0.00  0.00    +0.005 A 
ATOM     28  C   UNL     1       0.947  -7.331  11.683  0.00  0.00    +0.002 A 
ATOM     29  C   UNL     1       1.237  -7.459  13.048  0.00  0.00    +0.000 A 
ENDBRANCH  18  19
ENDBRANCH  16  18
ENDBRANCH  11  16
TORSDOF 5
ENDMDL
MODEL 4
REMARK VINA RESULT:       7.5      1.056      1.666
REMARK  Name = 26762210
REMARK  5 active torsions:
REMARK  status: ('A' for Active; 'I' for Inactive)
REMARK    1  A    between atoms: N_7  and  C_12
REMARK    2  A    between atoms: N_9  and  C_27
REMARK    3  A    between atoms: C_11  and  C_16
REMARK    4  A    between atoms: C_16  and  C_18
REMARK    5  A    between atoms: C_18  and  C_19
REMARK                            x       y       z     vdW  Elec       q    Type
REMARK                         _______ _______ _______ _____ _____    ______ ____
ROOT
ATOM      2  O   UNL     1      -3.691   3.955  22.079  0.00  0.00    -0.274 OA
ATOM      5  N   UNL     1      -3.802   3.085  25.401  0.00  0.00    -0.285 NA
ATOM      6  N   UNL     1      -5.382   2.875  23.225  0.00  0.00    -0.313 N 
ATOM     10  C   UNL     1      -3.832   4.224  24.486  0.00  0.00    +0.145 C 
ATOM     11  C   UNL     1      -5.127   2.526  25.685  0.00  0.00    +0.075 C 
ATOM     12  C   UNL     1      -1.874   4.275  25.919  0.00  0.00    +0.090 C 
ATOM     13  C   UNL     1      -2.409   4.767  24.566  0.00  0.00    +0.052 C 
ATOM     14  C   UNL     1      -3.046   3.534  26.566  0.00  0.00    +0.107 C 
ATOM     15  C   UNL     1      -6.086   2.712  24.487  0.00  0.00    +0.123 C 
ATOM     17  C   UNL     1      -4.256   3.681  23.134  0.00  0.00    +0.230 C 
ATOM     35  H   UNL     1      -5.779   2.478  22.379  0.00  0.00    +0.149 HD
ENDROOT
BRANCH  12   7
ATOM      4  O   UNL     1      -1.154   2.827  23.552  0.00  0.00    -0.253 OA
ATOM      7  N   UNL     1      -0.728   3.413  25.748  0.00  0.00    -0.295 N 
ATOM      9  N   UNL     1       0.721   1.983  24.684  0.00  0.00    -0.269 N 
ATOM     20  C   UNL     1      -0.448   2.739  24.554  0.00  0.00    +0.304 C 
ATOM     36  H   UNL     1      -0.047   3.361  26.499  0.00  0.00    +0.151 HD
ATOM     37  H   UNL     1       1.190   2.020  25.586  0.00  0.00    +0.156 HD
BRANCH   9  27
ATOM      1 CL   UNL     1       5.053   0.300  22.502  0.00  0.00    -0.083 Cl
ATOM     27  C   UNL     1       1.339   1.165  23.710  0.00  0.00    +0.036 A 
ATOM     30  C   UNL     1       2.729   1.139  23.601  0.00  0.00    +0.043 A 
ATOM     31  C   UNL     1       0.557   0.383  22.859  0.00  0.00    +0.023 A 
ATOM     32  C   UNL     1       3.337   0.331  22.639  0.00  0.00    +0.043 A 
ATOM     33  C   UNL     1       1.166  -0.424  21.898  0.00  0.00    +0.003 A 
ATOM     34  C   UNL     1       2.556  -0.450  21.788  0.00  0.00    +0.020 A 
ENDBRANCH   9  27
ENDBRANCH  12   7
BRANCH  11  16
ATOM     16  C   UNL     1      -4.969   1.039  26.010  0.00  0.00    +0.029 C 
BRANCH  16  18
ATOM     18  C   UNL     1      -5.501   0.142  24.903  0.00  0.00    +0.098 C 
BRANCH  18  19
ATOM      3  O   UNL     1      -4.836  -1.835  23.777  0.00  0.00    -0.275 OA
ATOM      8  N   UNL     1      -3.249  -0.779  25.124  0.00  0.00    -0.271 N 
ATOM     19  C   UNL     1      -4.499  -0.928  24.540  0.00  0.00    +0.220 C 
ATOM     21  C   UNL     1      -2.848   0.310  26.038  0.00  0.00    +0.118 C 
ATOM     22  C   UNL     1      -2.145  -1.639  24.947  0.00  0.00    +0.039 A 
ATOM     23  C   UNL     1      -1.384   0.078  26.428  0.00  0.00    +0.056 C 
ATOM     24  C   UNL     1      -1.055  -1.176  25.685  0.00  0.00    -0.024 A 
ATOM     25  C   UNL     1      -2.042  -2.793  24.185  0.00  0.00    +0.024 A 
ATOM     26  C   UNL     1       0.157  -1.848  25.680  0.00  0.00    +0.005 A 
ATOM     28  C   UNL     1      -0.823  -3.478  24.175  0.00  0.00    +0.002 A 
ATOM     29  C   UNL     1       0.270  -3.010  24.916  0.00  0.00    +0.000 A 
ENDBRANCH  18  19
ENDBRANCH  16  18
ENDBRANCH  11  16
TORSDOF 5
ENDMDL
MODEL 5
REMARK VINA RESULT:       7.6      2.780      6.376
REMARK  Name = 26762210
REMARK  5 active torsions:
REMARK  status: ('A' for Active; 'I' for Inactive)
REMARK    1  A    between atoms: N_7  and  C_12
REMARK    2  A    between atoms: N_9  and  C_27
REMARK    3  A    between atoms: C_11  and  C_16
REMARK    4  A    between atoms: C_16  and  C_18
REMARK    5  A    between atoms: C_18  and  C_19
REMARK                            x       y       z     vdW  Elec       q    Type
REMARK                         _______ _______ _______ _____ _____    ______ ____
ROOT
ATOM      2  O   UNL     1      -2.041  -1.477  27.646  0.00  0.00    -0.274 OA
ATOM      5  N   UNL     1      -1.781  -2.075  24.273  0.00  0.00    -0.285 NA
ATOM      6  N   UNL     1      -3.571  -2.498  26.246  0.00  0.00    -0.313 N 
ATOM     10  C   UNL     1      -1.255  -2.470  25.578  0.00  0.00    +0.145 C 
ATOM     11  C   UNL     1      -2.951  -2.852  23.853  0.00  0.00    +0.075 C 
ATOM     12  C   UNL     1       0.454  -1.443  24.195  0.00  0.00    +0.090 C 
ATOM     13  C   UNL     1       0.072  -1.721  25.656  0.00  0.00    +0.052 C 
ATOM     14  C   UNL     1      -0.642  -2.109  23.361  0.00  0.00    +0.107 C 
ATOM     15  C   UNL     1      -3.780  -3.324  25.069  0.00  0.00    +0.123 C 
ATOM     17  C   UNL     1      -2.299  -2.072  26.604  0.00  0.00    +0.230 C 
ATOM     35  H   UNL     1      -4.350  -2.316  26.872  0.00  0.00    +0.149 HD
ENDROOT
BRANCH  12   7
ATOM      4  O   UNL     1      -1.115   0.618  25.421  0.00  0.00    -0.253 OA
ATOM      7  N   UNL     1       0.534  -0.025  23.933  0.00  0.00    -0.295 N 
ATOM      9  N   UNL     1       0.027   2.207  24.124  0.00  0.00    -0.269 N 
ATOM     20  C   UNL     1      -0.273   0.919  24.578  0.00  0.00    +0.304 C 
ATOM     36  H   UNL     1       1.268   0.311  23.317  0.00  0.00    +0.151 HD
ATOM     37  H   UNL     1       0.756   2.284  23.419  0.00  0.00    +0.156 HD
BRANCH   9  27
ATOM      1 CL   UNL     1      -3.164   4.685  27.293  0.00  0.00    -0.083 Cl
ATOM     27  C   UNL     1      -0.562   3.428  24.527  0.00  0.00    +0.036 A 
ATOM     30  C   UNL     1      -1.466   3.451  25.588  0.00  0.00    +0.043 A 
ATOM     31  C   UNL     1      -0.237   4.610  23.862  0.00  0.00    +0.023 A 
ATOM     32  C   UNL     1      -2.046   4.657  25.984  0.00  0.00    +0.043 A 
ATOM     33  C   UNL     1      -0.817   5.816  24.258  0.00  0.00    +0.003 A 
ATOM     34  C   UNL     1      -1.722   5.839  25.319  0.00  0.00    +0.020 A 
ENDBRANCH   9  27
ENDBRANCH  12   7
BRANCH  11  16
ATOM     16  C   UNL     1      -3.810  -1.980  22.934  0.00  0.00    +0.029 C 
BRANCH  16  18
ATOM     18  C   UNL     1      -3.389  -0.519  22.957  0.00  0.00    +0.098 C 
BRANCH  18  19
ATOM      3  O   UNL     1      -4.837  -0.326  24.824  0.00  0.00    -0.275 OA
ATOM      8  N   UNL     1      -4.202   1.645  23.748  0.00  0.00    -0.271 N 
ATOM     19  C   UNL     1      -4.218   0.271  23.942  0.00  0.00    +0.220 C 
ATOM     21  C   UNL     1      -3.458   2.359  22.689  0.00  0.00    +0.118 C 
ATOM     22  C   UNL     1      -4.889   2.599  24.526  0.00  0.00    +0.039 A 
ATOM     23  C   UNL     1      -3.723   3.859  22.860  0.00  0.00    +0.056 C 
ATOM     24  C   UNL     1      -4.638   3.883  24.041  0.00  0.00    -0.024 A 
ATOM     25  C   UNL     1      -5.716   2.409  25.623  0.00  0.00    +0.024 A 
ATOM     26  C   UNL     1      -5.200   5.002  24.637  0.00  0.00    +0.005 A 
ATOM     28  C   UNL     1      -6.288   3.532  26.230  0.00  0.00    +0.002 A 
ATOM     29  C   UNL     1      -6.032   4.820  25.741  0.00  0.00    +0.000 A 
ENDBRANCH  18  19
ENDBRANCH  16  18
ENDBRANCH  11  16
TORSDOF 5
ENDMDL
MODEL 6
REMARK VINA RESULT:       7.8      1.003      1.656
REMARK  Name = 26762210
REMARK  5 active torsions:
REMARK  status: ('A' for Active; 'I' for Inactive)
REMARK    1  A    between atoms: N_7  and  C_12
REMARK    2  A    between atoms: N_9  and  C_27
REMARK    3  A    between atoms: C_11  and  C_16
REMARK    4  A    between atoms: C_16  and  C_18
REMARK    5  A    between atoms: C_18  and  C_19
REMARK                            x       y       z     vdW  Elec       q    Type
REMARK                         _______ _______ _______ _____ _____    ______ ____
ROOT
ATOM      2  O   UNL     1      -3.017   5.134  22.855  0.00  0.00    -0.274 OA
ATOM      5  N   UNL     1      -3.529   3.754  25.959  0.00  0.00    -0.285 NA
ATOM      6  N   UNL     1      -5.021   4.621  23.885  0.00  0.00    -0.313 N 
ATOM     10  C   UNL     1      -3.080   4.964  25.274  0.00  0.00    +0.145 C 
ATOM     11  C   UNL     1      -4.972   3.729  26.217  0.00  0.00    +0.075 C 
ATOM     12  C   UNL     1      -1.295   3.949  26.566  0.00  0.00    +0.090 C 
ATOM     13  C   UNL     1      -1.560   4.866  25.364  0.00  0.00    +0.052 C 
ATOM     14  C   UNL     1      -2.677   3.629  27.137  0.00  0.00    +0.107 C 
ATOM     15  C   UNL     1      -5.752   4.512  25.136  0.00  0.00    +0.123 C 
ATOM     17  C   UNL     1      -3.663   4.910  23.874  0.00  0.00    +0.230 C 
ATOM     35  H   UNL     1      -5.529   4.588  23.007  0.00  0.00    +0.149 HD
ENDROOT
BRANCH  12   7
ATOM      4  O   UNL     1      -0.042   3.456  24.036  0.00  0.00    -0.253 OA
ATOM      7  N   UNL     1      -0.593   2.751  26.168  0.00  0.00    -0.295 N 
ATOM      9  N   UNL     1       0.600   1.335  24.809  0.00  0.00    -0.269 N 
ATOM     20  C   UNL     1      -0.007   2.590  24.907  0.00  0.00    +0.304 C 
ATOM     36  H   UNL     1      -0.442   2.027  26.863  0.00  0.00    +0.151 HD
ATOM     37  H   UNL     1       0.538   0.733  25.627  0.00  0.00    +0.156 HD
BRANCH   9  27
ATOM      1 CL   UNL     1       5.083   0.499  22.450  0.00  0.00    -0.083 Cl
ATOM     27  C   UNL     1       1.296   0.791  23.704  0.00  0.00    +0.036 A 
ATOM     30  C   UNL     1       2.684   0.900  23.632  0.00  0.00    +0.043 A 
ATOM     31  C   UNL     1       0.592   0.143  22.689  0.00  0.00    +0.023 A 
ATOM     32  C   UNL     1       3.369   0.363  22.541  0.00  0.00    +0.043 A 
ATOM     33  C   UNL     1       1.278  -0.394  21.599  0.00  0.00    +0.003 A 
ATOM     34  C   UNL     1       2.667  -0.284  21.525  0.00  0.00    +0.020 A 
ENDBRANCH   9  27
ENDBRANCH  12   7
BRANCH  11  16
ATOM     16  C   UNL     1      -5.436   2.271  26.252  0.00  0.00    +0.029 C 
BRANCH  16  18
ATOM     18  C   UNL     1      -6.097   1.840  24.952  0.00  0.00    +0.098 C 
BRANCH  18  19
ATOM      3  O   UNL     1      -6.597  -0.348  24.187  0.00  0.00    -0.275 OA
ATOM      8  N   UNL     1      -4.383   0.107  24.771  0.00  0.00    -0.271 N 
ATOM     19  C   UNL     1      -5.724   0.420  24.595  0.00  0.00    +0.220 C 
ATOM     21  C   UNL     1      -3.338   1.030  25.261  0.00  0.00    +0.118 C 
ATOM     22  C   UNL     1      -3.784  -1.143  24.512  0.00  0.00    +0.039 A 
ATOM     23  C   UNL     1      -2.012   0.263  25.287  0.00  0.00    +0.056 C 
ATOM     24  C   UNL     1      -2.420  -1.089  24.800  0.00  0.00    -0.024 A 
ATOM     25  C   UNL     1      -4.361  -2.315  24.044  0.00  0.00    +0.024 A 
ATOM     26  C   UNL     1      -1.602  -2.195  24.628  0.00  0.00    +0.005 A 
ATOM     28  C   UNL     1      -3.543  -3.436  23.869  0.00  0.00    +0.002 A 
ATOM     29  C   UNL     1      -2.173  -3.377  24.158  0.00  0.00    +0.000 A 
ENDBRANCH  18  19
ENDBRANCH  16  18
ENDBRANCH  11  16
TORSDOF 5
ENDMDL
MODEL 7
REMARK VINA RESULT:       8.5      2.420      4.744
REMARK  Name = 26762210
REMARK  5 active torsions:
REMARK  status: ('A' for Active; 'I' for Inactive)
REMARK    1  A    between atoms: N_7  and  C_12
REMARK    2  A    between atoms: N_9  and  C_27
REMARK    3  A    between atoms: C_11  and  C_16
REMARK    4  A    between atoms: C_16  and  C_18
REMARK    5  A    between atoms: C_18  and  C_19
REMARK                            x       y       z     vdW  Elec       q    Type
REMARK                         _______ _______ _______ _____ _____    ______ ____
ROOT
ATOM      2  O   UNL     1      -3.678  -1.095  26.108  0.00  0.00    -0.274 OA
ATOM      5  N   UNL     1      -3.739   1.647  24.040  0.00  0.00    -0.285 NA
ATOM      6  N   UNL     1      -5.141   0.693  26.137  0.00  0.00    -0.313 N 
ATOM     10  C   UNL     1      -3.978   0.206  24.083  0.00  0.00    +0.145 C 
ATOM     11  C   UNL     1      -4.922   2.447  24.373  0.00  0.00    +0.075 C 
ATOM     12  C   UNL     1      -2.142   0.768  22.599  0.00  0.00    +0.090 C 
ATOM     13  C   UNL     1      -2.712  -0.371  23.457  0.00  0.00    +0.052 C 
ATOM     14  C   UNL     1      -3.150   1.910  22.731  0.00  0.00    +0.107 C 
ATOM     15  C   UNL     1      -5.846   1.702  25.363  0.00  0.00    +0.123 C 
ATOM     17  C   UNL     1      -4.215  -0.149  25.539  0.00  0.00    +0.230 C 
ATOM     35  H   UNL     1      -5.405   0.534  27.105  0.00  0.00    +0.149 HD
ENDROOT
BRANCH  12   7
ATOM      4  O   UNL     1       0.322  -0.625  22.145  0.00  0.00    -0.253 OA
ATOM      7  N   UNL     1      -0.829   1.162  23.055  0.00  0.00    -0.295 N 
ATOM      9  N   UNL     1       1.445   1.044  23.353  0.00  0.00    -0.269 N 
ATOM     20  C   UNL     1       0.329   0.421  22.789  0.00  0.00    +0.304 C 
ATOM     36  H   UNL     1      -0.728   2.061  23.515  0.00  0.00    +0.151 HD
ATOM     37  H   UNL     1       1.277   1.911  23.859  0.00  0.00    +0.156 HD
BRANCH   9  27
ATOM      1 CL   UNL     1       4.853  -2.740  24.014  0.00  0.00    -0.083 Cl
ATOM     27  C   UNL     1       2.793   0.616  23.310  0.00  0.00    +0.036 A 
ATOM     30  C   UNL     1       3.119  -0.698  23.643  0.00  0.00    +0.043 A 
ATOM     31  C   UNL     1       3.795   1.509  22.931  0.00  0.00    +0.023 A 
ATOM     32  C   UNL     1       4.449  -1.118  23.600  0.00  0.00    +0.043 A 
ATOM     33  C   UNL     1       5.124   1.088  22.887  0.00  0.00    +0.003 A 
ATOM     34  C   UNL     1       5.451  -0.226  23.222  0.00  0.00    +0.020 A 
ENDBRANCH   9  27
ENDBRANCH  12   7
BRANCH  11  16
ATOM     16  C   UNL     1      -4.458   3.773  24.979  0.00  0.00    +0.029 C 
BRANCH  16  18
ATOM     18  C   UNL     1      -2.943   3.899  25.013  0.00  0.00    +0.098 C 
BRANCH  18  19
ATOM      3  O   UNL     1      -3.153   3.892  27.374  0.00  0.00    -0.275 OA
ATOM      8  N   UNL     1      -1.084   3.293  26.477  0.00  0.00    -0.271 N 
ATOM     19  C   UNL     1      -2.410   3.696  26.411  0.00  0.00    +0.220 C 
ATOM     21  C   UNL     1      -0.194   3.057  25.321  0.00  0.00    +0.118 C 
ATOM     22  C   UNL     1      -0.354   3.036  27.657  0.00  0.00    +0.039 A 
ATOM     23  C   UNL     1       1.172   2.620  25.863  0.00  0.00    +0.056 C 
ATOM     24  C   UNL     1       0.948   2.649  27.340  0.00  0.00    -0.024 A 
ATOM     25  C   UNL     1      -0.762   3.124  28.980  0.00  0.00    +0.024 A 
ATOM     26  C   UNL     1       1.870   2.340  28.329  0.00  0.00    +0.005 A 
ATOM     28  C   UNL     1       0.161   2.815  29.984  0.00  0.00    +0.002 A 
ATOM     29  C   UNL     1       1.468   2.425  29.662  0.00  0.00    +0.000 A 
ENDBRANCH  18  19
ENDBRANCH  16  18
ENDBRANCH  11  16
TORSDOF 5
ENDMDL
MODEL 8
REMARK VINA RESULT:       8.6      1.795      5.062
REMARK  Name = 26762210
REMARK  5 active torsions:
REMARK  status: ('A' for Active; 'I' for Inactive)
REMARK    1  A    between atoms: N_7  and  C_12
REMARK    2  A    between atoms: N_9  and  C_27
REMARK    3  A    between atoms: C_11  and  C_16
REMARK    4  A    between atoms: C_16  and  C_18
REMARK    5  A    between atoms: C_18  and  C_19
REMARK                            x       y       z     vdW  Elec       q    Type
REMARK                         _______ _______ _______ _____ _____    ______ ____
ROOT
ATOM      2  O   UNL     1      -3.269   3.895  28.036  0.00  0.00    -0.274 OA
ATOM      5  N   UNL     1      -3.923   3.691  24.669  0.00  0.00    -0.285 NA
ATOM      6  N   UNL     1      -2.089   4.833  26.284  0.00  0.00    -0.313 N 
ATOM     10  C   UNL     1      -4.404   4.265  25.924  0.00  0.00    +0.145 C 
ATOM     11  C   UNL     1      -2.965   4.546  23.963  0.00  0.00    +0.075 C 
ATOM     12  C   UNL     1      -5.993   2.685  24.993  0.00  0.00    +0.090 C 
ATOM     13  C   UNL     1      -5.549   3.334  26.311  0.00  0.00    +0.052 C 
ATOM     14  C   UNL     1      -5.120   3.331  23.916  0.00  0.00    +0.107 C 
ATOM     15  C   UNL     1      -2.143   5.407  24.949  0.00  0.00    +0.123 C 
ATOM     17  C   UNL     1      -3.220   4.284  26.873  0.00  0.00    +0.230 C 
ATOM     35  H   UNL     1      -1.240   4.927  26.832  0.00  0.00    +0.149 HD
ENDROOT
BRANCH  12   7
ATOM      4  O   UNL     1      -3.584   1.234  24.438  0.00  0.00    -0.253 OA
ATOM      7  N   UNL     1      -5.819   1.251  25.030  0.00  0.00    -0.295 N 
ATOM      9  N   UNL     1      -4.736  -0.767  24.859  0.00  0.00    -0.269 N 
ATOM     20  C   UNL     1      -4.603   0.620  24.743  0.00  0.00    +0.304 C 
ATOM     36  H   UNL     1      -6.589   0.680  25.363  0.00  0.00    +0.151 HD
ATOM     37  H   UNL     1      -5.654  -1.117  25.123  0.00  0.00    +0.156 HD
BRANCH   9  27
ATOM      1 CL   UNL     1       0.028  -2.438  25.799  0.00  0.00    -0.083 Cl
ATOM     27  C   UNL     1      -3.744  -1.754  24.654  0.00  0.00    +0.036 A 
ATOM     30  C   UNL     1      -2.494  -1.624  25.259  0.00  0.00    +0.043 A 
ATOM     31  C   UNL     1      -4.017  -2.859  23.847  0.00  0.00    +0.023 A 
ATOM     32  C   UNL     1      -1.517  -2.599  25.055  0.00  0.00    +0.043 A 
ATOM     33  C   UNL     1      -3.040  -3.833  23.644  0.00  0.00    +0.003 A 
ATOM     34  C   UNL     1      -1.789  -3.703  24.248  0.00  0.00    +0.020 A 
ENDBRANCH   9  27
ENDBRANCH  12   7
BRANCH  11  16
ATOM     16  C   UNL     1      -2.034   3.655  23.136  0.00  0.00    +0.029 C 
BRANCH  16  18
ATOM     18  C   UNL     1      -1.392   2.556  23.968  0.00  0.00    +0.098 C 
BRANCH  18  19
ATOM      3  O   UNL     1       0.747   3.576  23.895  0.00  0.00    -0.275 OA
ATOM      8  N   UNL     1       0.633   1.285  23.462  0.00  0.00    -0.271 N 
ATOM     19  C   UNL     1       0.106   2.531  23.773  0.00  0.00    +0.220 C 
ATOM     21  C   UNL     1      -0.138   0.033  23.316  0.00  0.00    +0.118 C 
ATOM     22  C   UNL     1       1.994   0.996  23.234  0.00  0.00    +0.039 A 
ATOM     23  C   UNL     1       0.850  -1.089  22.979  0.00  0.00    +0.056 C 
ATOM     24  C   UNL     1       2.154  -0.361  22.951  0.00  0.00    -0.024 A 
ATOM     25  C   UNL     1       3.090   1.846  23.257  0.00  0.00    +0.024 A 
ATOM     26  C   UNL     1       3.404  -0.901  22.688  0.00  0.00    +0.005 A 
ATOM     28  C   UNL     1       4.355   1.310  22.992  0.00  0.00    +0.002 A 
ATOM     29  C   UNL     1       4.512  -0.053  22.709  0.00  0.00    +0.000 A 
ENDBRANCH  18  19
ENDBRANCH  16  18
ENDBRANCH  11  16
TORSDOF 5
ENDMDL
MODEL 9
REMARK VINA RESULT:       9.1      2.842      6.808
REMARK  Name = 26762210
REMARK  5 active torsions:
REMARK  status: ('A' for Active; 'I' for Inactive)
REMARK    1  A    between atoms: N_7  and  C_12
REMARK    2  A    between atoms: N_9  and  C_27
REMARK    3  A    between atoms: C_11  and  C_16
REMARK    4  A    between atoms: C_16  and  C_18
REMARK    5  A    between atoms: C_18  and  C_19
REMARK                            x       y       z     vdW  Elec       q    Type
REMARK                         _______ _______ _______ _____ _____    ______ ____
ROOT
ATOM      2  O   UNL     1       5.664   0.959  23.944  0.00  0.00    -0.274 OA
ATOM      5  N   UNL     1       2.600  -0.557  23.598  0.00  0.00    -0.285 NA
ATOM      6  N   UNL     1       5.074  -1.219  24.444  0.00  0.00    -0.313 N 
ATOM     10  C   UNL     1       3.730  -0.012  22.848  0.00  0.00    +0.145 C 
ATOM     11  C   UNL     1       2.750  -1.975  23.935  0.00  0.00    +0.075 C 
ATOM     12  C   UNL     1       1.691   1.237  22.434  0.00  0.00    +0.090 C 
ATOM     13  C   UNL     1       3.222   1.357  22.407  0.00  0.00    +0.052 C 
ATOM     14  C   UNL     1       1.411  -0.215  22.824  0.00  0.00    +0.107 C 
ATOM     15  C   UNL     1       4.236  -2.359  24.113  0.00  0.00    +0.123 C 
ATOM     17  C   UNL     1       4.914  -0.002  23.797  0.00  0.00    +0.230 C 
ATOM     35  H   UNL     1       5.854  -1.343  25.083  0.00  0.00    +0.149 HD
ENDROOT
BRANCH  12   7
ATOM      4  O   UNL     1      -1.093   1.545  23.039  0.00  0.00    -0.253 OA
ATOM      7  N   UNL     1       1.109   2.164  23.376  0.00  0.00    -0.295 N 
ATOM      9  N   UNL     1      -0.536   3.232  24.572  0.00  0.00    -0.269 N 
ATOM     20  C   UNL     1      -0.268   2.251  23.613  0.00  0.00    +0.304 C 
ATOM     36  H   UNL     1       1.731   2.717  23.956  0.00  0.00    +0.151 HD
ATOM     37  H   UNL     1       0.266   3.729  24.952  0.00  0.00    +0.156 HD
BRANCH   9  27
ATOM      1 CL   UNL     1      -3.516   4.066  28.669  0.00  0.00    -0.083 Cl
ATOM     27  C   UNL     1      -1.794   3.623  25.085  0.00  0.00    +0.036 A 
ATOM     30  C   UNL     1      -2.008   3.649  26.463  0.00  0.00    +0.043 A 
ATOM     31  C   UNL     1      -2.820   3.985  24.213  0.00  0.00    +0.023 A 
ATOM     32  C   UNL     1      -3.250   4.036  26.968  0.00  0.00    +0.043 A 
ATOM     33  C   UNL     1      -4.061   4.372  24.718  0.00  0.00    +0.003 A 
ATOM     34  C   UNL     1      -4.277   4.397  26.096  0.00  0.00    +0.020 A 
ENDBRANCH   9  27
ENDBRANCH  12   7
BRANCH  11  16
ATOM     16  C   UNL     1       1.974  -2.255  25.224  0.00  0.00    +0.029 C 
BRANCH  16  18
ATOM     18  C   UNL     1       0.553  -2.726  24.956  0.00  0.00    +0.098 C 
BRANCH  18  19
ATOM      3  O   UNL     1      -0.071  -0.575  25.733  0.00  0.00    -0.275 OA
ATOM      8  N   UNL     1      -1.725  -1.873  24.719  0.00  0.00    -0.271 N 
ATOM     19  C   UNL     1      -0.442  -1.611  25.179  0.00  0.00    +0.220 C 
ATOM     21  C   UNL     1      -2.166  -3.117  24.054  0.00  0.00    +0.118 C 
ATOM     22  C   UNL     1      -2.829  -1.001  24.806  0.00  0.00    +0.039 A 
ATOM     23  C   UNL     1      -3.653  -2.963  23.714  0.00  0.00    +0.056 C 
ATOM     24  C   UNL     1      -3.956  -1.597  24.238  0.00  0.00    -0.024 A 
ATOM     25  C   UNL     1      -2.904   0.273  25.349  0.00  0.00    +0.024 A 
ATOM     26  C   UNL     1      -5.176  -0.940  24.197  0.00  0.00    +0.005 A 
ATOM     28  C   UNL     1      -4.131   0.943  25.313  0.00  0.00    +0.002 A 
ATOM     29  C   UNL     1      -5.260   0.341  24.742  0.00  0.00    +0.000 A 
ENDBRANCH  18  19
ENDBRANCH  16  18
ENDBRANCH  11  16
TORSDOF 5
ENDMDL
MODEL 10
REMARK VINA RESULT:       9.4      3.048      6.166
REMARK  Name = 26762210
REMARK  5 active torsions:
REMARK  status: ('A' for Active; 'I' for Inactive)
REMARK    1  A    between atoms: N_7  and  C_12
REMARK    2  A    between atoms: N_9  and  C_27
REMARK    3  A    between atoms: C_11  and  C_16
REMARK    4  A    between atoms: C_16  and  C_18
REMARK    5  A    between atoms: C_18  and  C_19
REMARK                            x       y       z     vdW  Elec       q    Type
REMARK                         _______ _______ _______ _____ _____    ______ ____
ROOT
ATOM      2  O   UNL     1      -0.421  -2.477  25.063  0.00  0.00    -0.274 OA
ATOM      5  N   UNL     1      -2.699   0.011  24.410  0.00  0.00    -0.285 NA
ATOM      6  N   UNL     1      -2.716  -2.527  25.325  0.00  0.00    -0.313 N 
ATOM     10  C   UNL     1      -1.781  -0.934  23.777  0.00  0.00    +0.145 C 
ATOM     11  C   UNL     1      -4.044  -0.533  24.621  0.00  0.00    +0.075 C 
ATOM     12  C   UNL     1      -1.126   1.367  23.368  0.00  0.00    +0.090 C 
ATOM     13  C   UNL     1      -0.574  -0.064  23.437  0.00  0.00    +0.052 C 
ATOM     14  C   UNL     1      -2.631   1.227  23.606  0.00  0.00    +0.107 C 
ATOM     15  C   UNL     1      -4.006  -2.062  24.844  0.00  0.00    +0.123 C 
ATOM     17  C   UNL     1      -1.534  -2.039  24.786  0.00  0.00    +0.230 C 
ATOM     35  H   UNL     1      -2.680  -3.292  25.992  0.00  0.00    +0.149 HD
ENDROOT
BRANCH  12   7
ATOM      4  O   UNL     1      -0.078   0.557  25.910  0.00  0.00    -0.253 OA
ATOM      7  N   UNL     1      -0.508   2.217  24.359  0.00  0.00    -0.295 N 
ATOM      9  N   UNL     1       0.522   2.786  26.331  0.00  0.00    -0.269 N 
ATOM     20  C   UNL     1      -0.020   1.739  25.581  0.00  0.00    +0.304 C 
ATOM     36  H   UNL     1      -0.339   3.190  24.123  0.00  0.00    +0.151 HD
ATOM     37  H   UNL     1       0.492   3.712  25.911  0.00  0.00    +0.156 HD
BRANCH   9  27
ATOM      1 CL   UNL     1      -0.100   2.502  31.420  0.00  0.00    -0.083 Cl
ATOM     27  C   UNL     1       1.114   2.719  27.615  0.00  0.00    +0.036 A 
ATOM     30  C   UNL     1       0.308   2.650  28.751  0.00  0.00    +0.043 A 
ATOM     31  C   UNL     1       2.502   2.720  27.742  0.00  0.00    +0.023 A 
ATOM     32  C   UNL     1       0.893   2.584  30.016  0.00  0.00    +0.043 A 
ATOM     33  C   UNL     1       3.086   2.654  29.007  0.00  0.00    +0.003 A 
ATOM     34  C   UNL     1       2.282   2.586  30.145  0.00  0.00    +0.020 A 
ENDBRANCH   9  27
ENDBRANCH  12   7
BRANCH  11  16
ATOM     16  C   UNL     1      -4.667   0.163  25.834  0.00  0.00    +0.029 C 
BRANCH  16  18
ATOM     18  C   UNL     1      -5.812   1.086  25.449  0.00  0.00    +0.098 C 
BRANCH  18  19
ATOM      3  O   UNL     1      -5.810   2.523  23.564  0.00  0.00    -0.275 OA
ATOM      8  N   UNL     1      -4.303   3.001  25.282  0.00  0.00    -0.271 N 
ATOM     19  C   UNL     1      -5.313   2.276  24.664  0.00  0.00    +0.220 C 
ATOM     21  C   UNL     1      -3.709   2.702  26.601  0.00  0.00    +0.118 C 
ATOM     22  C   UNL     1      -3.670   4.148  24.760  0.00  0.00    +0.039 A 
ATOM     23  C   UNL     1      -2.641   3.764  26.885  0.00  0.00    +0.056 C 
ATOM     24  C   UNL     1      -2.706   4.612  25.656  0.00  0.00    -0.024 A 
ATOM     25  C   UNL     1      -3.886   4.801  23.556  0.00  0.00    +0.024 A 
ATOM     26  C   UNL     1      -1.941   5.733  25.376  0.00  0.00    +0.005 A 
ATOM     28  C   UNL     1      -3.118   5.933  23.265  0.00  0.00    +0.002 A 
ATOM     29  C   UNL     1      -2.152   6.397  24.168  0.00  0.00    +0.000 A 
ENDBRANCH  18  19
ENDBRANCH  16  18
ENDBRANCH  11  16
TORSDOF 5
ENDMDL
