MODEL 1
REMARK VINA RESULT:      -5.2      0.000      0.000
REMARK  Name = 26743054
REMARK  9 active torsions:
REMARK  status: ('A' for Active; 'I' for Inactive)
REMARK    1  A    between atoms: O_4  and  C_20
REMARK    2  A    between atoms: O_4  and  C_25
REMARK    3  A    between atoms: N_6  and  C_19
REMARK    4  A    between atoms: C_8  and  C_14
REMARK    5  A    between atoms: C_9  and  C_13
REMARK    6  A    between atoms: C_13  and  C_15
REMARK    7  A    between atoms: C_14  and  C_16
REMARK    8  A    between atoms: C_18  and  C_20
REMARK    9  A    between atoms: C_19  and  C_21
REMARK                            x       y       z     vdW  Elec       q    Type
REMARK                         _______ _______ _______ _____ _____    ______ ____
ROOT
ATOM      5  N   UNL     1      -2.181  -2.947  25.040  0.00  0.00    -0.316 NA
ATOM      8  C   UNL     1      -3.600  -0.698  23.762  0.00  0.00    +0.004 C 
ATOM      9  C   UNL     1      -2.072  -0.694  24.002  0.00  0.00    +0.012 C 
ATOM     10  C   UNL     1      -4.094  -2.153  23.694  0.00  0.00    +0.019 C 
ATOM     11  C   UNL     1      -1.682  -1.580  25.197  0.00  0.00    +0.085 C 
ATOM     12  C   UNL     1      -3.635  -2.981  24.893  0.00  0.00    +0.081 C 
ATOM     26  H   UNL     1      -1.911  -3.500  25.852  0.00  0.00    +0.122 HD
ENDROOT
BRANCH   9  13
ATOM     13  C   UNL     1      -1.495   0.713  24.166  0.00  0.00    +0.064 C 
BRANCH  13  15
ATOM      3  O   UNL     1       1.992   1.483  23.714  0.00  0.00    -0.357 OA
ATOM      7  N   UNL     1       0.734   1.744  24.242  0.00  0.00    -0.083 NA
ATOM     15  C   UNL     1      -0.043   0.756  23.787  0.00  0.00    +0.084 A 
ATOM     17  C   UNL     1       0.663  -0.147  22.974  0.00  0.00    +0.073 A 
ATOM     18  C   UNL     1       1.938   0.355  22.960  0.00  0.00    +0.163 A 
BRANCH  18  20
ATOM     20  C   UNL     1       3.190  -0.068  22.323  0.00  0.00    +0.236 C 
BRANCH  20   4
ATOM      4  O   UNL     1       4.270   0.772  22.743  0.00  0.00    -0.375 OA
ATOM     25  C   UNL     1       5.265   0.025  23.422  0.00  0.00    +0.194 C 
ENDBRANCH  20   4
ENDBRANCH  18  20
ENDBRANCH  13  15
ENDBRANCH   9  13
BRANCH   8  14
ATOM     14  C   UNL     1      -4.397   0.101  24.801  0.00  0.00    +0.099 C 
BRANCH  14  16
ATOM      2  O   UNL     1      -4.221   2.094  23.441  0.00  0.00    -0.276 OA
ATOM      6  N   UNL     1      -4.380   2.299  25.750  0.00  0.00    -0.311 N 
ATOM     16  C   UNL     1      -4.322   1.593  24.558  0.00  0.00    +0.214 C 
ATOM     27  H   UNL     1      -4.471   1.794  26.628  0.00  0.00    +0.149 HD
BRANCH   6  19
ATOM     19  C   UNL     1      -4.327   3.741  25.817  0.00  0.00    +0.146 C 
BRANCH  19  21
ATOM      1  S   UNL     1      -1.581   3.398  26.054  0.00  0.00    -0.100 S 
ATOM     21  C   UNL     1      -2.953   4.267  25.515  0.00  0.00    +0.007 A 
ATOM     22  C   UNL     1      -2.605   5.412  24.831  0.00  0.00    +0.013 A 
ATOM     23  C   UNL     1      -1.192   5.576  24.748  0.00  0.00    +0.008 A 
ATOM     24  C   UNL     1      -0.514   4.551  25.373  0.00  0.00    +0.045 A 
ENDBRANCH  19  21
ENDBRANCH   6  19
ENDBRANCH  14  16
ENDBRANCH   8  14
TORSDOF 8
ENDMDL
MODEL 2
REMARK VINA RESULT:      -5.2      2.508      6.475
REMARK  Name = 26743054
REMARK  9 active torsions:
REMARK  status: ('A' for Active; 'I' for Inactive)
REMARK    1  A    between atoms: O_4  and  C_20
REMARK    2  A    between atoms: O_4  and  C_25
REMARK    3  A    between atoms: N_6  and  C_19
REMARK    4  A    between atoms: C_8  and  C_14
REMARK    5  A    between atoms: C_9  and  C_13
REMARK    6  A    between atoms: C_13  and  C_15
REMARK    7  A    between atoms: C_14  and  C_16
REMARK    8  A    between atoms: C_18  and  C_20
REMARK    9  A    between atoms: C_19  and  C_21
REMARK                            x       y       z     vdW  Elec       q    Type
REMARK                         _______ _______ _______ _____ _____    ______ ____
ROOT
ATOM      5  N   UNL     1      -1.714   5.533  25.228  0.00  0.00    -0.316 NA
ATOM      8  C   UNL     1      -1.605   2.706  24.390  0.00  0.00    +0.004 C 
ATOM      9  C   UNL     1      -2.913   3.392  24.849  0.00  0.00    +0.012 C 
ATOM     10  C   UNL     1      -0.633   3.777  23.868  0.00  0.00    +0.019 C 
ATOM     11  C   UNL     1      -2.636   4.559  25.813  0.00  0.00    +0.085 C 
ATOM     12  C   UNL     1      -0.438   4.922  24.861  0.00  0.00    +0.081 C 
ATOM     26  H   UNL     1      -1.549   6.285  25.897  0.00  0.00    +0.122 HD
ENDROOT
BRANCH   9  13
ATOM     13  C   UNL     1      -3.918   2.416  25.462  0.00  0.00    +0.064 C 
BRANCH  13  15
ATOM      3  O   UNL     1      -3.737  -0.256  23.057  0.00  0.00    -0.357 OA
ATOM      7  N   UNL     1      -3.631   1.080  23.420  0.00  0.00    -0.083 NA
ATOM     15  C   UNL     1      -3.933   1.110  24.721  0.00  0.00    +0.084 A 
ATOM     17  C   UNL     1      -4.237  -0.165  25.228  0.00  0.00    +0.073 A 
ATOM     18  C   UNL     1      -4.098  -0.989  24.141  0.00  0.00    +0.163 A 
BRANCH  18  20
ATOM     20  C   UNL     1      -4.257  -2.433  23.934  0.00  0.00    +0.236 C 
BRANCH  20   4
ATOM      4  O   UNL     1      -3.310  -3.155  24.727  0.00  0.00    -0.375 OA
ATOM     25  C   UNL     1      -1.986  -2.934  24.272  0.00  0.00    +0.194 C 
ENDBRANCH  20   4
ENDBRANCH  18  20
ENDBRANCH  13  15
ENDBRANCH   9  13
BRANCH   8  14
ATOM     14  C   UNL     1      -0.939   1.846  25.472  0.00  0.00    +0.099 C 
BRANCH  14  16
ATOM      2  O   UNL     1      -0.598  -0.547  25.365  0.00  0.00    -0.276 OA
ATOM      6  N   UNL     1       0.475   0.829  23.830  0.00  0.00    -0.311 N 
ATOM     16  C   UNL     1      -0.356   0.568  24.909  0.00  0.00    +0.214 C 
ATOM     27  H   UNL     1       0.610   1.788  23.521  0.00  0.00    +0.149 HD
BRANCH   6  19
ATOM     19  C   UNL     1       1.170  -0.207  23.100  0.00  0.00    +0.146 C 
BRANCH  19  21
ATOM      1  S   UNL     1       3.647  -1.321  23.678  0.00  0.00    -0.100 S 
ATOM     21  C   UNL     1       2.660  -0.027  23.150  0.00  0.00    +0.007 A 
ATOM     22  C   UNL     1       3.400   1.087  22.818  0.00  0.00    +0.013 A 
ATOM     23  C   UNL     1       4.797   0.874  22.998  0.00  0.00    +0.008 A 
ATOM     24  C   UNL     1       5.072  -0.395  23.463  0.00  0.00    +0.045 A 
ENDBRANCH  19  21
ENDBRANCH   6  19
ENDBRANCH  14  16
ENDBRANCH   8  14
TORSDOF 8
ENDMDL
MODEL 3
REMARK VINA RESULT:      -4.2      2.132      6.056
REMARK  Name = 26743054
REMARK  9 active torsions:
REMARK  status: ('A' for Active; 'I' for Inactive)
REMARK    1  A    between atoms: O_4  and  C_20
REMARK    2  A    between atoms: O_4  and  C_25
REMARK    3  A    between atoms: N_6  and  C_19
REMARK    4  A    between atoms: C_8  and  C_14
REMARK    5  A    between atoms: C_9  and  C_13
REMARK    6  A    between atoms: C_13  and  C_15
REMARK    7  A    between atoms: C_14  and  C_16
REMARK    8  A    between atoms: C_18  and  C_20
REMARK    9  A    between atoms: C_19  and  C_21
REMARK                            x       y       z     vdW  Elec       q    Type
REMARK                         _______ _______ _______ _____ _____    ______ ____
ROOT
ATOM      5  N   UNL     1      -3.473  -2.923  24.685  0.00  0.00    -0.316 NA
ATOM      8  C   UNL     1      -1.811  -0.485  24.750  0.00  0.00    +0.004 C 
ATOM      9  C   UNL     1      -3.322  -0.458  24.418  0.00  0.00    +0.012 C 
ATOM     10  C   UNL     1      -1.504  -1.737  25.589  0.00  0.00    +0.019 C 
ATOM     11  C   UNL     1      -3.795  -1.791  23.814  0.00  0.00    +0.085 C 
ATOM     12  C   UNL     1      -2.039  -3.016  24.947  0.00  0.00    +0.081 C 
ATOM     26  H   UNL     1      -3.794  -3.786  24.249  0.00  0.00    +0.122 HD
ENDROOT
BRANCH   9  13
ATOM     13  C   UNL     1      -3.715   0.711  23.515  0.00  0.00    +0.064 C 
BRANCH  13  15
ATOM      3  O   UNL     1      -4.521   3.749  25.271  0.00  0.00    -0.357 OA
ATOM      7  N   UNL     1      -4.876   2.593  24.587  0.00  0.00    -0.083 NA
ATOM     15  C   UNL     1      -3.717   2.009  24.271  0.00  0.00    +0.084 A 
ATOM     17  C   UNL     1      -2.608   2.745  24.722  0.00  0.00    +0.073 A 
ATOM     18  C   UNL     1      -3.168   3.829  25.345  0.00  0.00    +0.163 A 
BRANCH  18  20
ATOM     20  C   UNL     1      -2.618   4.999  26.040  0.00  0.00    +0.236 C 
BRANCH  20   4
ATOM      4  O   UNL     1      -1.731   5.717  25.178  0.00  0.00    -0.375 OA
ATOM     25  C   UNL     1      -0.576   4.951  24.878  0.00  0.00    +0.194 C 
ENDBRANCH  20   4
ENDBRANCH  18  20
ENDBRANCH  13  15
ENDBRANCH   9  13
BRANCH   8  14
ATOM     14  C   UNL     1      -0.900  -0.417  23.518  0.00  0.00    +0.099 C 
BRANCH  14  16
ATOM      2  O   UNL     1       0.185   1.513  24.491  0.00  0.00    -0.276 OA
ATOM      6  N   UNL     1       1.275   0.308  22.831  0.00  0.00    -0.311 N 
ATOM     16  C   UNL     1       0.222   0.583  23.689  0.00  0.00    +0.214 C 
ATOM     27  H   UNL     1       1.217  -0.492  22.205  0.00  0.00    +0.149 HD
BRANCH   6  19
ATOM     19  C   UNL     1       2.481   1.103  22.778  0.00  0.00    +0.146 C 
BRANCH  19  21
ATOM      1  S   UNL     1       3.526  -1.337  23.596  0.00  0.00    -0.100 S 
ATOM     21  C   UNL     1       3.688   0.324  23.216  0.00  0.00    +0.007 A 
ATOM     22  C   UNL     1       4.984   0.767  23.371  0.00  0.00    +0.013 A 
ATOM     23  C   UNL     1       5.856  -0.272  23.806  0.00  0.00    +0.008 A 
ATOM     24  C   UNL     1       5.192  -1.470  23.969  0.00  0.00    +0.045 A 
ENDBRANCH  19  21
ENDBRANCH   6  19
ENDBRANCH  14  16
ENDBRANCH   8  14
TORSDOF 8
ENDMDL
MODEL 4
REMARK VINA RESULT:      -3.7      1.869      4.530
REMARK  Name = 26743054
REMARK  9 active torsions:
REMARK  status: ('A' for Active; 'I' for Inactive)
REMARK    1  A    between atoms: O_4  and  C_20
REMARK    2  A    between atoms: O_4  and  C_25
REMARK    3  A    between atoms: N_6  and  C_19
REMARK    4  A    between atoms: C_8  and  C_14
REMARK    5  A    between atoms: C_9  and  C_13
REMARK    6  A    between atoms: C_13  and  C_15
REMARK    7  A    between atoms: C_14  and  C_16
REMARK    8  A    between atoms: C_18  and  C_20
REMARK    9  A    between atoms: C_19  and  C_21
REMARK                            x       y       z     vdW  Elec       q    Type
REMARK                         _______ _______ _______ _____ _____    ______ ____
ROOT
ATOM      5  N   UNL     1      -3.297   3.044  22.594  0.00  0.00    -0.316 NA
ATOM      8  C   UNL     1      -2.495   4.322  25.129  0.00  0.00    +0.004 C 
ATOM      9  C   UNL     1      -1.580   3.336  24.364  0.00  0.00    +0.012 C 
ATOM     10  C   UNL     1      -3.483   4.962  24.139  0.00  0.00    +0.019 C 
ATOM     11  C   UNL     1      -2.396   2.348  23.514  0.00  0.00    +0.085 C 
ATOM     12  C   UNL     1      -4.225   3.921  23.303  0.00  0.00    +0.081 C 
ATOM     26  H   UNL     1      -3.824   2.358  22.055  0.00  0.00    +0.122 HD
ENDROOT
BRANCH   9  13
ATOM     13  C   UNL     1      -0.611   2.586  25.279  0.00  0.00    +0.064 C 
BRANCH  13  15
ATOM      3  O   UNL     1       0.609  -0.449  23.776  0.00  0.00    -0.357 OA
ATOM      7  N   UNL     1      -0.292   0.258  24.563  0.00  0.00    -0.083 NA
ATOM     15  C   UNL     1       0.137   1.523  24.528  0.00  0.00    +0.084 A 
ATOM     17  C   UNL     1       1.294   1.673  23.745  0.00  0.00    +0.073 A 
ATOM     18  C   UNL     1       1.549   0.404  23.294  0.00  0.00    +0.163 A 
BRANCH  18  20
ATOM     20  C   UNL     1       2.588  -0.181  22.438  0.00  0.00    +0.236 C 
BRANCH  20   4
ATOM      4  O   UNL     1       3.692   0.720  22.311  0.00  0.00    -0.375 OA
ATOM     25  C   UNL     1       4.769   0.330  23.146  0.00  0.00    +0.194 C 
ENDBRANCH  20   4
ENDBRANCH  18  20
ENDBRANCH  13  15
ENDBRANCH   9  13
BRANCH   8  14
ATOM     14  C   UNL     1      -3.239   3.692  26.313  0.00  0.00    +0.099 C 
BRANCH  14  16
ATOM      2  O   UNL     1      -5.587   3.274  25.903  0.00  0.00    -0.276 OA
ATOM      6  N   UNL     1      -4.032   1.613  25.429  0.00  0.00    -0.311 N 
ATOM     16  C   UNL     1      -4.428   2.867  25.869  0.00  0.00    +0.214 C 
ATOM     27  H   UNL     1      -3.045   1.369  25.432  0.00  0.00    +0.149 HD
BRANCH   6  19
ATOM     19  C   UNL     1      -4.960   0.615  24.949  0.00  0.00    +0.146 C 
BRANCH  19  21
ATOM      1  S   UNL     1      -3.188  -1.272  25.955  0.00  0.00    -0.100 S 
ATOM     21  C   UNL     1      -4.305  -0.725  24.779  0.00  0.00    +0.007 A 
ATOM     22  C   UNL     1      -4.473  -1.639  23.761  0.00  0.00    +0.013 A 
ATOM     23  C   UNL     1      -3.675  -2.803  23.950  0.00  0.00    +0.008 A 
ATOM     24  C   UNL     1      -2.926  -2.736  25.105  0.00  0.00    +0.045 A 
ENDBRANCH  19  21
ENDBRANCH   6  19
ENDBRANCH  14  16
ENDBRANCH   8  14
TORSDOF 8
ENDMDL
MODEL 5
REMARK VINA RESULT:      -2.7      1.746      2.125
REMARK  Name = 26743054
REMARK  9 active torsions:
REMARK  status: ('A' for Active; 'I' for Inactive)
REMARK    1  A    between atoms: O_4  and  C_20
REMARK    2  A    between atoms: O_4  and  C_25
REMARK    3  A    between atoms: N_6  and  C_19
REMARK    4  A    between atoms: C_8  and  C_14
REMARK    5  A    between atoms: C_9  and  C_13
REMARK    6  A    between atoms: C_13  and  C_15
REMARK    7  A    between atoms: C_14  and  C_16
REMARK    8  A    between atoms: C_18  and  C_20
REMARK    9  A    between atoms: C_19  and  C_21
REMARK                            x       y       z     vdW  Elec       q    Type
REMARK                         _______ _______ _______ _____ _____    ______ ____
ROOT
ATOM      5  N   UNL     1      -1.266  -0.557  26.732  0.00  0.00    -0.316 NA
ATOM      8  C   UNL     1      -1.888  -1.831  24.145  0.00  0.00    +0.004 C 
ATOM      9  C   UNL     1      -0.789  -0.754  24.303  0.00  0.00    +0.012 C 
ATOM     10  C   UNL     1      -2.112  -2.523  25.499  0.00  0.00    +0.019 C 
ATOM     11  C   UNL     1      -1.081   0.186  25.485  0.00  0.00    +0.085 C 
ATOM     12  C   UNL     1      -2.354  -1.526  26.631  0.00  0.00    +0.081 C 
ATOM     26  H   UNL     1      -1.464   0.097  27.488  0.00  0.00    +0.122 HD
ENDROOT
BRANCH   9  13
ATOM     13  C   UNL     1      -0.549   0.049  23.024  0.00  0.00    +0.064 C 
BRANCH  13  15
ATOM      3  O   UNL     1       2.754  -0.188  21.613  0.00  0.00    -0.357 OA
ATOM      7  N   UNL     1       1.394  -0.470  21.613  0.00  0.00    -0.083 NA
ATOM     15  C   UNL     1       0.914   0.139  22.701  0.00  0.00    +0.084 A 
ATOM     17  C   UNL     1       1.916   0.813  23.420  0.00  0.00    +0.073 A 
ATOM     18  C   UNL     1       3.054   0.576  22.694  0.00  0.00    +0.163 A 
BRANCH  18  20
ATOM     20  C   UNL     1       4.460   0.969  22.850  0.00  0.00    +0.236 C 
BRANCH  20   4
ATOM      4  O   UNL     1       4.947   0.568  24.134  0.00  0.00    -0.375 OA
ATOM     25  C   UNL     1       5.352  -0.790  24.127  0.00  0.00    +0.194 C 
ENDBRANCH  20   4
ENDBRANCH  18  20
ENDBRANCH  13  15
ENDBRANCH   9  13
BRANCH   8  14
ATOM     14  C   UNL     1      -3.210  -1.295  23.581  0.00  0.00    +0.099 C 
BRANCH  14  16
ATOM      2  O   UNL     1      -4.231  -0.226  25.496  0.00  0.00    -0.276 OA
ATOM      6  N   UNL     1      -3.590   1.067  23.675  0.00  0.00    -0.311 N 
ATOM     16  C   UNL     1      -3.738  -0.120  24.376  0.00  0.00    +0.214 C 
ATOM     27  H   UNL     1      -3.162   1.055  22.753  0.00  0.00    +0.149 HD
BRANCH   6  19
ATOM     19  C   UNL     1      -4.010   2.348  24.194  0.00  0.00    +0.146 C 
BRANCH  19  21
ATOM      1  S   UNL     1      -3.005   4.467  25.682  0.00  0.00    -0.100 S 
ATOM     21  C   UNL     1      -2.842   3.241  24.499  0.00  0.00    +0.007 A 
ATOM     22  C   UNL     1      -1.583   3.226  23.939  0.00  0.00    +0.013 A 
ATOM     23  C   UNL     1      -0.741   4.235  24.491  0.00  0.00    +0.008 A 
ATOM     24  C   UNL     1      -1.389   4.983  25.450  0.00  0.00    +0.045 A 
ENDBRANCH  19  21
ENDBRANCH   6  19
ENDBRANCH  14  16
ENDBRANCH   8  14
TORSDOF 8
ENDMDL
MODEL 6
REMARK VINA RESULT:      -2.7     14.283     16.840
REMARK  Name = 26743054
REMARK  9 active torsions:
REMARK  status: ('A' for Active; 'I' for Inactive)
REMARK    1  A    between atoms: O_4  and  C_20
REMARK    2  A    between atoms: O_4  and  C_25
REMARK    3  A    between atoms: N_6  and  C_19
REMARK    4  A    between atoms: C_8  and  C_14
REMARK    5  A    between atoms: C_9  and  C_13
REMARK    6  A    between atoms: C_13  and  C_15
REMARK    7  A    between atoms: C_14  and  C_16
REMARK    8  A    between atoms: C_18  and  C_20
REMARK    9  A    between atoms: C_19  and  C_21
REMARK                            x       y       z     vdW  Elec       q    Type
REMARK                         _______ _______ _______ _____ _____    ______ ____
ROOT
ATOM      5  N   UNL     1      -1.126 -10.154  16.914  0.00  0.00    -0.316 NA
ATOM      8  C   UNL     1      -2.299  -9.592  14.266  0.00  0.00    +0.004 C 
ATOM      9  C   UNL     1      -3.160  -9.919  15.509  0.00  0.00    +0.012 C 
ATOM     10  C   UNL     1      -0.948  -9.021  14.726  0.00  0.00    +0.019 C 
ATOM     11  C   UNL     1      -2.389 -10.781  16.523  0.00  0.00    +0.085 C 
ATOM     12  C   UNL     1      -0.261  -9.910  15.761  0.00  0.00    +0.081 C 
ATOM     26  H   UNL     1      -0.642 -10.757  17.578  0.00  0.00    +0.122 HD
ENDROOT
BRANCH   9  13
ATOM     13  C   UNL     1      -4.498 -10.569  15.157  0.00  0.00    +0.064 C 
BRANCH  13  15
ATOM      3  O   UNL     1      -6.502  -9.692  18.016  0.00  0.00    -0.357 OA
ATOM      7  N   UNL     1      -5.311 -10.099  17.427  0.00  0.00    -0.083 NA
ATOM     15  C   UNL     1      -5.576 -10.159  16.119  0.00  0.00    +0.084 A 
ATOM     17  C   UNL     1      -6.904  -9.806  15.826  0.00  0.00    +0.073 A 
ATOM     18  C   UNL     1      -7.443  -9.521  17.054  0.00  0.00    +0.163 A 
BRANCH  18  20
ATOM     20  C   UNL     1      -8.772  -9.090  17.505  0.00  0.00    +0.236 C 
BRANCH  20   4
ATOM      4  O   UNL     1      -9.676  -9.028  16.399  0.00  0.00    -0.375 OA
ATOM     25  C   UNL     1      -9.921  -7.687  16.011  0.00  0.00    +0.194 C 
ENDBRANCH  20   4
ENDBRANCH  18  20
ENDBRANCH  13  15
ENDBRANCH   9  13
BRANCH   8  14
ATOM     14  C   UNL     1      -2.095 -10.781  13.319  0.00  0.00    +0.099 C 
BRANCH  14  16
ATOM      2  O   UNL     1      -1.124 -10.087  11.214  0.00  0.00    -0.276 OA
ATOM      6  N   UNL     1      -3.427 -10.348  11.378  0.00  0.00    -0.311 N 
ATOM     16  C   UNL     1      -2.129 -10.367  11.863  0.00  0.00    +0.214 C 
ATOM     27  H   UNL     1      -4.197 -10.602  11.992  0.00  0.00    +0.149 HD
BRANCH   6  19
ATOM     19  C   UNL     1      -3.757  -9.986  10.018  0.00  0.00    +0.146 C 
BRANCH  19  21
ATOM      1  S   UNL     1      -6.345 -10.173  11.009  0.00  0.00    -0.100 S 
ATOM     21  C   UNL     1      -5.200  -9.598   9.874  0.00  0.00    +0.007 A 
ATOM     22  C   UNL     1      -5.782  -8.803   8.909  0.00  0.00    +0.013 A 
ATOM     23  C   UNL     1      -7.186  -8.664   9.107  0.00  0.00    +0.008 A 
ATOM     24  C   UNL     1      -7.625  -9.359  10.214  0.00  0.00    +0.045 A 
ENDBRANCH  19  21
ENDBRANCH   6  19
ENDBRANCH  14  16
ENDBRANCH   8  14
TORSDOF 8
ENDMDL
MODEL 7
REMARK VINA RESULT:      -2.5      2.306      3.410
REMARK  Name = 26743054
REMARK  9 active torsions:
REMARK  status: ('A' for Active; 'I' for Inactive)
REMARK    1  A    between atoms: O_4  and  C_20
REMARK    2  A    between atoms: O_4  and  C_25
REMARK    3  A    between atoms: N_6  and  C_19
REMARK    4  A    between atoms: C_8  and  C_14
REMARK    5  A    between atoms: C_9  and  C_13
REMARK    6  A    between atoms: C_13  and  C_15
REMARK    7  A    between atoms: C_14  and  C_16
REMARK    8  A    between atoms: C_18  and  C_20
REMARK    9  A    between atoms: C_19  and  C_21
REMARK                            x       y       z     vdW  Elec       q    Type
REMARK                         _______ _______ _______ _____ _____    ______ ____
ROOT
ATOM      5  N   UNL     1      -1.350   1.308  25.714  0.00  0.00    -0.316 NA
ATOM      8  C   UNL     1      -0.630  -1.389  24.760  0.00  0.00    +0.004 C 
ATOM      9  C   UNL     1      -0.024  -0.100  24.156  0.00  0.00    +0.012 C 
ATOM     10  C   UNL     1      -1.095  -1.101  26.197  0.00  0.00    +0.019 C 
ATOM     11  C   UNL     1      -0.971   1.102  24.316  0.00  0.00    +0.085 C 
ATOM     12  C   UNL     1      -1.998   0.128  26.281  0.00  0.00    +0.081 C 
ATOM     26  H   UNL     1      -1.982   2.105  25.779  0.00  0.00    +0.122 HD
ENDROOT
BRANCH   9  13
ATOM     13  C   UNL     1       0.397  -0.263  22.695  0.00  0.00    +0.064 C 
BRANCH  13  15
ATOM      3  O   UNL     1       3.756   0.215  21.492  0.00  0.00    -0.357 OA
ATOM      7  N   UNL     1       2.424  -0.138  21.313  0.00  0.00    -0.083 NA
ATOM     15  C   UNL     1       1.859   0.028  22.512  0.00  0.00    +0.084 A 
ATOM     17  C   UNL     1       2.776   0.477  23.477  0.00  0.00    +0.073 A 
ATOM     18  C   UNL     1       3.954   0.579  22.785  0.00  0.00    +0.163 A 
BRANCH  18  20
ATOM     20  C   UNL     1       5.317   0.984  23.150  0.00  0.00    +0.236 C 
BRANCH  20   4
ATOM      4  O   UNL     1       6.118  -0.167  23.429  0.00  0.00    -0.375 OA
ATOM     25  C   UNL     1       5.419  -1.093  24.244  0.00  0.00    +0.194 C 
ENDBRANCH  20   4
ENDBRANCH  18  20
ENDBRANCH  13  15
ENDBRANCH   9  13
BRANCH   8  14
ATOM     14  C   UNL     1      -1.769  -1.991  23.927  0.00  0.00    +0.099 C 
BRANCH  14  16
ATOM      2  O   UNL     1      -3.681  -2.435  25.343  0.00  0.00    -0.276 OA
ATOM      6  N   UNL     1      -3.655  -0.520  24.027  0.00  0.00    -0.311 N 
ATOM     16  C   UNL     1      -3.130  -1.702  24.525  0.00  0.00    +0.214 C 
ATOM     27  H   UNL     1      -3.120   0.023  23.355  0.00  0.00    +0.149 HD
BRANCH   6  19
ATOM     19  C   UNL     1      -4.944  -0.000  24.422  0.00  0.00    +0.146 C 
BRANCH  19  21
ATOM      1  S   UNL     1      -5.896   2.158  25.889  0.00  0.00    -0.100 S 
ATOM     21  C   UNL     1      -4.900   1.480  24.673  0.00  0.00    +0.007 A 
ATOM     22  C   UNL     1      -4.137   2.435  24.037  0.00  0.00    +0.013 A 
ATOM     23  C   UNL     1      -4.372   3.741  24.556  0.00  0.00    +0.008 A 
ATOM     24  C   UNL     1      -5.308   3.734  25.569  0.00  0.00    +0.045 A 
ENDBRANCH  19  21
ENDBRANCH   6  19
ENDBRANCH  14  16
ENDBRANCH   8  14
TORSDOF 8
ENDMDL
MODEL 8
REMARK VINA RESULT:      -2.3      2.719      7.363
REMARK  Name = 26743054
REMARK  9 active torsions:
REMARK  status: ('A' for Active; 'I' for Inactive)
REMARK    1  A    between atoms: O_4  and  C_20
REMARK    2  A    between atoms: O_4  and  C_25
REMARK    3  A    between atoms: N_6  and  C_19
REMARK    4  A    between atoms: C_8  and  C_14
REMARK    5  A    between atoms: C_9  and  C_13
REMARK    6  A    between atoms: C_13  and  C_15
REMARK    7  A    between atoms: C_14  and  C_16
REMARK    8  A    between atoms: C_18  and  C_20
REMARK    9  A    between atoms: C_19  and  C_21
REMARK                            x       y       z     vdW  Elec       q    Type
REMARK                         _______ _______ _______ _____ _____    ______ ____
ROOT
ATOM      5  N   UNL     1      -2.199   4.999  24.819  0.00  0.00    -0.316 NA
ATOM      8  C   UNL     1      -0.610   2.729  23.804  0.00  0.00    +0.004 C 
ATOM      9  C   UNL     1      -2.049   3.026  23.318  0.00  0.00    +0.012 C 
ATOM     10  C   UNL     1       0.020   4.029  24.332  0.00  0.00    +0.019 C 
ATOM     11  C   UNL     1      -2.867   3.771  24.386  0.00  0.00    +0.085 C 
ATOM     12  C   UNL     1      -0.868   4.732  25.358  0.00  0.00    +0.081 C 
ATOM     26  H   UNL     1      -2.766   5.459  25.530  0.00  0.00    +0.122 HD
ENDROOT
BRANCH   9  13
ATOM     13  C   UNL     1      -2.791   1.776  22.846  0.00  0.00    +0.064 C 
BRANCH  13  15
ATOM      3  O   UNL     1      -4.673  -0.090  25.282  0.00  0.00    -0.357 OA
ATOM      7  N   UNL     1      -3.655   0.031  24.344  0.00  0.00    -0.083 NA
ATOM     15  C   UNL     1      -3.752   1.283  23.890  0.00  0.00    +0.084 A 
ATOM     17  C   UNL     1      -4.802   1.993  24.498  0.00  0.00    +0.073 A 
ATOM     18  C   UNL     1      -5.349   1.084  25.365  0.00  0.00    +0.163 A 
BRANCH  18  20
ATOM     20  C   UNL     1      -6.466   1.131  26.316  0.00  0.00    +0.236 C 
BRANCH  20   4
ATOM      4  O   UNL     1      -6.536   2.419  26.936  0.00  0.00    -0.375 OA
ATOM     25  C   UNL     1      -6.130   3.440  26.041  0.00  0.00    +0.194 C 
ENDBRANCH  20   4
ENDBRANCH  18  20
ENDBRANCH  13  15
ENDBRANCH   9  13
BRANCH   8  14
ATOM     14  C   UNL     1      -0.525   1.615  24.855  0.00  0.00    +0.099 C 
BRANCH  14  16
ATOM      2  O   UNL     1      -0.245  -0.778  24.642  0.00  0.00    -0.276 OA
ATOM      6  N   UNL     1       1.085   0.643  23.373  0.00  0.00    -0.311 N 
ATOM     16  C   UNL     1       0.096   0.351  24.300  0.00  0.00    +0.214 C 
ATOM     27  H   UNL     1       1.293   1.613  23.150  0.00  0.00    +0.149 HD
BRANCH   6  19
ATOM     19  C   UNL     1       1.847  -0.374  22.685  0.00  0.00    +0.146 C 
BRANCH  19  21
ATOM      1  S   UNL     1       4.277   0.972  22.689  0.00  0.00    -0.100 S 
ATOM     21  C   UNL     1       3.292  -0.367  23.096  0.00  0.00    +0.007 A 
ATOM     22  C   UNL     1       3.990  -1.331  23.790  0.00  0.00    +0.013 A 
ATOM     23  C   UNL     1       5.352  -0.964  23.992  0.00  0.00    +0.008 A 
ATOM     24  C   UNL     1       5.643   0.266  23.442  0.00  0.00    +0.045 A 
ENDBRANCH  19  21
ENDBRANCH   6  19
ENDBRANCH  14  16
ENDBRANCH   8  14
TORSDOF 8
ENDMDL
MODEL 9
REMARK VINA RESULT:      -2.3      2.533      6.177
REMARK  Name = 26743054
REMARK  9 active torsions:
REMARK  status: ('A' for Active; 'I' for Inactive)
REMARK    1  A    between atoms: O_4  and  C_20
REMARK    2  A    between atoms: O_4  and  C_25
REMARK    3  A    between atoms: N_6  and  C_19
REMARK    4  A    between atoms: C_8  and  C_14
REMARK    5  A    between atoms: C_9  and  C_13
REMARK    6  A    between atoms: C_13  and  C_15
REMARK    7  A    between atoms: C_14  and  C_16
REMARK    8  A    between atoms: C_18  and  C_20
REMARK    9  A    between atoms: C_19  and  C_21
REMARK                            x       y       z     vdW  Elec       q    Type
REMARK                         _______ _______ _______ _____ _____    ______ ____
ROOT
ATOM      5  N   UNL     1       3.317   1.056  22.233  0.00  0.00    -0.316 NA
ATOM      8  C   UNL     1       0.696  -0.030  23.042  0.00  0.00    +0.004 C 
ATOM      9  C   UNL     1       1.213   1.348  23.519  0.00  0.00    +0.012 C 
ATOM     10  C   UNL     1       1.385  -0.394  21.717  0.00  0.00    +0.019 C 
ATOM     11  C   UNL     1       2.750   1.403  23.537  0.00  0.00    +0.085 C 
ATOM     12  C   UNL     1       2.907  -0.277  21.800  0.00  0.00    +0.081 C 
ATOM     26  H   UNL     1       4.334   1.096  22.286  0.00  0.00    +0.122 HD
ENDROOT
BRANCH   9  13
ATOM     13  C   UNL     1       0.644   1.764  24.876  0.00  0.00    +0.064 C 
BRANCH  13  15
ATOM      3  O   UNL     1      -2.004   4.203  24.821  0.00  0.00    -0.357 OA
ATOM      7  N   UNL     1      -0.702   3.807  25.102  0.00  0.00    -0.083 NA
ATOM     15  C   UNL     1      -0.639   2.529  24.719  0.00  0.00    +0.084 A 
ATOM     17  C   UNL     1      -1.859   2.068  24.195  0.00  0.00    +0.073 A 
ATOM     18  C   UNL     1      -2.684   3.159  24.281  0.00  0.00    +0.163 A 
BRANCH  18  20
ATOM     20  C   UNL     1      -4.085   3.405  23.922  0.00  0.00    +0.236 C 
BRANCH  20   4
ATOM      4  O   UNL     1      -4.729   4.179  24.937  0.00  0.00    -0.375 OA
ATOM     25  C   UNL     1      -5.545   3.365  25.762  0.00  0.00    +0.194 C 
ENDBRANCH  20   4
ENDBRANCH  18  20
ENDBRANCH  13  15
ENDBRANCH   9  13
BRANCH   8  14
ATOM     14  C   UNL     1       0.869  -1.152  24.074  0.00  0.00    +0.099 C 
BRANCH  14  16
ATOM      2  O   UNL     1      -0.685  -1.012  25.923  0.00  0.00    -0.276 OA
ATOM      6  N   UNL     1      -1.233  -2.296  24.066  0.00  0.00    -0.311 N 
ATOM     16  C   UNL     1      -0.417  -1.458  24.810  0.00  0.00    +0.214 C 
ATOM     27  H   UNL     1      -0.928  -2.609  23.148  0.00  0.00    +0.149 HD
BRANCH   6  19
ATOM     19  C   UNL     1      -2.524  -2.754  24.526  0.00  0.00    +0.146 C 
BRANCH  19  21
ATOM      1  S   UNL     1      -3.686  -0.864  26.198  0.00  0.00    -0.100 S 
ATOM     21  C   UNL     1      -3.501  -1.623  24.675  0.00  0.00    +0.007 A 
ATOM     22  C   UNL     1      -4.323  -1.069  23.717  0.00  0.00    +0.013 A 
ATOM     23  C   UNL     1      -5.114  -0.006  24.242  0.00  0.00    +0.008 A 
ATOM     24  C   UNL     1      -4.868   0.211  25.581  0.00  0.00    +0.045 A 
ENDBRANCH  19  21
ENDBRANCH   6  19
ENDBRANCH  14  16
ENDBRANCH   8  14
TORSDOF 8
ENDMDL
