MODEL 1
REMARK VINA RESULT:      -3.3      0.000      0.000
REMARK  Name = 45783724
REMARK  4 active torsions:
REMARK  status: ('A' for Active; 'I' for Inactive)
REMARK    1  A    between atoms: N_3  and  C_10
REMARK    2  A    between atoms: C_11  and  C_19
REMARK    3  A    between atoms: C_20  and  C_21
REMARK    4  A    between atoms: C_22  and  C_23
REMARK                            x       y       z     vdW  Elec       q    Type
REMARK                         _______ _______ _______ _____ _____    ______ ____
ROOT
ATOM      3  N   UNL     1      15.470  -5.595  30.165  0.00  0.00    -0.288 NA
ATOM     11  C   UNL     1      15.040  -5.818  31.560  0.00  0.00    +0.146 C 
ATOM     12  C   UNL     1      16.457  -4.516  30.204  0.00  0.00    +0.085 C 
ATOM     13  C   UNL     1      15.227  -4.454  32.249  0.00  0.00    +0.030 C 
ATOM     16  C   UNL     1      15.823  -3.548  31.182  0.00  0.00    +0.017 C 
ENDROOT
BRANCH   3  10
ATOM      2  O   UNL     1      16.950  -8.527  24.967  0.00  0.00    -0.276 OA
ATOM      4  N   UNL     1      16.276  -8.487  27.190  0.00  0.00    -0.302 N 
ATOM     10  C   UNL     1      15.997  -6.798  29.525  0.00  0.00    +0.060 C 
ATOM     14  C   UNL     1      16.920  -6.414  28.361  0.00  0.00    +0.038 C 
ATOM     15  C   UNL     1      14.843  -7.678  29.028  0.00  0.00    +0.038 C 
ATOM     17  C   UNL     1      17.405  -7.658  27.618  0.00  0.00    +0.109 C 
ATOM     18  C   UNL     1      15.370  -8.897  28.270  0.00  0.00    +0.109 C 
ATOM     20  C   UNL     1      16.155  -8.856  25.851  0.00  0.00    +0.212 C 
ATOM     21  C   UNL     1      14.963  -9.707  25.490  0.00  0.00    +0.109 C 
ENDBRANCH   3  10
BRANCH  11  19
ATOM      1  O   UNL     1      12.632  -5.428  31.410  0.00  0.00    -0.336 OA
ATOM      5  N   UNL     1      13.185  -7.532  31.943  0.00  0.00    -0.190 NA
ATOM      6  N   UNL     1      11.426  -6.124  31.554  0.00  0.00    -0.056 NA
ATOM     19  C   UNL     1      13.618  -6.331  31.654  0.00  0.00    +0.245 A 
ATOM     22  C   UNL     1      11.834  -7.356  31.869  0.00  0.00    +0.207 A 
BRANCH  22  23
ATOM      7  N   UNL     1      10.408 -10.781  32.268  0.00  0.00    -0.220 NA
ATOM      8  N   UNL     1      12.602 -10.105  31.695  0.00  0.00    -0.342 N 
ATOM      9  N   UNL     1       8.694  -9.142  32.696  0.00  0.00    -0.243 NA
ATOM     23  C   UNL     1      10.921  -8.435  32.114  0.00  0.00    +0.080 A 
ATOM     24  C   UNL     1      11.268  -9.767  32.037  0.00  0.00    +0.130 A 
ATOM     25  C   UNL     1       9.607  -8.179  32.451  0.00  0.00    +0.127 A 
ATOM     26  C   UNL     1       9.156 -10.402  32.587  0.00  0.00    +0.223 A 
ATOM     27  H   UNL     1      13.108  -9.501  31.060  0.00  0.00    +0.144 HD
ATOM     28  H   UNL     1      12.817 -11.095  31.662  0.00  0.00    +0.144 HD
ENDBRANCH  22  23
ENDBRANCH  11  19
TORSDOF 3
ENDMDL
MODEL 2
REMARK VINA RESULT:      -2.8     15.777     18.286
REMARK  Name = 45783724
REMARK  4 active torsions:
REMARK  status: ('A' for Active; 'I' for Inactive)
REMARK    1  A    between atoms: N_3  and  C_10
REMARK    2  A    between atoms: C_11  and  C_19
REMARK    3  A    between atoms: C_20  and  C_21
REMARK    4  A    between atoms: C_22  and  C_23
REMARK                            x       y       z     vdW  Elec       q    Type
REMARK                         _______ _______ _______ _____ _____    ______ ____
ROOT
ATOM      3  N   UNL     1      -1.403   2.348  25.375  0.00  0.00    -0.288 NA
ATOM     11  C   UNL     1      -1.024   2.419  23.950  0.00  0.00    +0.146 C 
ATOM     12  C   UNL     1      -1.874   3.683  25.745  0.00  0.00    +0.085 C 
ATOM     13  C   UNL     1      -0.614   3.887  23.728  0.00  0.00    +0.030 C 
ATOM     16  C   UNL     1      -0.855   4.574  25.064  0.00  0.00    +0.017 C 
ENDROOT
BRANCH   3  10
ATOM      2  O   UNL     1      -3.190  -3.502  24.745  0.00  0.00    -0.276 OA
ATOM      4  N   UNL     1      -3.617  -1.237  25.040  0.00  0.00    -0.302 N 
ATOM     10  C   UNL     1      -2.400   1.317  25.655  0.00  0.00    +0.060 C 
ATOM     14  C   UNL     1      -1.707  -0.007  25.999  0.00  0.00    +0.038 C 
ATOM     15  C   UNL     1      -3.328   1.140  24.446  0.00  0.00    +0.038 C 
ATOM     17  C   UNL     1      -2.731  -1.123  26.200  0.00  0.00    +0.109 C 
ATOM     18  C   UNL     1      -4.320   0.000  24.679  0.00  0.00    +0.109 C 
ATOM     20  C   UNL     1      -3.766  -2.467  24.400  0.00  0.00    +0.212 C 
ATOM     21  C   UNL     1      -4.694  -2.501  23.211  0.00  0.00    +0.109 C 
ENDBRANCH   3  10
BRANCH  11  19
ATOM      1  O   UNL     1      -0.283   0.376  22.833  0.00  0.00    -0.336 OA
ATOM      5  N   UNL     1       1.348   1.471  23.910  0.00  0.00    -0.190 NA
ATOM      6  N   UNL     1       0.885  -0.371  22.636  0.00  0.00    -0.056 NA
ATOM     19  C   UNL     1       0.078   1.444  23.593  0.00  0.00    +0.245 A 
ATOM     22  C   UNL     1       1.802   0.338  23.301  0.00  0.00    +0.207 A 
BRANCH  22  23
ATOM      7  N   UNL     1       5.527   0.392  23.100  0.00  0.00    -0.220 NA
ATOM      8  N   UNL     1       3.951   2.076  22.570  0.00  0.00    -0.342 N 
ATOM      9  N   UNL     1       4.797  -1.757  23.909  0.00  0.00    -0.243 NA
ATOM     23  C   UNL     1       3.179  -0.056  23.376  0.00  0.00    +0.080 A 
ATOM     24  C   UNL     1       4.232   0.764  23.029  0.00  0.00    +0.130 A 
ATOM     25  C   UNL     1       3.525  -1.319  23.813  0.00  0.00    +0.127 A 
ATOM     26  C   UNL     1       5.735  -0.863  23.541  0.00  0.00    +0.223 A 
ATOM     27  H   UNL     1       3.103   2.234  22.041  0.00  0.00    +0.144 HD
ATOM     28  H   UNL     1       4.754   2.649  22.339  0.00  0.00    +0.144 HD
ENDBRANCH  22  23
ENDBRANCH  11  19
TORSDOF 3
ENDMDL
MODEL 3
REMARK VINA RESULT:      -1.8      5.219      6.976
REMARK  Name = 45783724
REMARK  4 active torsions:
REMARK  status: ('A' for Active; 'I' for Inactive)
REMARK    1  A    between atoms: N_3  and  C_10
REMARK    2  A    between atoms: C_11  and  C_19
REMARK    3  A    between atoms: C_20  and  C_21
REMARK    4  A    between atoms: C_22  and  C_23
REMARK                            x       y       z     vdW  Elec       q    Type
REMARK                         _______ _______ _______ _____ _____    ______ ____
ROOT
ATOM      3  N   UNL     1      16.467  -4.492  25.029  0.00  0.00    -0.288 NA
ATOM     11  C   UNL     1      17.402  -3.405  25.382  0.00  0.00    +0.146 C 
ATOM     12  C   UNL     1      16.168  -4.335  23.606  0.00  0.00    +0.085 C 
ATOM     13  C   UNL     1      17.074  -2.271  24.393  0.00  0.00    +0.030 C 
ATOM     16  C   UNL     1      15.988  -2.835  23.489  0.00  0.00    +0.017 C 
ENDROOT
BRANCH   3  10
ATOM      2  O   UNL     1      16.003 -10.581  24.306  0.00  0.00    -0.276 OA
ATOM      4  N   UNL     1      16.619  -8.689  25.506  0.00  0.00    -0.302 N 
ATOM     10  C   UNL     1      16.988  -5.822  25.337  0.00  0.00    +0.060 C 
ATOM     14  C   UNL     1      16.955  -6.704  24.082  0.00  0.00    +0.038 C 
ATOM     15  C   UNL     1      16.166  -6.461  26.464  0.00  0.00    +0.038 C 
ATOM     17  C   UNL     1      17.404  -8.128  24.405  0.00  0.00    +0.109 C 
ATOM     18  C   UNL     1      16.631  -7.891  26.739  0.00  0.00    +0.109 C 
ATOM     20  C   UNL     1      15.969  -9.911  25.342  0.00  0.00    +0.212 C 
ATOM     21  C   UNL     1      15.177 -10.419  26.522  0.00  0.00    +0.109 C 
ENDBRANCH   3  10
BRANCH  11  19
ATOM      1  O   UNL     1      16.991  -1.664  27.047  0.00  0.00    -0.336 OA
ATOM      5  N   UNL     1      17.401  -3.686  27.921  0.00  0.00    -0.190 NA
ATOM      6  N   UNL     1      16.924  -1.510  28.437  0.00  0.00    -0.056 NA
ATOM     19  C   UNL     1      17.275  -2.975  26.828  0.00  0.00    +0.245 A 
ATOM     22  C   UNL     1      17.177  -2.743  28.882  0.00  0.00    +0.207 A 
BRANCH  22  23
ATOM      7  N   UNL     1      17.202  -2.440  32.601  0.00  0.00    -0.220 NA
ATOM      8  N   UNL     1      17.088  -0.760  30.939  0.00  0.00    -0.342 N 
ATOM      9  N   UNL     1      17.328  -4.766  31.983  0.00  0.00    -0.243 NA
ATOM     23  C   UNL     1      17.212  -3.070  30.278  0.00  0.00    +0.080 A 
ATOM     24  C   UNL     1      17.170  -2.131  31.287  0.00  0.00    +0.130 A 
ATOM     25  C   UNL     1      17.291  -4.386  30.689  0.00  0.00    +0.127 A 
ATOM     26  C   UNL     1      17.282  -3.756  32.873  0.00  0.00    +0.223 A 
ATOM     27  H   UNL     1      17.543  -0.446  30.091  0.00  0.00    +0.144 HD
ATOM     28  H   UNL     1      17.046  -0.104  31.711  0.00  0.00    +0.144 HD
ENDBRANCH  22  23
ENDBRANCH  11  19
TORSDOF 3
ENDMDL
MODEL 4
REMARK VINA RESULT:      -1.6      3.499      5.225
REMARK  Name = 45783724
REMARK  4 active torsions:
REMARK  status: ('A' for Active; 'I' for Inactive)
REMARK    1  A    between atoms: N_3  and  C_10
REMARK    2  A    between atoms: C_11  and  C_19
REMARK    3  A    between atoms: C_20  and  C_21
REMARK    4  A    between atoms: C_22  and  C_23
REMARK                            x       y       z     vdW  Elec       q    Type
REMARK                         _______ _______ _______ _____ _____    ______ ____
ROOT
ATOM      3  N   UNL     1      16.674  -4.623  25.603  0.00  0.00    -0.288 NA
ATOM     11  C   UNL     1      17.403  -3.674  26.468  0.00  0.00    +0.146 C 
ATOM     12  C   UNL     1      16.627  -4.017  24.272  0.00  0.00    +0.085 C 
ATOM     13  C   UNL     1      17.139  -2.292  25.842  0.00  0.00    +0.030 C 
ATOM     16  C   UNL     1      16.307  -2.572  24.599  0.00  0.00    +0.017 C 
ENDROOT
BRANCH   3  10
ATOM      2  O   UNL     1      16.036 -10.614  24.377  0.00  0.00    -0.276 OA
ATOM      4  N   UNL     1      16.992  -8.837  25.528  0.00  0.00    -0.302 N 
ATOM     10  C   UNL     1      17.272  -5.956  25.578  0.00  0.00    +0.060 C 
ATOM     14  C   UNL     1      16.847  -6.700  24.306  0.00  0.00    +0.038 C 
ATOM     15  C   UNL     1      16.855  -6.744  26.826  0.00  0.00    +0.038 C 
ATOM     17  C   UNL     1      17.383  -8.131  24.307  0.00  0.00    +0.109 C 
ATOM     18  C   UNL     1      17.390  -8.174  26.776  0.00  0.00    +0.109 C 
ATOM     20  C   UNL     1      16.329 -10.061  25.440  0.00  0.00    +0.212 C 
ATOM     21  C   UNL     1      15.957 -10.723  26.743  0.00  0.00    +0.109 C 
ENDBRANCH   3  10
BRANCH  11  19
ATOM      1  O   UNL     1      17.255  -2.677  28.695  0.00  0.00    -0.336 OA
ATOM      5  N   UNL     1      16.339  -4.717  28.543  0.00  0.00    -0.190 NA
ATOM      6  N   UNL     1      16.760  -2.979  29.970  0.00  0.00    -0.056 NA
ATOM     19  C   UNL     1      16.965  -3.753  27.916  0.00  0.00    +0.245 A 
ATOM     22  C   UNL     1      16.236  -4.196  29.800  0.00  0.00    +0.207 A 
BRANCH  22  23
ATOM      7  N   UNL     1      15.395  -6.854  32.281  0.00  0.00    -0.220 NA
ATOM      8  N   UNL     1      17.085  -6.798  30.625  0.00  0.00    -0.342 N 
ATOM      9  N   UNL     1      13.887  -4.994  32.553  0.00  0.00    -0.243 NA
ATOM     23  C   UNL     1      15.601  -4.919  30.864  0.00  0.00    +0.080 A 
ATOM     24  C   UNL     1      15.993  -6.175  31.279  0.00  0.00    +0.130 A 
ATOM     25  C   UNL     1      14.531  -4.372  31.544  0.00  0.00    +0.127 A 
ATOM     26  C   UNL     1      14.364  -6.215  32.864  0.00  0.00    +0.223 A 
ATOM     27  H   UNL     1      17.228  -6.618  29.640  0.00  0.00    +0.144 HD
ATOM     28  H   UNL     1      17.348  -7.714  30.970  0.00  0.00    +0.144 HD
ENDBRANCH  22  23
ENDBRANCH  11  19
TORSDOF 3
ENDMDL
MODEL 5
REMARK VINA RESULT:       0.2     16.758     19.366
REMARK  Name = 45783724
REMARK  4 active torsions:
REMARK  status: ('A' for Active; 'I' for Inactive)
REMARK    1  A    between atoms: N_3  and  C_10
REMARK    2  A    between atoms: C_11  and  C_19
REMARK    3  A    between atoms: C_20  and  C_21
REMARK    4  A    between atoms: C_22  and  C_23
REMARK                            x       y       z     vdW  Elec       q    Type
REMARK                         _______ _______ _______ _____ _____    ______ ____
ROOT
ATOM      3  N   UNL     1      -4.105   1.980  25.259  0.00  0.00    -0.288 NA
ATOM     11  C   UNL     1      -3.479   2.437  24.003  0.00  0.00    +0.146 C 
ATOM     12  C   UNL     1      -5.361   2.719  25.388  0.00  0.00    +0.085 C 
ATOM     13  C   UNL     1      -3.992   3.876  23.811  0.00  0.00    +0.030 C 
ATOM     16  C   UNL     1      -4.946   4.116  24.972  0.00  0.00    +0.017 C 
ENDROOT
BRANCH   3  10
ATOM      2  O   UNL     1      -1.638  -3.652  25.325  0.00  0.00    -0.276 OA
ATOM      4  N   UNL     1      -3.353  -2.160  24.849  0.00  0.00    -0.302 N 
ATOM     10  C   UNL     1      -4.312   0.534  25.307  0.00  0.00    +0.060 C 
ATOM     14  C   UNL     1      -3.271  -0.116  26.228  0.00  0.00    +0.038 C 
ATOM     15  C   UNL     1      -4.224  -0.058  23.895  0.00  0.00    +0.038 C 
ATOM     17  C   UNL     1      -3.409  -1.638  26.217  0.00  0.00    +0.109 C 
ATOM     18  C   UNL     1      -4.342  -1.582  23.930  0.00  0.00    +0.109 C 
ATOM     20  C   UNL     1      -2.435  -3.157  24.525  0.00  0.00    +0.212 C 
ATOM     21  C   UNL     1      -2.438  -3.638  23.095  0.00  0.00    +0.109 C 
ENDBRANCH   3  10
BRANCH  11  19
ATOM      1  O   UNL     1      -1.328   3.331  24.743  0.00  0.00    -0.336 OA
ATOM      5  N   UNL     1      -1.167   1.474  23.499  0.00  0.00    -0.190 NA
ATOM      6  N   UNL     1       0.039   3.048  24.639  0.00  0.00    -0.056 NA
ATOM     19  C   UNL     1      -1.967   2.356  24.044  0.00  0.00    +0.245 A 
ATOM     22  C   UNL     1       0.054   1.941  23.891  0.00  0.00    +0.207 A 
BRANCH  22  23
ATOM      7  N   UNL     1       2.545  -0.721  23.097  0.00  0.00    -0.220 NA
ATOM      8  N   UNL     1       0.280  -0.906  23.756  0.00  0.00    -0.342 N 
ATOM      9  N   UNL     1       3.575   1.443  22.848  0.00  0.00    -0.243 NA
ATOM     23  C   UNL     1       1.269   1.275  23.519  0.00  0.00    +0.080 A 
ATOM     24  C   UNL     1       1.401  -0.096  23.447  0.00  0.00    +0.130 A 
ATOM     25  C   UNL     1       2.400   2.002  23.206  0.00  0.00    +0.127 A 
ATOM     26  C   UNL     1       3.577   0.097  22.815  0.00  0.00    +0.223 A 
ATOM     27  H   UNL     1      -0.373  -0.583  24.458  0.00  0.00    +0.144 HD
ATOM     28  H   UNL     1       0.417  -1.907  23.678  0.00  0.00    +0.144 HD
ENDBRANCH  22  23
ENDBRANCH  11  19
TORSDOF 3
ENDMDL
