MODEL 1
REMARK VINA RESULT:      -5.3      0.000      0.000
REMARK  Name = 40777833
REMARK  11 active torsions:
REMARK  status: ('A' for Active; 'I' for Inactive)
REMARK    1  A    between atoms: O_2  and  C_8
REMARK    2  A    between atoms: O_3  and  C_9
REMARK    3  A    between atoms: N_6  and  C_13
REMARK    4  A    between atoms: N_7  and  C_15
REMARK    5  A    between atoms: C_10  and  C_12
REMARK    6  A    between atoms: C_11  and  C_13
REMARK    7  A    between atoms: C_12  and  C_14
REMARK    8  A    between atoms: C_15  and  C_18
REMARK    9  A    between atoms: C_15  and  C_19
REMARK   10  A    between atoms: C_16  and  C_17
REMARK   11  A    between atoms: C_24  and  C_25
REMARK                            x       y       z     vdW  Elec       q    Type
REMARK                         _______ _______ _______ _____ _____    ______ ____
ROOT
ATOM      1  O   UNL     1      -2.500   2.750  23.282  0.00  0.00    -0.366 OA
ATOM      8  C   UNL     1      -2.792   3.224  25.574  0.00  0.00    +0.175 C 
ATOM      9  C   UNL     1      -1.322   3.389  25.248  0.00  0.00    +0.176 C 
ATOM     10  C   UNL     1      -3.426   3.359  24.200  0.00  0.00    +0.158 C 
ATOM     11  C   UNL     1      -1.206   2.648  23.920  0.00  0.00    +0.167 C 
ENDROOT
BRANCH   8   2
ATOM      2  O   UNL     1      -3.277   4.193  26.478  0.00  0.00    -0.387 OA
ATOM     26  H   UNL     1      -3.237   5.055  26.030  0.00  0.00    +0.210 HD
ENDBRANCH   8   2
BRANCH   9   3
ATOM      3  O   UNL     1      -1.019   4.765  25.016  0.00  0.00    -0.387 OA
ATOM     27  H   UNL     1      -1.493   5.283  25.688  0.00  0.00    +0.210 HD
ENDBRANCH   9   3
BRANCH  10  12
ATOM     12  C   UNL     1      -4.778   2.677  24.090  0.00  0.00    +0.130 C 
BRANCH  12  14
ATOM      4  O   UNL     1      -5.494   1.373  25.998  0.00  0.00    -0.276 OA
ATOM      7  N   UNL     1      -4.166   0.372  24.374  0.00  0.00    -0.313 N 
ATOM     14  C   UNL     1      -4.870   1.425  24.941  0.00  0.00    +0.216 C 
ATOM     29  H   UNL     1      -3.724   0.501  23.469  0.00  0.00    +0.149 HD
BRANCH   7  15
ATOM     15  C   UNL     1      -4.085  -0.939  24.978  0.00  0.00    +0.067 C 
ATOM     18  C   UNL     1      -4.138  -2.024  23.909  0.00  0.00    +0.027 C 
ATOM     19  C   UNL     1      -2.823  -1.056  25.822  0.00  0.00    +0.027 C 
ENDBRANCH   7  15
ENDBRANCH  12  14
ENDBRANCH  10  12
BRANCH  11  13
ATOM     13  C   UNL     1      -0.884   1.170  24.088  0.00  0.00    +0.138 C 
BRANCH  13   6
ATOM      5  O   UNL     1       0.554  -0.338  22.113  0.00  0.00    -0.270 OA
ATOM      6  N   UNL     1       0.530   0.941  24.049  0.00  0.00    -0.309 N 
ATOM     16  C   UNL     1       1.146   0.194  23.048  0.00  0.00    +0.244 C 
ATOM     28  H   UNL     1       1.071   1.306  24.825  0.00  0.00    +0.149 HD
BRANCH  16  17
ATOM     17  C   UNL     1       2.618   0.027  23.165  0.00  0.00    +0.037 A 
ATOM     20  C   UNL     1       3.469   1.068  22.796  0.00  0.00    +0.013 A 
ATOM     21  C   UNL     1       3.148  -1.171  23.643  0.00  0.00    +0.013 A 
ATOM     22  C   UNL     1       4.851   0.912  22.906  0.00  0.00    +0.004 A 
ATOM     23  C   UNL     1       4.530  -1.327  23.754  0.00  0.00    +0.004 A 
ATOM     24  C   UNL     1       5.381  -0.286  23.385  0.00  0.00    -0.050 A 
ATOM     25  C   UNL     1       6.859  -0.454  23.502  0.00  0.00    +0.044 C 
ENDBRANCH  16  17
ENDBRANCH  13   6
ENDBRANCH  11  13
TORSDOF 8
ENDMDL
MODEL 2
REMARK VINA RESULT:      -4.4      1.684      6.239
REMARK  Name = 40777833
REMARK  11 active torsions:
REMARK  status: ('A' for Active; 'I' for Inactive)
REMARK    1  A    between atoms: O_2  and  C_8
REMARK    2  A    between atoms: O_3  and  C_9
REMARK    3  A    between atoms: N_6  and  C_13
REMARK    4  A    between atoms: N_7  and  C_15
REMARK    5  A    between atoms: C_10  and  C_12
REMARK    6  A    between atoms: C_11  and  C_13
REMARK    7  A    between atoms: C_12  and  C_14
REMARK    8  A    between atoms: C_15  and  C_18
REMARK    9  A    between atoms: C_15  and  C_19
REMARK   10  A    between atoms: C_16  and  C_17
REMARK   11  A    between atoms: C_24  and  C_25
REMARK                            x       y       z     vdW  Elec       q    Type
REMARK                         _______ _______ _______ _____ _____    ______ ____
ROOT
ATOM      1  O   UNL     1      -1.824   3.532  26.494  0.00  0.00    -0.366 OA
ATOM      8  C   UNL     1      -0.979   3.752  24.304  0.00  0.00    +0.175 C 
ATOM      9  C   UNL     1      -1.846   4.961  24.592  0.00  0.00    +0.176 C 
ATOM     10  C   UNL     1      -0.648   3.273  25.707  0.00  0.00    +0.158 C 
ATOM     11  C   UNL     1      -2.651   4.492  25.799  0.00  0.00    +0.167 C 
ENDROOT
BRANCH   8   2
ATOM      2  O   UNL     1       0.181   4.060  23.561  0.00  0.00    -0.387 OA
ATOM     26  H   UNL     1      -0.080   4.124  22.627  0.00  0.00    +0.210 HD
ENDBRANCH   8   2
BRANCH   9   3
ATOM      3  O   UNL     1      -1.037   6.064  25.000  0.00  0.00    -0.387 OA
ATOM     27  H   UNL     1      -1.554   6.874  24.851  0.00  0.00    +0.210 HD
ENDBRANCH   9   3
BRANCH  10  12
ATOM     12  C   UNL     1      -0.303   1.796  25.773  0.00  0.00    +0.130 C 
BRANCH  12  14
ATOM      4  O   UNL     1      -0.886   0.691  23.702  0.00  0.00    -0.276 OA
ATOM      7  N   UNL     1       1.323   1.312  24.072  0.00  0.00    -0.313 N 
ATOM     14  C   UNL     1      -0.019   1.202  24.406  0.00  0.00    +0.216 C 
ATOM     29  H   UNL     1       1.953   1.797  24.703  0.00  0.00    +0.149 HD
BRANCH   7  15
ATOM     15  C   UNL     1       1.867   0.825  22.825  0.00  0.00    +0.067 C 
ATOM     18  C   UNL     1       3.389   0.916  22.834  0.00  0.00    +0.027 C 
ATOM     19  C   UNL     1       1.402  -0.602  22.565  0.00  0.00    +0.027 C 
ENDBRANCH   7  15
ENDBRANCH  12  14
ENDBRANCH  10  12
BRANCH  11  13
ATOM     13  C   UNL     1      -3.951   3.797  25.415  0.00  0.00    +0.138 C 
BRANCH  13   6
ATOM      5  O   UNL     1      -5.815   1.654  25.835  0.00  0.00    -0.270 OA
ATOM      6  N   UNL     1      -3.732   2.407  25.142  0.00  0.00    -0.309 N 
ATOM     16  C   UNL     1      -4.697   1.431  25.378  0.00  0.00    +0.244 C 
ATOM     28  H   UNL     1      -2.808   2.148  24.816  0.00  0.00    +0.149 HD
BRANCH  16  17
ATOM     17  C   UNL     1      -4.305   0.032  25.068  0.00  0.00    +0.037 A 
ATOM     20  C   UNL     1      -4.720  -0.560  23.874  0.00  0.00    +0.013 A 
ATOM     21  C   UNL     1      -3.524  -0.690  25.970  0.00  0.00    +0.013 A 
ATOM     22  C   UNL     1      -4.351  -1.874  23.582  0.00  0.00    +0.004 A 
ATOM     23  C   UNL     1      -3.156  -2.004  25.677  0.00  0.00    +0.004 A 
ATOM     24  C   UNL     1      -3.569  -2.595  24.484  0.00  0.00    -0.050 A 
ATOM     25  C   UNL     1      -3.176  -4.000  24.173  0.00  0.00    +0.044 C 
ENDBRANCH  16  17
ENDBRANCH  13   6
ENDBRANCH  11  13
TORSDOF 8
ENDMDL
MODEL 3
REMARK VINA RESULT:      -4.3      1.779      3.746
REMARK  Name = 40777833
REMARK  11 active torsions:
REMARK  status: ('A' for Active; 'I' for Inactive)
REMARK    1  A    between atoms: O_2  and  C_8
REMARK    2  A    between atoms: O_3  and  C_9
REMARK    3  A    between atoms: N_6  and  C_13
REMARK    4  A    between atoms: N_7  and  C_15
REMARK    5  A    between atoms: C_10  and  C_12
REMARK    6  A    between atoms: C_11  and  C_13
REMARK    7  A    between atoms: C_12  and  C_14
REMARK    8  A    between atoms: C_15  and  C_18
REMARK    9  A    between atoms: C_15  and  C_19
REMARK   10  A    between atoms: C_16  and  C_17
REMARK   11  A    between atoms: C_24  and  C_25
REMARK                            x       y       z     vdW  Elec       q    Type
REMARK                         _______ _______ _______ _____ _____    ______ ____
ROOT
ATOM      1  O   UNL     1      -2.401   0.105  25.519  0.00  0.00    -0.366 OA
ATOM      8  C   UNL     1      -3.681  -1.107  23.953  0.00  0.00    +0.175 C 
ATOM      9  C   UNL     1      -2.318  -1.761  24.045  0.00  0.00    +0.176 C 
ATOM     10  C   UNL     1      -3.743  -0.345  25.265  0.00  0.00    +0.158 C 
ATOM     11  C   UNL     1      -1.486  -0.668  24.709  0.00  0.00    +0.167 C 
ENDROOT
BRANCH   8   2
ATOM      2  O   UNL     1      -4.738  -2.033  23.827  0.00  0.00    -0.387 OA
ATOM     26  H   UNL     1      -5.526  -1.634  24.236  0.00  0.00    +0.210 HD
ENDBRANCH   8   2
BRANCH   9   3
ATOM      3  O   UNL     1      -2.365  -2.880  24.930  0.00  0.00    -0.387 OA
ATOM     27  H   UNL     1      -2.427  -2.531  25.836  0.00  0.00    +0.210 HD
ENDBRANCH   9   3
BRANCH  10  12
ATOM     12  C   UNL     1      -4.684   0.846  25.227  0.00  0.00    +0.130 C 
BRANCH  12  14
ATOM      4  O   UNL     1      -4.381   2.569  23.557  0.00  0.00    -0.276 OA
ATOM      7  N   UNL     1      -3.025   2.569  25.445  0.00  0.00    -0.313 N 
ATOM     14  C   UNL     1      -4.037   2.081  24.630  0.00  0.00    +0.216 C 
ATOM     29  H   UNL     1      -2.850   2.122  26.340  0.00  0.00    +0.149 HD
BRANCH   7  15
ATOM     15  C   UNL     1      -2.241   3.737  25.115  0.00  0.00    +0.067 C 
ATOM     18  C   UNL     1      -2.759   4.959  25.865  0.00  0.00    +0.027 C 
ATOM     19  C   UNL     1      -0.768   3.489  25.415  0.00  0.00    +0.027 C 
ENDBRANCH   7  15
ENDBRANCH  12  14
ENDBRANCH  10  12
BRANCH  11  13
ATOM     13  C   UNL     1      -0.837   0.277  23.707  0.00  0.00    +0.138 C 
BRANCH  13   6
ATOM      5  O   UNL     1       1.008  -0.491  21.644  0.00  0.00    -0.270 OA
ATOM      6  N   UNL     1       0.592   0.236  23.809  0.00  0.00    -0.309 N 
ATOM     16  C   UNL     1       1.413  -0.151  22.753  0.00  0.00    +0.244 C 
ATOM     28  H   UNL     1       0.989   0.451  24.717  0.00  0.00    +0.149 HD
BRANCH  16  17
ATOM     17  C   UNL     1       2.873  -0.166  23.027  0.00  0.00    +0.037 A 
ATOM     20  C   UNL     1       3.472  -1.311  23.553  0.00  0.00    +0.013 A 
ATOM     21  C   UNL     1       3.645   0.965  22.761  0.00  0.00    +0.013 A 
ATOM     22  C   UNL     1       4.843  -1.326  23.811  0.00  0.00    +0.004 A 
ATOM     23  C   UNL     1       5.016   0.949  23.018  0.00  0.00    +0.004 A 
ATOM     24  C   UNL     1       5.614  -0.195  23.543  0.00  0.00    -0.050 A 
ATOM     25  C   UNL     1       7.080  -0.210  23.820  0.00  0.00    +0.044 C 
ENDBRANCH  16  17
ENDBRANCH  13   6
ENDBRANCH  11  13
TORSDOF 8
ENDMDL
MODEL 4
REMARK VINA RESULT:      -3.8      2.111      7.667
REMARK  Name = 40777833
REMARK  11 active torsions:
REMARK  status: ('A' for Active; 'I' for Inactive)
REMARK    1  A    between atoms: O_2  and  C_8
REMARK    2  A    between atoms: O_3  and  C_9
REMARK    3  A    between atoms: N_6  and  C_13
REMARK    4  A    between atoms: N_7  and  C_15
REMARK    5  A    between atoms: C_10  and  C_12
REMARK    6  A    between atoms: C_11  and  C_13
REMARK    7  A    between atoms: C_12  and  C_14
REMARK    8  A    between atoms: C_15  and  C_18
REMARK    9  A    between atoms: C_15  and  C_19
REMARK   10  A    between atoms: C_16  and  C_17
REMARK   11  A    between atoms: C_24  and  C_25
REMARK                            x       y       z     vdW  Elec       q    Type
REMARK                         _______ _______ _______ _____ _____    ______ ____
ROOT
ATOM      1  O   UNL     1      -0.661  -1.809  23.952  0.00  0.00    -0.366 OA
ATOM      8  C   UNL     1      -0.764   0.210  25.167  0.00  0.00    +0.175 C 
ATOM      9  C   UNL     1      -1.348  -0.885  26.035  0.00  0.00    +0.176 C 
ATOM     10  C   UNL     1       0.071  -0.593  24.184  0.00  0.00    +0.158 C 
ATOM     11  C   UNL     1      -1.627  -1.984  25.014  0.00  0.00    +0.167 C 
ENDROOT
BRANCH   8   2
ATOM      2  O   UNL     1       0.015   1.140  25.888  0.00  0.00    -0.387 OA
ATOM     26  H   UNL     1       0.202   0.749  26.759  0.00  0.00    +0.210 HD
ENDBRANCH   8   2
BRANCH   9   3
ATOM      3  O   UNL     1      -0.364  -1.369  26.949  0.00  0.00    -0.387 OA
ATOM     27  H   UNL     1      -0.652  -1.121  27.844  0.00  0.00    +0.210 HD
ENDBRANCH   9   3
BRANCH  10  12
ATOM     12  C   UNL     1       0.304   0.124  22.866  0.00  0.00    +0.130 C 
BRANCH  12  14
ATOM      4  O   UNL     1       1.890  -0.326  21.095  0.00  0.00    -0.276 OA
ATOM      7  N   UNL     1       2.652  -0.160  23.285  0.00  0.00    -0.313 N 
ATOM     14  C   UNL     1       1.683  -0.145  22.292  0.00  0.00    +0.216 C 
ATOM     29  H   UNL     1       2.386   0.051  24.242  0.00  0.00    +0.149 HD
BRANCH   7  15
ATOM     15  C   UNL     1       4.053  -0.396  23.016  0.00  0.00    +0.067 C 
ATOM     18  C   UNL     1       4.857   0.885  23.207  0.00  0.00    +0.027 C 
ATOM     19  C   UNL     1       4.581  -1.516  23.902  0.00  0.00    +0.027 C 
ENDBRANCH   7  15
ENDBRANCH  12  14
ENDBRANCH  10  12
BRANCH  11  13
ATOM     13  C   UNL     1      -3.018  -1.888  24.402  0.00  0.00    +0.138 C 
BRANCH  13   6
ATOM      5  O   UNL     1      -3.137   0.444  22.730  0.00  0.00    -0.270 OA
ATOM      6  N   UNL     1      -3.638  -0.637  24.722  0.00  0.00    -0.309 N 
ATOM     16  C   UNL     1      -3.649   0.446  23.846  0.00  0.00    +0.244 C 
ATOM     28  H   UNL     1      -4.030  -0.549  25.653  0.00  0.00    +0.149 HD
BRANCH  16  17
ATOM     17  C   UNL     1      -4.310   1.682  24.339  0.00  0.00    +0.037 A 
ATOM     20  C   UNL     1      -5.452   1.592  25.135  0.00  0.00    +0.013 A 
ATOM     21  C   UNL     1      -3.791   2.932  24.004  0.00  0.00    +0.013 A 
ATOM     22  C   UNL     1      -6.073   2.752  25.599  0.00  0.00    +0.004 A 
ATOM     23  C   UNL     1      -4.412   4.093  24.467  0.00  0.00    +0.004 A 
ATOM     24  C   UNL     1      -5.553   4.002  25.264  0.00  0.00    -0.050 A 
ATOM     25  C   UNL     1      -6.217   5.243  25.757  0.00  0.00    +0.044 C 
ENDBRANCH  16  17
ENDBRANCH  13   6
ENDBRANCH  11  13
TORSDOF 8
ENDMDL
MODEL 5
REMARK VINA RESULT:      -3.6     14.480     16.241
REMARK  Name = 40777833
REMARK  11 active torsions:
REMARK  status: ('A' for Active; 'I' for Inactive)
REMARK    1  A    between atoms: O_2  and  C_8
REMARK    2  A    between atoms: O_3  and  C_9
REMARK    3  A    between atoms: N_6  and  C_13
REMARK    4  A    between atoms: N_7  and  C_15
REMARK    5  A    between atoms: C_10  and  C_12
REMARK    6  A    between atoms: C_11  and  C_13
REMARK    7  A    between atoms: C_12  and  C_14
REMARK    8  A    between atoms: C_15  and  C_18
REMARK    9  A    between atoms: C_15  and  C_19
REMARK   10  A    between atoms: C_16  and  C_17
REMARK   11  A    between atoms: C_24  and  C_25
REMARK                            x       y       z     vdW  Elec       q    Type
REMARK                         _______ _______ _______ _____ _____    ______ ____
ROOT
ATOM      1  O   UNL     1      -7.760  -9.580  15.644  0.00  0.00    -0.366 OA
ATOM      8  C   UNL     1      -9.363 -10.772  16.898  0.00  0.00    +0.175 C 
ATOM      9  C   UNL     1      -8.465 -10.037  17.871  0.00  0.00    +0.176 C 
ATOM     10  C   UNL     1      -9.142  -9.980  15.621  0.00  0.00    +0.158 C 
ATOM     11  C   UNL     1      -7.262  -9.697  16.996  0.00  0.00    +0.167 C 
ENDROOT
BRANCH   8   2
ATOM      2  O   UNL     1     -10.720 -10.781  17.287  0.00  0.00    -0.387 OA
ATOM     26  H   UNL     1     -11.074  -9.889  17.129  0.00  0.00    +0.210 HD
ENDBRANCH   8   2
BRANCH   9   3
ATOM      3  O   UNL     1      -9.075  -8.813  18.279  0.00  0.00    -0.387 OA
ATOM     27  H   UNL     1      -8.364  -8.158  18.392  0.00  0.00    +0.210 HD
ENDBRANCH   9   3
BRANCH  10  12
ATOM     12  C   UNL     1      -9.422 -10.779  14.360  0.00  0.00    +0.130 C 
BRANCH  12  14
ATOM      4  O   UNL     1     -10.244  -9.116  12.808  0.00  0.00    -0.276 OA
ATOM      7  N   UNL     1      -8.228 -10.184  12.362  0.00  0.00    -0.313 N 
ATOM     14  C   UNL     1      -9.371  -9.926  13.106  0.00  0.00    +0.216 C 
ATOM     29  H   UNL     1      -7.540 -10.838  12.721  0.00  0.00    +0.149 HD
BRANCH   7  15
ATOM     15  C   UNL     1      -7.929  -9.511  11.118  0.00  0.00    +0.067 C 
ATOM     18  C   UNL     1      -6.497  -8.989  11.124  0.00  0.00    +0.027 C 
ATOM     19  C   UNL     1      -8.171 -10.445   9.940  0.00  0.00    +0.027 C 
ENDBRANCH   7  15
ENDBRANCH  12  14
ENDBRANCH  10  12
BRANCH  11  13
ATOM     13  C   UNL     1      -6.192 -10.781  17.007  0.00  0.00    +0.138 C 
BRANCH  13   6
ATOM      5  O   UNL     1      -3.326 -10.625  17.090  0.00  0.00    -0.270 OA
ATOM      6  N   UNL     1      -5.310 -10.648  15.886  0.00  0.00    -0.309 N 
ATOM     16  C   UNL     1      -3.925 -10.580  16.019  0.00  0.00    +0.244 C 
ATOM     28  H   UNL     1      -5.744 -10.547  14.976  0.00  0.00    +0.149 HD
BRANCH  16  17
ATOM     17  C   UNL     1      -3.152 -10.415  14.761  0.00  0.00    +0.037 A 
ATOM     20  C   UNL     1      -3.782 -10.584  13.528  0.00  0.00    +0.013 A 
ATOM     21  C   UNL     1      -1.796 -10.092  14.813  0.00  0.00    +0.013 A 
ATOM     22  C   UNL     1      -3.057 -10.429  12.347  0.00  0.00    +0.004 A 
ATOM     23  C   UNL     1      -1.071  -9.937  13.631  0.00  0.00    +0.004 A 
ATOM     24  C   UNL     1      -1.701 -10.105  12.399  0.00  0.00    -0.050 A 
ATOM     25  C   UNL     1      -0.924  -9.941  11.136  0.00  0.00    +0.044 C 
ENDBRANCH  16  17
ENDBRANCH  13   6
ENDBRANCH  11  13
TORSDOF 8
ENDMDL
MODEL 6
REMARK VINA RESULT:      -3.0      3.320      7.076
REMARK  Name = 40777833
REMARK  11 active torsions:
REMARK  status: ('A' for Active; 'I' for Inactive)
REMARK    1  A    between atoms: O_2  and  C_8
REMARK    2  A    between atoms: O_3  and  C_9
REMARK    3  A    between atoms: N_6  and  C_13
REMARK    4  A    between atoms: N_7  and  C_15
REMARK    5  A    between atoms: C_10  and  C_12
REMARK    6  A    between atoms: C_11  and  C_13
REMARK    7  A    between atoms: C_12  and  C_14
REMARK    8  A    between atoms: C_15  and  C_18
REMARK    9  A    between atoms: C_15  and  C_19
REMARK   10  A    between atoms: C_16  and  C_17
REMARK   11  A    between atoms: C_24  and  C_25
REMARK                            x       y       z     vdW  Elec       q    Type
REMARK                         _______ _______ _______ _____ _____    ______ ____
ROOT
ATOM      1  O   UNL     1      -0.928  -1.366  23.562  0.00  0.00    -0.366 OA
ATOM      8  C   UNL     1      -0.904  -0.213  25.619  0.00  0.00    +0.175 C 
ATOM      9  C   UNL     1      -1.003  -1.695  25.917  0.00  0.00    +0.176 C 
ATOM     10  C   UNL     1      -0.340  -0.224  24.208  0.00  0.00    +0.158 C 
ATOM     11  C   UNL     1      -1.448  -2.260  24.572  0.00  0.00    +0.167 C 
ENDROOT
BRANCH   8   2
ATOM      2  O   UNL     1      -0.068   0.483  26.518  0.00  0.00    -0.387 OA
ATOM     26  H   UNL     1      -0.461   1.361  26.660  0.00  0.00    +0.210 HD
ENDBRANCH   8   2
BRANCH   9   3
ATOM      3  O   UNL     1       0.288  -2.227  26.215  0.00  0.00    -0.387 OA
ATOM     27  H   UNL     1       0.307  -2.425  27.168  0.00  0.00    +0.210 HD
ENDBRANCH   9   3
BRANCH  10  12
ATOM     12  C   UNL     1      -0.664   1.033  23.421  0.00  0.00    +0.130 C 
BRANCH  12  14
ATOM      4  O   UNL     1       0.872   2.727  24.211  0.00  0.00    -0.276 OA
ATOM      7  N   UNL     1      -1.380   2.894  24.762  0.00  0.00    -0.313 N 
ATOM     14  C   UNL     1      -0.279   2.300  24.161  0.00  0.00    +0.216 C 
ATOM     29  H   UNL     1      -2.300   2.489  24.619  0.00  0.00    +0.149 HD
BRANCH   7  15
ATOM     15  C   UNL     1      -1.296   4.113  25.533  0.00  0.00    +0.067 C 
ATOM     18  C   UNL     1      -1.269   5.328  24.613  0.00  0.00    +0.027 C 
ATOM     19  C   UNL     1      -2.453   4.195  26.521  0.00  0.00    +0.027 C 
ENDBRANCH   7  15
ENDBRANCH  12  14
ENDBRANCH  10  12
BRANCH  11  13
ATOM     13  C   UNL     1      -2.963  -2.308  24.418  0.00  0.00    +0.138 C 
BRANCH  13   6
ATOM      5  O   UNL     1      -3.642  -0.183  22.609  0.00  0.00    -0.270 OA
ATOM      6  N   UNL     1      -3.557  -1.050  24.761  0.00  0.00    -0.309 N 
ATOM     16  C   UNL     1      -3.854  -0.072  23.814  0.00  0.00    +0.244 C 
ATOM     28  H   UNL     1      -3.705  -0.871  25.748  0.00  0.00    +0.149 HD
BRANCH  16  17
ATOM     17  C   UNL     1      -4.443   1.188  24.334  0.00  0.00    +0.037 A 
ATOM     20  C   UNL     1      -4.191   2.396  23.683  0.00  0.00    +0.013 A 
ATOM     21  C   UNL     1      -5.246   1.165  25.474  0.00  0.00    +0.013 A 
ATOM     22  C   UNL     1      -4.745   3.581  24.171  0.00  0.00    +0.004 A 
ATOM     23  C   UNL     1      -5.800   2.349  25.962  0.00  0.00    +0.004 A 
ATOM     24  C   UNL     1      -5.549   3.556  25.310  0.00  0.00    -0.050 A 
ATOM     25  C   UNL     1      -6.140   4.822  25.833  0.00  0.00    +0.044 C 
ENDBRANCH  16  17
ENDBRANCH  13   6
ENDBRANCH  11  13
TORSDOF 8
ENDMDL
MODEL 7
REMARK VINA RESULT:      -2.8      3.091      6.765
REMARK  Name = 40777833
REMARK  11 active torsions:
REMARK  status: ('A' for Active; 'I' for Inactive)
REMARK    1  A    between atoms: O_2  and  C_8
REMARK    2  A    between atoms: O_3  and  C_9
REMARK    3  A    between atoms: N_6  and  C_13
REMARK    4  A    between atoms: N_7  and  C_15
REMARK    5  A    between atoms: C_10  and  C_12
REMARK    6  A    between atoms: C_11  and  C_13
REMARK    7  A    between atoms: C_12  and  C_14
REMARK    8  A    between atoms: C_15  and  C_18
REMARK    9  A    between atoms: C_15  and  C_19
REMARK   10  A    between atoms: C_16  and  C_17
REMARK   11  A    between atoms: C_24  and  C_25
REMARK                            x       y       z     vdW  Elec       q    Type
REMARK                         _______ _______ _______ _____ _____    ______ ____
ROOT
ATOM      1  O   UNL     1      -2.335  -2.410  23.789  0.00  0.00    -0.366 OA
ATOM      8  C   UNL     1      -2.031  -1.170  25.772  0.00  0.00    +0.175 C 
ATOM      9  C   UNL     1      -3.338  -1.928  25.892  0.00  0.00    +0.176 C 
ATOM     10  C   UNL     1      -1.313  -1.972  24.701  0.00  0.00    +0.158 C 
ATOM     11  C   UNL     1      -3.621  -2.303  24.441  0.00  0.00    +0.167 C 
ENDROOT
BRANCH   8   2
ATOM      2  O   UNL     1      -1.300  -1.123  26.979  0.00  0.00    -0.387 OA
ATOM     26  H   UNL     1      -0.961  -0.217  27.078  0.00  0.00    +0.210 HD
ENDBRANCH   8   2
BRANCH   9   3
ATOM      3  O   UNL     1      -3.145  -3.133  26.632  0.00  0.00    -0.387 OA
ATOM     27  H   UNL     1      -2.272  -3.487  26.388  0.00  0.00    +0.210 HD
ENDBRANCH   9   3
BRANCH  10  12
ATOM     12  C   UNL     1      -0.266  -1.169  23.949  0.00  0.00    +0.130 C 
BRANCH  12  14
ATOM      4  O   UNL     1      -1.107   0.925  23.078  0.00  0.00    -0.276 OA
ATOM      7  N   UNL     1      -0.067   0.898  25.157  0.00  0.00    -0.313 N 
ATOM     14  C   UNL     1      -0.539   0.323  23.985  0.00  0.00    +0.216 C 
ATOM     29  H   UNL     1       0.345   0.304  25.870  0.00  0.00    +0.149 HD
BRANCH   7  15
ATOM     15  C   UNL     1      -0.194   2.308  25.450  0.00  0.00    +0.067 C 
ATOM     18  C   UNL     1       0.407   2.626  26.814  0.00  0.00    +0.027 C 
ATOM     19  C   UNL     1       0.459   3.138  24.352  0.00  0.00    +0.027 C 
ENDBRANCH   7  15
ENDBRANCH  12  14
ENDBRANCH  10  12
BRANCH  11  13
ATOM     13  C   UNL     1      -4.434  -1.248  23.701  0.00  0.00    +0.138 C 
BRANCH  13   6
ATOM      5  O   UNL     1      -5.696   0.887  25.147  0.00  0.00    -0.270 OA
ATOM      6  N   UNL     1      -3.903   0.064  23.925  0.00  0.00    -0.309 N 
ATOM     16  C   UNL     1      -4.588   1.043  24.641  0.00  0.00    +0.244 C 
ATOM     28  H   UNL     1      -3.015   0.276  23.485  0.00  0.00    +0.149 HD
BRANCH  16  17
ATOM     17  C   UNL     1      -3.914   2.361  24.761  0.00  0.00    +0.037 A 
ATOM     20  C   UNL     1      -3.702   2.924  26.020  0.00  0.00    +0.013 A 
ATOM     21  C   UNL     1      -3.492   3.036  23.616  0.00  0.00    +0.013 A 
ATOM     22  C   UNL     1      -3.068   4.162  26.133  0.00  0.00    +0.004 A 
ATOM     23  C   UNL     1      -2.859   4.274  23.729  0.00  0.00    +0.004 A 
ATOM     24  C   UNL     1      -2.647   4.836  24.987  0.00  0.00    -0.050 A 
ATOM     25  C   UNL     1      -1.970   6.160  25.108  0.00  0.00    +0.044 C 
ENDBRANCH  16  17
ENDBRANCH  13   6
ENDBRANCH  11  13
TORSDOF 8
ENDMDL
MODEL 8
REMARK VINA RESULT:      -2.7     15.482     17.242
REMARK  Name = 40777833
REMARK  11 active torsions:
REMARK  status: ('A' for Active; 'I' for Inactive)
REMARK    1  A    between atoms: O_2  and  C_8
REMARK    2  A    between atoms: O_3  and  C_9
REMARK    3  A    between atoms: N_6  and  C_13
REMARK    4  A    between atoms: N_7  and  C_15
REMARK    5  A    between atoms: C_10  and  C_12
REMARK    6  A    between atoms: C_11  and  C_13
REMARK    7  A    between atoms: C_12  and  C_14
REMARK    8  A    between atoms: C_15  and  C_18
REMARK    9  A    between atoms: C_15  and  C_19
REMARK   10  A    between atoms: C_16  and  C_17
REMARK   11  A    between atoms: C_24  and  C_25
REMARK                            x       y       z     vdW  Elec       q    Type
REMARK                         _______ _______ _______ _____ _____    ______ ____
ROOT
ATOM      1  O   UNL     1      -7.590  -9.590  13.337  0.00  0.00    -0.366 OA
ATOM      8  C   UNL     1      -9.186 -10.611  14.741  0.00  0.00    +0.175 C 
ATOM      9  C   UNL     1      -8.205  -9.862  15.619  0.00  0.00    +0.176 C 
ATOM     10  C   UNL     1      -8.989  -9.917  13.404  0.00  0.00    +0.158 C 
ATOM     11  C   UNL     1      -7.031  -9.645  14.669  0.00  0.00    +0.167 C 
ENDROOT
BRANCH   8   2
ATOM      2  O   UNL     1     -10.520 -10.522  15.193  0.00  0.00    -0.387 OA
ATOM     26  H   UNL     1     -10.599 -11.088  15.980  0.00  0.00    +0.210 HD
ENDBRANCH   8   2
BRANCH   9   3
ATOM      3  O   UNL     1      -8.732  -8.583  15.971  0.00  0.00    -0.387 OA
ATOM     27  H   UNL     1      -9.571  -8.473  15.492  0.00  0.00    +0.210 HD
ENDBRANCH   9   3
BRANCH  10  12
ATOM     12  C   UNL     1      -9.371 -10.781  12.215  0.00  0.00    +0.130 C 
BRANCH  12  14
ATOM      4  O   UNL     1     -10.378  -9.791  10.252  0.00  0.00    -0.276 OA
ATOM      7  N   UNL     1      -8.084  -9.598  10.567  0.00  0.00    -0.313 N 
ATOM     14  C   UNL     1      -9.364 -10.009  10.909  0.00  0.00    +0.216 C 
ATOM     29  H   UNL     1      -7.316  -9.786  11.205  0.00  0.00    +0.149 HD
BRANCH   7  15
ATOM     15  C   UNL     1      -7.790  -8.846   9.369  0.00  0.00    +0.067 C 
ATOM     18  C   UNL     1      -8.694  -7.622   9.271  0.00  0.00    +0.027 C 
ATOM     19  C   UNL     1      -6.320  -8.449   9.340  0.00  0.00    +0.027 C 
ENDBRANCH   7  15
ENDBRANCH  12  14
ENDBRANCH  10  12
BRANCH  11  13
ATOM     13  C   UNL     1      -6.018 -10.781  14.705  0.00  0.00    +0.138 C 
BRANCH  13   6
ATOM      5  O   UNL     1      -5.493 -10.693  11.883  0.00  0.00    -0.270 OA
ATOM      6  N   UNL     1      -4.789 -10.398  14.075  0.00  0.00    -0.309 N 
ATOM     16  C   UNL     1      -4.623 -10.384  12.692  0.00  0.00    +0.244 C 
ATOM     28  H   UNL     1      -4.011 -10.185  14.688  0.00  0.00    +0.149 HD
BRANCH  16  17
ATOM     17  C   UNL     1      -3.279  -9.988  12.197  0.00  0.00    +0.037 A 
ATOM     20  C   UNL     1      -2.180 -10.027  13.055  0.00  0.00    +0.013 A 
ATOM     21  C   UNL     1      -3.117  -9.576  10.874  0.00  0.00    +0.013 A 
ATOM     22  C   UNL     1      -0.918  -9.656  12.590  0.00  0.00    +0.004 A 
ATOM     23  C   UNL     1      -1.855  -9.205  10.409  0.00  0.00    +0.004 A 
ATOM     24  C   UNL     1      -0.756  -9.245  11.266  0.00  0.00    -0.050 A 
ATOM     25  C   UNL     1       0.593  -8.847  10.769  0.00  0.00    +0.044 C 
ENDBRANCH  16  17
ENDBRANCH  13   6
ENDBRANCH  11  13
TORSDOF 8
ENDMDL
MODEL 9
REMARK VINA RESULT:      -1.9      3.357      5.149
REMARK  Name = 40777833
REMARK  11 active torsions:
REMARK  status: ('A' for Active; 'I' for Inactive)
REMARK    1  A    between atoms: O_2  and  C_8
REMARK    2  A    between atoms: O_3  and  C_9
REMARK    3  A    between atoms: N_6  and  C_13
REMARK    4  A    between atoms: N_7  and  C_15
REMARK    5  A    between atoms: C_10  and  C_12
REMARK    6  A    between atoms: C_11  and  C_13
REMARK    7  A    between atoms: C_12  and  C_14
REMARK    8  A    between atoms: C_15  and  C_18
REMARK    9  A    between atoms: C_15  and  C_19
REMARK   10  A    between atoms: C_16  and  C_17
REMARK   11  A    between atoms: C_24  and  C_25
REMARK                            x       y       z     vdW  Elec       q    Type
REMARK                         _______ _______ _______ _____ _____    ______ ____
ROOT
ATOM      1  O   UNL     1      -0.309   2.416  23.974  0.00  0.00    -0.366 OA
ATOM      8  C   UNL     1      -1.971   3.829  24.872  0.00  0.00    +0.175 C 
ATOM      9  C   UNL     1      -0.676   4.109  25.606  0.00  0.00    +0.176 C 
ATOM     10  C   UNL     1      -1.463   3.186  23.593  0.00  0.00    +0.158 C 
ATOM     11  C   UNL     1       0.155   2.877  25.264  0.00  0.00    +0.167 C 
ENDROOT
BRANCH   8   2
ATOM      2  O   UNL     1      -2.731   4.990  24.616  0.00  0.00    -0.387 OA
ATOM     26  H   UNL     1      -2.583   5.235  23.686  0.00  0.00    +0.210 HD
ENDBRANCH   8   2
BRANCH   9   3
ATOM      3  O   UNL     1      -0.027   5.250  25.046  0.00  0.00    -0.387 OA
ATOM     27  H   UNL     1      -0.614   6.014  25.183  0.00  0.00    +0.210 HD
ENDBRANCH   9   3
BRANCH  10  12
ATOM     12  C   UNL     1      -2.484   2.281  22.926  0.00  0.00    +0.130 C 
BRANCH  12  14
ATOM      4  O   UNL     1      -4.562   3.418  22.435  0.00  0.00    -0.276 OA
ATOM      7  N   UNL     1      -4.370   2.213  24.413  0.00  0.00    -0.313 N 
ATOM     14  C   UNL     1      -3.912   2.712  23.202  0.00  0.00    +0.216 C 
ATOM     29  H   UNL     1      -3.770   1.596  24.953  0.00  0.00    +0.149 HD
BRANCH   7  15
ATOM     15  C   UNL     1      -5.697   2.472  24.923  0.00  0.00    +0.067 C 
ATOM     18  C   UNL     1      -6.136   1.356  25.863  0.00  0.00    +0.027 C 
ATOM     19  C   UNL     1      -5.742   3.827  25.618  0.00  0.00    +0.027 C 
ENDBRANCH   7  15
ENDBRANCH  12  14
ENDBRANCH  10  12
BRANCH  11  13
ATOM     13  C   UNL     1      -0.028   1.739  26.260  0.00  0.00    +0.138 C 
BRANCH  13   6
ATOM      5  O   UNL     1       0.374  -0.625  24.681  0.00  0.00    -0.270 OA
ATOM      6  N   UNL     1      -1.038   0.823  25.818  0.00  0.00    -0.309 N 
ATOM     16  C   UNL     1      -0.752  -0.304  25.051  0.00  0.00    +0.244 C 
ATOM     28  H   UNL     1      -1.998   1.062  26.042  0.00  0.00    +0.149 HD
BRANCH  16  17
ATOM     17  C   UNL     1      -1.914  -1.138  24.651  0.00  0.00    +0.037 A 
ATOM     20  C   UNL     1      -1.749  -2.507  24.437  0.00  0.00    +0.013 A 
ATOM     21  C   UNL     1      -3.169  -0.553  24.488  0.00  0.00    +0.013 A 
ATOM     22  C   UNL     1      -2.840  -3.291  24.061  0.00  0.00    +0.004 A 
ATOM     23  C   UNL     1      -4.261  -1.338  24.112  0.00  0.00    +0.004 A 
ATOM     24  C   UNL     1      -4.096  -2.705  23.900  0.00  0.00    -0.050 A 
ATOM     25  C   UNL     1      -5.262  -3.543  23.497  0.00  0.00    +0.044 C 
ENDBRANCH  16  17
ENDBRANCH  13   6
ENDBRANCH  11  13
TORSDOF 8
ENDMDL
MODEL 10
REMARK VINA RESULT:      -1.6     14.517     16.227
REMARK  Name = 40777833
REMARK  11 active torsions:
REMARK  status: ('A' for Active; 'I' for Inactive)
REMARK    1  A    between atoms: O_2  and  C_8
REMARK    2  A    between atoms: O_3  and  C_9
REMARK    3  A    between atoms: N_6  and  C_13
REMARK    4  A    between atoms: N_7  and  C_15
REMARK    5  A    between atoms: C_10  and  C_12
REMARK    6  A    between atoms: C_11  and  C_13
REMARK    7  A    between atoms: C_12  and  C_14
REMARK    8  A    between atoms: C_15  and  C_18
REMARK    9  A    between atoms: C_15  and  C_19
REMARK   10  A    between atoms: C_16  and  C_17
REMARK   11  A    between atoms: C_24  and  C_25
REMARK                            x       y       z     vdW  Elec       q    Type
REMARK                         _______ _______ _______ _____ _____    ______ ____
ROOT
ATOM      1  O   UNL     1      -6.717  -9.240  14.536  0.00  0.00    -0.366 OA
ATOM      8  C   UNL     1      -8.423 -10.605  15.423  0.00  0.00    +0.175 C 
ATOM      9  C   UNL     1      -7.574 -10.112  16.577  0.00  0.00    +0.176 C 
ATOM     10  C   UNL     1      -8.102  -9.580  14.350  0.00  0.00    +0.158 C 
ATOM     11  C   UNL     1      -6.310  -9.644  15.863  0.00  0.00    +0.167 C 
ENDROOT
BRANCH   8   2
ATOM      2  O   UNL     1      -9.802 -10.646  15.722  0.00  0.00    -0.387 OA
ATOM     26  H   UNL     1     -10.247 -10.016  15.130  0.00  0.00    +0.210 HD
ENDBRANCH   8   2
BRANCH   9   3
ATOM      3  O   UNL     1      -8.183  -8.976  17.190  0.00  0.00    -0.387 OA
ATOM     27  H   UNL     1      -9.138  -9.030  17.016  0.00  0.00    +0.210 HD
ENDBRANCH   9   3
BRANCH  10  12
ATOM     12  C   UNL     1      -8.317 -10.098  12.939  0.00  0.00    +0.130 C 
BRANCH  12  14
ATOM      4  O   UNL     1      -6.073 -10.781  12.348  0.00  0.00    -0.276 OA
ATOM      7  N   UNL     1      -7.136  -9.156  11.071  0.00  0.00    -0.313 N 
ATOM     14  C   UNL     1      -7.047 -10.072  12.109  0.00  0.00    +0.216 C 
ATOM     29  H   UNL     1      -8.006  -8.652  10.927  0.00  0.00    +0.149 HD
BRANCH   7  15
ATOM     15  C   UNL     1      -6.066  -8.926  10.127  0.00  0.00    +0.067 C 
ATOM     18  C   UNL     1      -6.283  -7.615   9.380  0.00  0.00    +0.027 C 
ATOM     19  C   UNL     1      -4.720  -8.938  10.840  0.00  0.00    +0.027 C 
ENDBRANCH   7  15
ENDBRANCH  12  14
ENDBRANCH  10  12
BRANCH  11  13
ATOM     13  C   UNL     1      -5.267 -10.744  15.717  0.00  0.00    +0.138 C 
BRANCH  13   6
ATOM      5  O   UNL     1      -2.416 -10.781  16.058  0.00  0.00    -0.270 OA
ATOM      6  N   UNL     1      -4.283 -10.396  14.735  0.00  0.00    -0.309 N 
ATOM     16  C   UNL     1      -2.914 -10.443  14.988  0.00  0.00    +0.244 C 
ATOM     28  H   UNL     1      -4.630 -10.053  13.846  0.00  0.00    +0.149 HD
BRANCH  16  17
ATOM     17  C   UNL     1      -2.026 -10.025  13.873  0.00  0.00    +0.037 A 
ATOM     20  C   UNL     1      -2.059 -10.712  12.660  0.00  0.00    +0.013 A 
ATOM     21  C   UNL     1      -1.158  -8.946  14.041  0.00  0.00    +0.013 A 
ATOM     22  C   UNL     1      -1.225 -10.319  11.612  0.00  0.00    +0.004 A 
ATOM     23  C   UNL     1      -0.323  -8.553  12.993  0.00  0.00    +0.004 A 
ATOM     24  C   UNL     1      -0.357  -9.239  11.780  0.00  0.00    -0.050 A 
ATOM     25  C   UNL     1       0.535  -8.820  10.661  0.00  0.00    +0.044 C 
ENDBRANCH  16  17
ENDBRANCH  13   6
ENDBRANCH  11  13
TORSDOF 8
ENDMDL
