MODEL 1
REMARK VINA RESULT:      -1.4      0.000      0.000
REMARK  Name = 45361548
REMARK  10 active torsions:
REMARK  status: ('A' for Active; 'I' for Inactive)
REMARK    1  A    between atoms: O_1  and  C_12
REMARK    2  A    between atoms: N_4  and  C_16
REMARK    3  A    between atoms: N_5  and  C_26
REMARK    4  A    between atoms: C_9  and  C_19
REMARK    5  A    between atoms: C_11  and  C_21
REMARK    6  A    between atoms: C_15  and  C_20
REMARK    7  A    between atoms: C_20  and  C_22
REMARK    8  A    between atoms: C_20  and  C_23
REMARK    9  A    between atoms: C_24  and  C_25
REMARK   10  A    between atoms: C_26  and  C_28
REMARK                            x       y       z     vdW  Elec       q    Type
REMARK                         _______ _______ _______ _____ _____    ______ ____
ROOT
ATOM      9  C   UNL     1      -2.953  -1.342  24.867  0.00  0.00    -0.027 C 
ATOM     10  C   UNL     1      -2.606  -0.013  24.117  0.00  0.00    +0.028 C 
ATOM     11  C   UNL     1      -1.067   0.290  24.201  0.00  0.00    +0.012 C 
ATOM     12  C   UNL     1      -3.542   1.147  24.563  0.00  0.00    +0.122 C 
ATOM     13  C   UNL     1      -4.451  -1.670  24.669  0.00  0.00    +0.007 C 
ATOM     14  C   UNL     1      -2.133  -2.498  24.251  0.00  0.00    +0.009 C 
ATOM     15  C   UNL     1      -5.039   0.776  24.461  0.00  0.00    +0.029 C 
ATOM     16  C   UNL     1      -0.250  -0.910  23.648  0.00  0.00    +0.076 C 
ATOM     17  C   UNL     1      -5.372  -0.552  25.141  0.00  0.00    +0.007 C 
ATOM     18  C   UNL     1      -0.632  -2.249  24.280  0.00  0.00    +0.023 C 
ATOM     19  C   UNL     1      -2.658  -1.261  26.386  0.00  0.00    +0.011 C 
ATOM     21  C   UNL     1      -0.650   1.571  23.458  0.00  0.00    +0.010 C 
ENDROOT
BRANCH  16   4
ATOM      3  O   UNL     1       1.658  -0.325  21.583  0.00  0.00    -0.268 OA
ATOM      4  N   UNL     1       1.175  -0.714  23.817  0.00  0.00    -0.307 N 
ATOM     24  C   UNL     1       2.015  -0.434  22.753  0.00  0.00    +0.264 C 
ATOM     35  H   UNL     1       1.572  -0.843  24.743  0.00  0.00    +0.149 HD
BRANCH  24  25
ATOM      6  N   UNL     1       4.059  -1.357  23.641  0.00  0.00    -0.247 NA
ATOM      7  N   UNL     1       5.436   1.036  23.152  0.00  0.00    -0.259 NA
ATOM     25  C   UNL     1       3.454  -0.286  23.089  0.00  0.00    +0.143 A 
ATOM     27  C   UNL     1       4.131   0.890  22.850  0.00  0.00    +0.143 A 
ATOM     29  C   UNL     1       5.363  -1.210  23.944  0.00  0.00    +0.131 A 
ATOM     32  C   UNL     1       6.041  -0.035  23.704  0.00  0.00    +0.130 A 
ENDBRANCH  24  25
ENDBRANCH  16   4
BRANCH  12   1
ATOM      1  O   UNL     1      -3.341   2.276  23.710  0.00  0.00    -0.391 OA
ATOM     36  H   UNL     1      -2.632   2.057  23.081  0.00  0.00    +0.210 HD
ENDBRANCH  12   1
BRANCH  15  20
ATOM     20  C   UNL     1      -5.940   1.881  25.026  0.00  0.00    +0.077 C 
ATOM     22  C   UNL     1      -7.144   2.093  24.115  0.00  0.00    +0.017 C 
BRANCH  20  23
ATOM      2  O   UNL     1      -5.129   4.063  24.352  0.00  0.00    -0.276 OA
ATOM      5  N   UNL     1      -4.437   3.203  26.393  0.00  0.00    -0.311 N 
ATOM     23  C   UNL     1      -5.139   3.168  25.196  0.00  0.00    +0.216 C 
ATOM     37  H   UNL     1      -4.538   2.447  27.061  0.00  0.00    +0.149 HD
BRANCH   5  26
ATOM     26  C   UNL     1      -3.605   4.319  26.778  0.00  0.00    +0.141 C 
BRANCH  26  28
ATOM      8  N   UNL     1      -0.107   3.148  25.950  0.00  0.00    -0.263 NA
ATOM     28  C   UNL     1      -2.247   4.254  26.140  0.00  0.00    -0.012 A 
ATOM     30  C   UNL     1      -1.858   5.189  25.187  0.00  0.00    +0.008 A 
ATOM     31  C   UNL     1      -1.343   3.262  26.484  0.00  0.00    +0.115 A 
ATOM     33  C   UNL     1      -0.593   5.104  24.616  0.00  0.00    +0.020 A 
ATOM     34  C   UNL     1       0.237   4.074  25.027  0.00  0.00    +0.111 A 
ENDBRANCH  26  28
ENDBRANCH   5  26
ENDBRANCH  20  23
ENDBRANCH  15  20
TORSDOF 7
ENDMDL
