MODEL 1
REMARK VINA RESULT:      10.1      0.000      0.000
REMARK  Name = 45783527
REMARK  6 active torsions:
REMARK  status: ('A' for Active; 'I' for Inactive)
REMARK    1  A    between atoms: S_1  and  C_23
REMARK    2  A    between atoms: S_1  and  C_33
REMARK    3  A    between atoms: N_6  and  C_15
REMARK    4  A    between atoms: C_11  and  C_16
REMARK    5  A    between atoms: C_15  and  C_17
REMARK    6  A    between atoms: C_20  and  C_24
REMARK                            x       y       z     vdW  Elec       q    Type
REMARK                         _______ _______ _______ _____ _____    ______ ____
ROOT
ATOM      2  O   UNL     1      -3.521   1.862  22.492  0.00  0.00    -0.336 OA
ATOM      7  N   UNL     1      -1.978   2.585  23.947  0.00  0.00    -0.190 NA
ATOM      8  N   UNL     1      -2.329   1.210  22.153  0.00  0.00    -0.056 NA
ATOM     16  C   UNL     1      -3.227   2.653  23.557  0.00  0.00    +0.245 A 
ATOM     20  C   UNL     1      -1.467   1.688  23.055  0.00  0.00    +0.204 A 
ENDROOT
BRANCH  20  24
ATOM      3  O   UNL     1       6.658  -0.270  23.375  0.00  0.00    -0.377 OA
ATOM      9  N   UNL     1       3.892   0.216  23.261  0.00  0.00    -0.311 N 
ATOM     10  N   UNL     1       2.140   1.646  23.957  0.00  0.00    -0.240 NA
ATOM     24  C   UNL     1      -0.089   1.290  23.092  0.00  0.00    +0.041 A 
ATOM     25  C   UNL     1       4.639   0.463  24.502  0.00  0.00    +0.134 C 
ATOM     26  C   UNL     1       4.697   0.226  22.034  0.00  0.00    +0.134 C 
ATOM     27  C   UNL     1       2.546   0.592  23.214  0.00  0.00    +0.121 A 
ATOM     28  C   UNL     1       5.867  -0.438  24.552  0.00  0.00    +0.178 C 
ATOM     29  C   UNL     1       5.924  -0.662  22.216  0.00  0.00    +0.178 C 
ATOM     30  C   UNL     1       0.366   0.212  22.342  0.00  0.00    +0.016 A 
ATOM     31  C   UNL     1       1.708  -0.150  22.398  0.00  0.00    +0.044 A 
ATOM     32  C   UNL     1       0.830   1.968  23.878  0.00  0.00    +0.124 A 
ENDBRANCH  20  24
BRANCH  16  11
ATOM      6  N   UNL     1      -4.692   3.107  25.516  0.00  0.00    -0.287 NA
ATOM     11  C   UNL     1      -4.365   3.475  24.123  0.00  0.00    +0.146 C 
ATOM     12  C   UNL     1      -4.042   4.979  24.180  0.00  0.00    +0.030 C 
ATOM     13  C   UNL     1      -4.273   5.380  25.630  0.00  0.00    +0.017 C 
ATOM     14  C   UNL     1      -5.220   4.317  26.148  0.00  0.00    +0.085 C 
BRANCH   6  15
ATOM     15  C   UNL     1      -5.621   1.989  25.613  0.00  0.00    +0.120 C 
BRANCH  15  17
ATOM     17  C   UNL     1      -4.944   0.674  25.332  0.00  0.00    -0.033 A 
ATOM     18  C   UNL     1      -3.892   0.243  26.140  0.00  0.00    +0.007 A 
ATOM     19  C   UNL     1      -5.369  -0.114  24.262  0.00  0.00    +0.007 A 
ATOM     21  C   UNL     1      -3.265  -0.975  25.879  0.00  0.00    +0.027 A 
ATOM     22  C   UNL     1      -4.743  -1.332  24.002  0.00  0.00    +0.027 A 
ATOM     23  C   UNL     1      -3.690  -1.763  24.809  0.00  0.00    +0.088 A 
BRANCH  23   1
ATOM      1  S   UNL     1      -2.907  -3.289  24.486  0.00  0.00    -0.006 S 
ATOM      4  O   UNL     1      -2.973  -4.116  25.684  0.00  0.00    -0.170 OA
ATOM      5  O   UNL     1      -3.426  -3.800  23.225  0.00  0.00    -0.170 OA
ATOM     33  C   UNL     1      -1.196  -2.868  24.242  0.00  0.00    +0.200 C 
ENDBRANCH  23   1
ENDBRANCH  15  17
ENDBRANCH   6  15
ENDBRANCH  16  11
TORSDOF 5
ENDMDL
MODEL 2
REMARK VINA RESULT:      11.2      1.385      1.755
REMARK  Name = 45783527
REMARK  6 active torsions:
REMARK  status: ('A' for Active; 'I' for Inactive)
REMARK    1  A    between atoms: S_1  and  C_23
REMARK    2  A    between atoms: S_1  and  C_33
REMARK    3  A    between atoms: N_6  and  C_15
REMARK    4  A    between atoms: C_11  and  C_16
REMARK    5  A    between atoms: C_15  and  C_17
REMARK    6  A    between atoms: C_20  and  C_24
REMARK                            x       y       z     vdW  Elec       q    Type
REMARK                         _______ _______ _______ _____ _____    ______ ____
ROOT
ATOM      2  O   UNL     1      -2.931   3.183  26.082  0.00  0.00    -0.336 OA
ATOM      7  N   UNL     1      -2.431   2.571  23.986  0.00  0.00    -0.190 NA
ATOM      8  N   UNL     1      -1.603   2.741  26.111  0.00  0.00    -0.056 NA
ATOM     16  C   UNL     1      -3.344   3.050  24.794  0.00  0.00    +0.245 A 
ATOM     20  C   UNL     1      -1.382   2.397  24.839  0.00  0.00    +0.204 A 
ENDROOT
BRANCH  20  24
ATOM      3  O   UNL     1       6.116  -0.306  22.302  0.00  0.00    -0.377 OA
ATOM      9  N   UNL     1       3.541   0.436  23.149  0.00  0.00    -0.311 N 
ATOM     10  N   UNL     1       2.291   1.944  24.477  0.00  0.00    -0.240 NA
ATOM     24  C   UNL     1      -0.124   1.875  24.389  0.00  0.00    +0.041 A 
ATOM     25  C   UNL     1       4.675   0.494  24.081  0.00  0.00    +0.134 C 
ATOM     26  C   UNL     1       3.897   0.491  21.727  0.00  0.00    +0.134 C 
ATOM     27  C   UNL     1       2.307   0.934  23.579  0.00  0.00    +0.121 A 
ATOM     28  C   UNL     1       5.737  -0.515  23.662  0.00  0.00    +0.178 C 
ATOM     29  C   UNL     1       5.003  -0.517  21.433  0.00  0.00    +0.178 C 
ATOM     30  C   UNL     1      -0.067   0.838  23.465  0.00  0.00    +0.016 A 
ATOM     31  C   UNL     1       1.167   0.352  23.047  0.00  0.00    +0.044 A 
ATOM     32  C   UNL     1       1.074   2.389  24.861  0.00  0.00    +0.124 A 
ENDBRANCH  20  24
BRANCH  16  11
ATOM      6  N   UNL     1      -5.750   2.813  25.381  0.00  0.00    -0.287 NA
ATOM     11  C   UNL     1      -4.768   3.469  24.494  0.00  0.00    +0.146 C 
ATOM     12  C   UNL     1      -5.000   4.977  24.700  0.00  0.00    +0.030 C 
ATOM     13  C   UNL     1      -6.169   5.070  25.671  0.00  0.00    +0.017 C 
ATOM     14  C   UNL     1      -6.876   3.739  25.506  0.00  0.00    +0.085 C 
BRANCH   6  15
ATOM     15  C   UNL     1      -6.171   1.502  24.902  0.00  0.00    +0.120 C 
BRANCH  15  17
ATOM     17  C   UNL     1      -5.022   0.530  24.851  0.00  0.00    -0.033 A 
ATOM     18  C   UNL     1      -4.623  -0.014  23.630  0.00  0.00    +0.007 A 
ATOM     19  C   UNL     1      -4.358   0.172  26.024  0.00  0.00    +0.007 A 
ATOM     21  C   UNL     1      -3.559  -0.915  23.582  0.00  0.00    +0.027 A 
ATOM     22  C   UNL     1      -3.294  -0.728  25.976  0.00  0.00    +0.027 A 
ATOM     23  C   UNL     1      -2.895  -1.273  24.756  0.00  0.00    +0.088 A 
BRANCH  23   1
ATOM      1  S   UNL     1      -1.561  -2.397  24.695  0.00  0.00    -0.006 S 
ATOM      4  O   UNL     1      -1.964  -3.643  25.334  0.00  0.00    -0.170 OA
ATOM      5  O   UNL     1      -1.053  -2.416  23.330  0.00  0.00    -0.170 OA
ATOM     33  C   UNL     1      -0.315  -1.664  25.731  0.00  0.00    +0.200 C 
ENDBRANCH  23   1
ENDBRANCH  15  17
ENDBRANCH   6  15
ENDBRANCH  16  11
TORSDOF 5
ENDMDL
