MODEL 1
REMARK VINA RESULT:      -3.0      0.000      0.000
REMARK  Name = 45784358
REMARK  7 active torsions:
REMARK  status: ('A' for Active; 'I' for Inactive)
REMARK    1  A    between atoms: O_2  and  C_25
REMARK    2  A    between atoms: O_2  and  C_26
REMARK    3  A    between atoms: N_4  and  C_10
REMARK    4  A    between atoms: C_6  and  C_11
REMARK    5  A    between atoms: C_10  and  C_12
REMARK    6  A    between atoms: C_15  and  C_20
REMARK    7  A    between atoms: C_17  and  C_25
REMARK                            x       y       z     vdW  Elec       q    Type
REMARK                         _______ _______ _______ _____ _____    ______ ____
ROOT
ATOM      4  N   UNL     1      -4.800   3.868  25.436  0.00  0.00    -0.297 NA
ATOM      6  C   UNL     1      -5.245   1.748  24.536  0.00  0.00    +0.090 C 
ATOM      7  C   UNL     1      -6.098   1.961  25.799  0.00  0.00    +0.029 C 
ATOM      8  C   UNL     1      -4.168   2.839  24.607  0.00  0.00    +0.097 C 
ATOM      9  C   UNL     1      -5.446   3.132  26.523  0.00  0.00    +0.085 C 
ENDROOT
BRANCH   6  11
ATOM      1  O   UNL     1      -3.352   0.223  24.712  0.00  0.00    -0.439 OA
ATOM      5  N   UNL     1      -5.272  -0.737  23.985  0.00  0.00    -0.213 NA
ATOM     11  C   UNL     1      -4.668   0.360  24.388  0.00  0.00    +0.201 A 
ATOM     13  C   UNL     1      -3.102  -1.101  24.490  0.00  0.00    +0.169 A 
ATOM     14  C   UNL     1      -4.280  -1.685  24.045  0.00  0.00    +0.110 A 
ATOM     17  C   UNL     1      -1.901  -1.776  24.666  0.00  0.00    +0.103 A 
ATOM     18  C   UNL     1      -4.285  -3.055  23.746  0.00  0.00    +0.031 A 
ATOM     23  C   UNL     1      -1.923  -3.142  24.363  0.00  0.00    +0.019 A 
ATOM     24  C   UNL     1      -3.091  -3.770  23.911  0.00  0.00    +0.003 A 
BRANCH  17  25
ATOM      3  O   UNL     1      -0.520  -0.719  26.297  0.00  0.00    -0.245 OA
ATOM     25  C   UNL     1      -0.701  -1.113  25.135  0.00  0.00    +0.343 C 
BRANCH  25   2
ATOM      2  O   UNL     1       0.224  -0.970  24.133  0.00  0.00    -0.464 OA
ATOM     26  C   UNL     1       0.271   0.298  23.468  0.00  0.00    +0.280 C 
ENDBRANCH  25   2
ENDBRANCH  17  25
ENDBRANCH   6  11
BRANCH   4  10
ATOM     10  C   UNL     1      -3.846   4.852  25.925  0.00  0.00    +0.119 C 
BRANCH  10  12
ATOM     12  C   UNL     1      -2.424   4.394  25.739  0.00  0.00    -0.030 A 
ATOM     15  C   UNL     1      -1.520   5.145  24.988  0.00  0.00    -0.046 A 
ATOM     16  C   UNL     1      -2.015   3.199  26.333  0.00  0.00    +0.005 A 
ATOM     19  C   UNL     1      -0.207   4.701  24.830  0.00  0.00    +0.003 A 
ATOM     20  C   UNL     1      -1.933   6.426  24.343  0.00  0.00    +0.044 C 
ATOM     21  C   UNL     1      -0.702   2.755  26.175  0.00  0.00    +0.000 A 
ATOM     22  C   UNL     1       0.202   3.506  25.424  0.00  0.00    +0.000 A 
ENDBRANCH  10  12
ENDBRANCH   4  10
TORSDOF 5
ENDMDL
MODEL 2
REMARK VINA RESULT:      -2.5      3.083      6.164
REMARK  Name = 45784358
REMARK  7 active torsions:
REMARK  status: ('A' for Active; 'I' for Inactive)
REMARK    1  A    between atoms: O_2  and  C_25
REMARK    2  A    between atoms: O_2  and  C_26
REMARK    3  A    between atoms: N_4  and  C_10
REMARK    4  A    between atoms: C_6  and  C_11
REMARK    5  A    between atoms: C_10  and  C_12
REMARK    6  A    between atoms: C_15  and  C_20
REMARK    7  A    between atoms: C_17  and  C_25
REMARK                            x       y       z     vdW  Elec       q    Type
REMARK                         _______ _______ _______ _____ _____    ______ ____
ROOT
ATOM      4  N   UNL     1       0.803  -0.740  23.672  0.00  0.00    -0.297 NA
ATOM      6  C   UNL     1      -1.136  -0.503  24.971  0.00  0.00    +0.090 C 
ATOM      7  C   UNL     1      -1.189  -1.836  24.203  0.00  0.00    +0.029 C 
ATOM      8  C   UNL     1      -0.032   0.302  24.273  0.00  0.00    +0.097 C 
ATOM      9  C   UNL     1      -0.144  -1.701  23.104  0.00  0.00    +0.085 C 
ENDROOT
BRANCH   6  11
ATOM      1  O   UNL     1      -2.367   1.571  25.317  0.00  0.00    -0.439 OA
ATOM      5  N   UNL     1      -3.666  -0.235  24.886  0.00  0.00    -0.213 NA
ATOM     11  C   UNL     1      -2.449   0.238  25.047  0.00  0.00    +0.201 A 
ATOM     13  C   UNL     1      -3.670   1.979  25.326  0.00  0.00    +0.169 A 
ATOM     14  C   UNL     1      -4.462   0.870  25.061  0.00  0.00    +0.110 A 
ATOM     17  C   UNL     1      -4.154   3.261  25.554  0.00  0.00    +0.103 A 
ATOM     18  C   UNL     1      -5.854   1.028  25.015  0.00  0.00    +0.031 A 
ATOM     23  C   UNL     1      -5.545   3.401  25.504  0.00  0.00    +0.019 A 
ATOM     24  C   UNL     1      -6.381   2.308  25.241  0.00  0.00    +0.003 A 
BRANCH  17  25
ATOM      3  O   UNL     1      -3.238   5.004  26.899  0.00  0.00    -0.245 OA
ATOM     25  C   UNL     1      -3.278   4.383  25.825  0.00  0.00    +0.343 C 
BRANCH  25   2
ATOM      2  O   UNL     1      -2.489   4.682  24.746  0.00  0.00    -0.464 OA
ATOM     26  C   UNL     1      -1.094   4.889  24.997  0.00  0.00    +0.280 C 
ENDBRANCH  25   2
ENDBRANCH  17  25
ENDBRANCH   6  11
BRANCH   4  10
ATOM     10  C   UNL     1       1.720  -0.211  22.674  0.00  0.00    +0.119 C 
BRANCH  10  12
ATOM     12  C   UNL     1       3.155  -0.320  23.117  0.00  0.00    -0.030 A 
ATOM     15  C   UNL     1       4.023   0.766  23.011  0.00  0.00    -0.046 A 
ATOM     16  C   UNL     1       3.612  -1.530  23.641  0.00  0.00    +0.005 A 
ATOM     19  C   UNL     1       5.349   0.643  23.428  0.00  0.00    +0.003 A 
ATOM     20  C   UNL     1       3.558   2.071  22.454  0.00  0.00    +0.044 C 
ATOM     21  C   UNL     1       4.937  -1.653  24.058  0.00  0.00    +0.000 A 
ATOM     22  C   UNL     1       5.806  -0.567  23.952  0.00  0.00    +0.000 A 
ENDBRANCH  10  12
ENDBRANCH   4  10
TORSDOF 5
ENDMDL
MODEL 3
REMARK VINA RESULT:      -1.1      1.750      4.528
REMARK  Name = 45784358
REMARK  7 active torsions:
REMARK  status: ('A' for Active; 'I' for Inactive)
REMARK    1  A    between atoms: O_2  and  C_25
REMARK    2  A    between atoms: O_2  and  C_26
REMARK    3  A    between atoms: N_4  and  C_10
REMARK    4  A    between atoms: C_6  and  C_11
REMARK    5  A    between atoms: C_10  and  C_12
REMARK    6  A    between atoms: C_15  and  C_20
REMARK    7  A    between atoms: C_17  and  C_25
REMARK                            x       y       z     vdW  Elec       q    Type
REMARK                         _______ _______ _______ _____ _____    ______ ____
ROOT
ATOM      4  N   UNL     1      -3.024   4.809  25.947  0.00  0.00    -0.297 NA
ATOM      6  C   UNL     1      -0.964   3.705  25.746  0.00  0.00    +0.090 C 
ATOM      7  C   UNL     1      -0.869   5.097  25.096  0.00  0.00    +0.029 C 
ATOM      8  C   UNL     1      -2.470   3.454  25.905  0.00  0.00    +0.097 C 
ATOM      9  C   UNL     1      -2.312   5.540  24.898  0.00  0.00    +0.085 C 
ENDROOT
BRANCH   6  11
ATOM      1  O   UNL     1      -0.850   1.376  25.037  0.00  0.00    -0.439 OA
ATOM      5  N   UNL     1       0.853   2.673  24.292  0.00  0.00    -0.213 NA
ATOM     11  C   UNL     1      -0.260   2.603  24.991  0.00  0.00    +0.201 A 
ATOM     13  C   UNL     1      -0.021   0.592  24.287  0.00  0.00    +0.169 A 
ATOM     14  C   UNL     1       1.020   1.390  23.833  0.00  0.00    +0.110 A 
ATOM     17  C   UNL     1      -0.161  -0.762  24.007  0.00  0.00    +0.103 A 
ATOM     18  C   UNL     1       2.015   0.812  23.032  0.00  0.00    +0.031 A 
ATOM     23  C   UNL     1       0.841  -1.322  23.207  0.00  0.00    +0.019 A 
ATOM     24  C   UNL     1       1.908  -0.553  22.728  0.00  0.00    +0.003 A 
BRANCH  17  25
ATOM      3  O   UNL     1      -1.157  -2.596  25.160  0.00  0.00    -0.245 OA
ATOM     25  C   UNL     1      -1.271  -1.546  24.509  0.00  0.00    +0.343 C 
BRANCH  25   2
ATOM      2  O   UNL     1      -2.478  -0.986  24.178  0.00  0.00    -0.464 OA
ATOM     26  C   UNL     1      -3.624  -1.845  24.211  0.00  0.00    +0.280 C 
ENDBRANCH  25   2
ENDBRANCH  17  25
ENDBRANCH   6  11
BRANCH   4  10
ATOM     10  C   UNL     1      -4.466   4.826  25.752  0.00  0.00    +0.119 C 
BRANCH  10  12
ATOM     12  C   UNL     1      -5.020   3.441  25.546  0.00  0.00    -0.030 A 
ATOM     15  C   UNL     1      -4.770   2.736  24.369  0.00  0.00    -0.046 A 
ATOM     16  C   UNL     1      -5.794   2.865  26.554  0.00  0.00    +0.005 A 
ATOM     19  C   UNL     1      -5.294   1.454  24.200  0.00  0.00    +0.003 A 
ATOM     20  C   UNL     1      -3.946   3.331  23.276  0.00  0.00    +0.044 C 
ATOM     21  C   UNL     1      -6.317   1.583  26.385  0.00  0.00    +0.000 A 
ATOM     22  C   UNL     1      -6.067   0.877  25.208  0.00  0.00    +0.000 A 
ENDBRANCH  10  12
ENDBRANCH   4  10
TORSDOF 5
ENDMDL
MODEL 4
REMARK VINA RESULT:      -0.4      2.962      6.016
REMARK  Name = 45784358
REMARK  7 active torsions:
REMARK  status: ('A' for Active; 'I' for Inactive)
REMARK    1  A    between atoms: O_2  and  C_25
REMARK    2  A    between atoms: O_2  and  C_26
REMARK    3  A    between atoms: N_4  and  C_10
REMARK    4  A    between atoms: C_6  and  C_11
REMARK    5  A    between atoms: C_10  and  C_12
REMARK    6  A    between atoms: C_15  and  C_20
REMARK    7  A    between atoms: C_17  and  C_25
REMARK                            x       y       z     vdW  Elec       q    Type
REMARK                         _______ _______ _______ _____ _____    ______ ____
ROOT
ATOM      4  N   UNL     1       1.258   1.396  23.335  0.00  0.00    -0.297 NA
ATOM      6  C   UNL     1      -0.550   2.679  24.101  0.00  0.00    +0.090 C 
ATOM      7  C   UNL     1       0.431   2.427  25.259  0.00  0.00    +0.029 C 
ATOM      8  C   UNL     1      -0.149   1.661  23.025  0.00  0.00    +0.097 C 
ATOM      9  C   UNL     1       1.306   1.272  24.792  0.00  0.00    +0.085 C 
ENDROOT
BRANCH   6  11
ATOM      1  O   UNL     1      -2.557   1.347  24.470  0.00  0.00    -0.439 OA
ATOM      5  N   UNL     1      -2.825   3.572  24.812  0.00  0.00    -0.213 NA
ATOM     11  C   UNL     1      -2.010   2.595  24.477  0.00  0.00    +0.201 A 
ATOM     13  C   UNL     1      -3.854   1.562  24.840  0.00  0.00    +0.169 A 
ATOM     14  C   UNL     1      -4.014   2.925  25.049  0.00  0.00    +0.110 A 
ATOM     17  C   UNL     1      -4.859   0.615  24.991  0.00  0.00    +0.103 A 
ATOM     18  C   UNL     1      -5.271   3.407  25.442  0.00  0.00    +0.031 A 
ATOM     23  C   UNL     1      -6.106   1.113  25.383  0.00  0.00    +0.019 A 
ATOM     24  C   UNL     1      -6.311   2.480  25.604  0.00  0.00    +0.003 A 
BRANCH  17  25
ATOM      3  O   UNL     1      -5.073  -1.433  23.788  0.00  0.00    -0.245 OA
ATOM     25  C   UNL     1      -4.633  -0.797  24.759  0.00  0.00    +0.343 C 
BRANCH  25   2
ATOM      2  O   UNL     1      -3.868  -1.358  25.749  0.00  0.00    -0.464 OA
ATOM     26  C   UNL     1      -3.127  -2.536  25.409  0.00  0.00    +0.280 C 
ENDBRANCH  25   2
ENDBRANCH  17  25
ENDBRANCH   6  11
BRANCH   4  10
ATOM     10  C   UNL     1       1.760   0.207  22.661  0.00  0.00    +0.119 C 
BRANCH  10  12
ATOM     12  C   UNL     1       3.161  -0.133  23.096  0.00  0.00    -0.030 A 
ATOM     15  C   UNL     1       4.201   0.785  22.951  0.00  0.00    -0.046 A 
ATOM     16  C   UNL     1       3.410  -1.389  23.651  0.00  0.00    +0.005 A 
ATOM     19  C   UNL     1       5.491   0.447  23.362  0.00  0.00    +0.003 A 
ATOM     20  C   UNL     1       3.959   2.134  22.360  0.00  0.00    +0.044 C 
ATOM     21  C   UNL     1       4.700  -1.726  24.062  0.00  0.00    +0.000 A 
ATOM     22  C   UNL     1       5.741  -0.808  23.917  0.00  0.00    +0.000 A 
ENDBRANCH  10  12
ENDBRANCH   4  10
TORSDOF 5
ENDMDL
MODEL 5
REMARK VINA RESULT:       0.3      2.726      4.913
REMARK  Name = 45784358
REMARK  7 active torsions:
REMARK  status: ('A' for Active; 'I' for Inactive)
REMARK    1  A    between atoms: O_2  and  C_25
REMARK    2  A    between atoms: O_2  and  C_26
REMARK    3  A    between atoms: N_4  and  C_10
REMARK    4  A    between atoms: C_6  and  C_11
REMARK    5  A    between atoms: C_10  and  C_12
REMARK    6  A    between atoms: C_15  and  C_20
REMARK    7  A    between atoms: C_17  and  C_25
REMARK                            x       y       z     vdW  Elec       q    Type
REMARK                         _______ _______ _______ _____ _____    ______ ____
ROOT
ATOM      4  N   UNL     1      -2.398   4.371  25.999  0.00  0.00    -0.297 NA
ATOM      6  C   UNL     1      -0.583   2.969  25.508  0.00  0.00    +0.090 C 
ATOM      7  C   UNL     1      -0.218   4.425  25.163  0.00  0.00    +0.029 C 
ATOM      8  C   UNL     1      -2.110   2.977  25.655  0.00  0.00    +0.097 C 
ATOM      9  C   UNL     1      -1.549   5.162  25.106  0.00  0.00    +0.085 C 
ENDROOT
BRANCH   6  11
ATOM      1  O   UNL     1       1.245   1.957  24.253  0.00  0.00    -0.439 OA
ATOM      5  N   UNL     1      -0.787   1.029  23.873  0.00  0.00    -0.213 NA
ATOM     11  C   UNL     1      -0.091   1.941  24.517  0.00  0.00    +0.201 A 
ATOM     13  C   UNL     1       1.407   0.948  23.348  0.00  0.00    +0.169 A 
ATOM     14  C   UNL     1       0.160   0.382  23.118  0.00  0.00    +0.110 A 
ATOM     17  C   UNL     1       2.587   0.533  22.745  0.00  0.00    +0.103 A 
ATOM     18  C   UNL     1       0.058  -0.688  22.217  0.00  0.00    +0.031 A 
ATOM     23  C   UNL     1       2.468  -0.534  21.849  0.00  0.00    +0.019 A 
ATOM     24  C   UNL     1       1.229  -1.134  21.588  0.00  0.00    +0.003 A 
BRANCH  17  25
ATOM      3  O   UNL     1       4.296   2.169  22.442  0.00  0.00    -0.245 OA
ATOM     25  C   UNL     1       3.862   1.162  23.024  0.00  0.00    +0.343 C 
BRANCH  25   2
ATOM      2  O   UNL     1       4.543   0.509  24.018  0.00  0.00    -0.464 OA
ATOM     26  C   UNL     1       5.710  -0.227  23.632  0.00  0.00    +0.280 C 
ENDBRANCH  25   2
ENDBRANCH  17  25
ENDBRANCH   6  11
BRANCH   4  10
ATOM     10  C   UNL     1      -3.809   4.699  25.855  0.00  0.00    +0.119 C 
BRANCH  10  12
ATOM     12  C   UNL     1      -4.642   3.477  25.573  0.00  0.00    -0.030 A 
ATOM     15  C   UNL     1      -4.631   2.875  24.315  0.00  0.00    -0.046 A 
ATOM     16  C   UNL     1      -5.434   2.948  26.593  0.00  0.00    +0.005 A 
ATOM     19  C   UNL     1      -5.411   1.743  24.077  0.00  0.00    +0.003 A 
ATOM     20  C   UNL     1      -3.792   3.423  23.208  0.00  0.00    +0.044 C 
ATOM     21  C   UNL     1      -6.214   1.816  26.355  0.00  0.00    +0.000 A 
ATOM     22  C   UNL     1      -6.202   1.214  25.097  0.00  0.00    +0.000 A 
ENDBRANCH  10  12
ENDBRANCH   4  10
TORSDOF 5
ENDMDL
