MODEL 1
REMARK VINA RESULT:      -3.7      0.000      0.000
REMARK  Name = 45783790
REMARK  6 active torsions:
REMARK  status: ('A' for Active; 'I' for Inactive)
REMARK    1  A    between atoms: N_2  and  C_13
REMARK    2  A    between atoms: N_8  and  C_23
REMARK    3  A    between atoms: N_8  and  C_24
REMARK    4  A    between atoms: C_9  and  C_14
REMARK    5  A    between atoms: C_13  and  C_15
REMARK    6  A    between atoms: C_16  and  C_18
REMARK                            x       y       z     vdW  Elec       q    Type
REMARK                         _______ _______ _______ _____ _____    ______ ____
ROOT
ATOM      1  O   UNL     1      -2.268   1.583  25.672  0.00  0.00    -0.336 OA
ATOM      3  N   UNL     1      -1.727   1.673  23.501  0.00  0.00    -0.190 NA
ATOM      6  N   UNL     1      -0.921   1.209  25.591  0.00  0.00    -0.056 NA
ATOM     14  C   UNL     1      -2.665   1.838  24.398  0.00  0.00    +0.245 A 
ATOM     16  C   UNL     1      -0.674   1.287  24.280  0.00  0.00    +0.204 A 
ENDROOT
BRANCH  16  18
ATOM      7  N   UNL     1       2.916   1.621  23.373  0.00  0.00    -0.240 NA
ATOM     18  C   UNL     1       0.609   0.984  23.716  0.00  0.00    +0.041 A 
ATOM     20  C   UNL     1       0.815  -0.183  22.989  0.00  0.00    +0.016 A 
ATOM     21  C   UNL     1       1.683   1.845  23.878  0.00  0.00    +0.124 A 
ATOM     22  C   UNL     1       2.071  -0.449  22.454  0.00  0.00    +0.044 A 
ATOM     23  C   UNL     1       3.079   0.476  22.672  0.00  0.00    +0.118 A 
BRANCH  23   8
ATOM      8  N   UNL     1       4.352   0.190  22.122  0.00  0.00    -0.332 N 
ATOM     24  C   UNL     1       5.516   0.008  22.927  0.00  0.00    +0.127 C 
ATOM     26  H   UNL     1       4.471   0.340  21.126  0.00  0.00    +0.147 HD
ENDBRANCH  23   8
ENDBRANCH  16  18
BRANCH  14   9
ATOM      2  N   UNL     1      -5.032   1.540  25.103  0.00  0.00    -0.284 NA
ATOM      9  C   UNL     1      -4.105   2.268  24.214  0.00  0.00    +0.146 C 
ATOM     10  C   UNL     1      -4.329   3.754  24.548  0.00  0.00    +0.030 C 
ATOM     11  C   UNL     1      -5.441   3.766  25.588  0.00  0.00    +0.017 C 
ATOM     12  C   UNL     1      -6.152   2.447  25.364  0.00  0.00    +0.085 C 
BRANCH   2  13
ATOM     13  C   UNL     1      -5.476   0.267  24.552  0.00  0.00    +0.159 C 
BRANCH  13  15
ATOM      4  N   UNL     1      -3.659  -0.937  25.788  0.00  0.00    -0.347 N 
ATOM      5  N   UNL     1      -4.071  -1.662  23.729  0.00  0.00    -0.239 NA
ATOM     15  C   UNL     1      -4.409  -0.790  24.654  0.00  0.00    +0.121 A 
ATOM     17  C   UNL     1      -2.787  -1.967  25.572  0.00  0.00    +0.104 A 
ATOM     19  C   UNL     1      -3.061  -2.398  24.295  0.00  0.00    +0.130 A 
ATOM     25  H   UNL     1      -3.733  -0.384  26.631  0.00  0.00    +0.167 HD
ENDBRANCH  13  15
ENDBRANCH   2  13
ENDBRANCH  14   9
TORSDOF 5
ENDMDL
MODEL 2
REMARK VINA RESULT:      -3.1      1.862      3.455
REMARK  Name = 45783790
REMARK  6 active torsions:
REMARK  status: ('A' for Active; 'I' for Inactive)
REMARK    1  A    between atoms: N_2  and  C_13
REMARK    2  A    between atoms: N_8  and  C_23
REMARK    3  A    between atoms: N_8  and  C_24
REMARK    4  A    between atoms: C_9  and  C_14
REMARK    5  A    between atoms: C_13  and  C_15
REMARK    6  A    between atoms: C_16  and  C_18
REMARK                            x       y       z     vdW  Elec       q    Type
REMARK                         _______ _______ _______ _____ _____    ______ ____
ROOT
ATOM      1  O   UNL     1      -3.218  -0.613  24.781  0.00  0.00    -0.336 OA
ATOM      3  N   UNL     1      -1.996   1.263  24.710  0.00  0.00    -0.190 NA
ATOM      6  N   UNL     1      -1.989  -0.969  24.211  0.00  0.00    -0.056 NA
ATOM     14  C   UNL     1      -3.138   0.717  25.045  0.00  0.00    +0.245 A 
ATOM     16  C   UNL     1      -1.323   0.189  24.203  0.00  0.00    +0.204 A 
ENDROOT
BRANCH  16  18
ATOM      7  N   UNL     1       2.121   1.491  23.687  0.00  0.00    -0.240 NA
ATOM     18  C   UNL     1       0.012   0.309  23.694  0.00  0.00    +0.041 A 
ATOM     20  C   UNL     1       0.502  -0.586  22.750  0.00  0.00    +0.016 A 
ATOM     21  C   UNL     1       0.854   1.322  24.126  0.00  0.00    +0.124 A 
ATOM     22  C   UNL     1       1.802  -0.445  22.274  0.00  0.00    +0.044 A 
ATOM     23  C   UNL     1       2.563   0.601  22.770  0.00  0.00    +0.118 A 
BRANCH  23   8
ATOM      8  N   UNL     1       3.885   0.731  22.276  0.00  0.00    -0.332 N 
ATOM     24  C   UNL     1       5.031   0.343  23.033  0.00  0.00    +0.127 C 
ATOM     26  H   UNL     1       4.019   1.319  21.461  0.00  0.00    +0.147 HD
ENDBRANCH  23   8
ENDBRANCH  16  18
BRANCH  14   9
ATOM      2  N   UNL     1      -4.435   2.807  25.423  0.00  0.00    -0.284 NA
ATOM      9  C   UNL     1      -4.358   1.354  25.675  0.00  0.00    +0.146 C 
ATOM     10  C   UNL     1      -5.679   0.791  25.116  0.00  0.00    +0.030 C 
ATOM     11  C   UNL     1      -6.455   2.006  24.629  0.00  0.00    +0.017 C 
ATOM     12  C   UNL     1      -5.857   3.152  25.419  0.00  0.00    +0.085 C 
BRANCH   2  13
ATOM     13  C   UNL     1      -3.682   3.598  26.388  0.00  0.00    +0.159 C 
BRANCH  13  15
ATOM      4  N   UNL     1      -1.236   3.597  25.842  0.00  0.00    -0.347 N 
ATOM      5  N   UNL     1      -2.386   5.356  25.123  0.00  0.00    -0.239 NA
ATOM     15  C   UNL     1      -2.455   4.214  25.772  0.00  0.00    +0.121 A 
ATOM     17  C   UNL     1      -0.334   4.396  25.199  0.00  0.00    +0.104 A 
ATOM     19  C   UNL     1      -1.067   5.475  24.764  0.00  0.00    +0.130 A 
ATOM     25  H   UNL     1      -1.038   2.713  26.292  0.00  0.00    +0.167 HD
ENDBRANCH  13  15
ENDBRANCH   2  13
ENDBRANCH  14   9
TORSDOF 5
ENDMDL
MODEL 3
REMARK VINA RESULT:      -1.7      1.398      1.820
REMARK  Name = 45783790
REMARK  6 active torsions:
REMARK  status: ('A' for Active; 'I' for Inactive)
REMARK    1  A    between atoms: N_2  and  C_13
REMARK    2  A    between atoms: N_8  and  C_23
REMARK    3  A    between atoms: N_8  and  C_24
REMARK    4  A    between atoms: C_9  and  C_14
REMARK    5  A    between atoms: C_13  and  C_15
REMARK    6  A    between atoms: C_16  and  C_18
REMARK                            x       y       z     vdW  Elec       q    Type
REMARK                         _______ _______ _______ _____ _____    ______ ____
ROOT
ATOM      1  O   UNL     1      -1.638   0.337  24.061  0.00  0.00    -0.336 OA
ATOM      3  N   UNL     1      -0.101   1.939  23.764  0.00  0.00    -0.190 NA
ATOM      6  N   UNL     1      -0.423  -0.325  23.839  0.00  0.00    -0.056 NA
ATOM     14  C   UNL     1      -1.359   1.665  24.000  0.00  0.00    +0.245 A 
ATOM     16  C   UNL     1       0.434   0.687  23.673  0.00  0.00    +0.204 A 
ENDROOT
BRANCH  16  18
ATOM      7  N   UNL     1       3.708  -1.037  23.300  0.00  0.00    -0.240 NA
ATOM     18  C   UNL     1       1.829   0.481  23.412  0.00  0.00    +0.041 A 
ATOM     20  C   UNL     1       2.651   1.537  23.035  0.00  0.00    +0.016 A 
ATOM     21  C   UNL     1       2.402  -0.776  23.530  0.00  0.00    +0.124 A 
ATOM     22  C   UNL     1       4.001   1.307  22.789  0.00  0.00    +0.044 A 
ATOM     23  C   UNL     1       4.476   0.014  22.935  0.00  0.00    +0.118 A 
BRANCH  23   8
ATOM      8  N   UNL     1       5.852  -0.204  22.680  0.00  0.00    -0.332 N 
ATOM     24  C   UNL     1       6.815  -0.348  23.723  0.00  0.00    +0.127 C 
ATOM     26  H   UNL     1       6.182  -0.029  21.737  0.00  0.00    +0.147 HD
ENDBRANCH  23   8
ENDBRANCH  16  18
BRANCH  14   9
ATOM      2  N   UNL     1      -3.542   2.056  25.128  0.00  0.00    -0.284 NA
ATOM      9  C   UNL     1      -2.524   2.608  24.212  0.00  0.00    +0.146 C 
ATOM     10  C   UNL     1      -2.100   3.941  24.857  0.00  0.00    +0.030 C 
ATOM     11  C   UNL     1      -2.976   4.081  26.095  0.00  0.00    +0.017 C 
ATOM     12  C   UNL     1      -4.171   3.202  25.786  0.00  0.00    +0.085 C 
BRANCH   2  13
ATOM     13  C   UNL     1      -4.517   1.207  24.457  0.00  0.00    +0.159 C 
BRANCH  13  15
ATOM      4  N   UNL     1      -3.633  -0.746  25.755  0.00  0.00    -0.347 N 
ATOM      5  N   UNL     1      -4.364  -1.198  23.707  0.00  0.00    -0.239 NA
ATOM     15  C   UNL     1      -4.184  -0.254  24.605  0.00  0.00    +0.121 A 
ATOM     17  C   UNL     1      -3.448  -2.088  25.581  0.00  0.00    +0.104 A 
ATOM     19  C   UNL     1      -3.907  -2.343  24.310  0.00  0.00    +0.130 A 
ATOM     25  H   UNL     1      -3.400  -0.213  26.583  0.00  0.00    +0.167 HD
ENDBRANCH  13  15
ENDBRANCH   2  13
ENDBRANCH  14   9
TORSDOF 5
ENDMDL
MODEL 4
REMARK VINA RESULT:      -0.3      1.376      3.296
REMARK  Name = 45783790
REMARK  6 active torsions:
REMARK  status: ('A' for Active; 'I' for Inactive)
REMARK    1  A    between atoms: N_2  and  C_13
REMARK    2  A    between atoms: N_8  and  C_23
REMARK    3  A    between atoms: N_8  and  C_24
REMARK    4  A    between atoms: C_9  and  C_14
REMARK    5  A    between atoms: C_13  and  C_15
REMARK    6  A    between atoms: C_16  and  C_18
REMARK                            x       y       z     vdW  Elec       q    Type
REMARK                         _______ _______ _______ _____ _____    ______ ____
ROOT
ATOM      1  O   UNL     1      -1.092   1.935  24.297  0.00  0.00    -0.336 OA
ATOM      3  N   UNL     1      -0.171  -0.106  24.254  0.00  0.00    -0.190 NA
ATOM      6  N   UNL     1       0.239   2.116  23.901  0.00  0.00    -0.056 NA
ATOM     14  C   UNL     1      -1.249   0.598  24.485  0.00  0.00    +0.245 A 
ATOM     16  C   UNL     1       0.716   0.868  23.898  0.00  0.00    +0.204 A 
ENDROOT
BRANCH  16  18
ATOM      7  N   UNL     1       4.227   1.327  22.765  0.00  0.00    -0.240 NA
ATOM     18  C   UNL     1       2.072   0.561  23.548  0.00  0.00    +0.041 A 
ATOM     20  C   UNL     1       2.558  -0.739  23.635  0.00  0.00    +0.016 A 
ATOM     21  C   UNL     1       2.940   1.549  23.111  0.00  0.00    +0.124 A 
ATOM     22  C   UNL     1       3.878  -1.007  23.288  0.00  0.00    +0.044 A 
ATOM     23  C   UNL     1       4.664   0.051  22.863  0.00  0.00    +0.118 A 
BRANCH  23   8
ATOM      8  N   UNL     1       6.007  -0.238  22.514  0.00  0.00    -0.332 N 
ATOM     24  C   UNL     1       7.064  -0.260  23.473  0.00  0.00    +0.127 C 
ATOM     26  H   UNL     1       6.246  -0.206  21.530  0.00  0.00    +0.147 HD
ENDBRANCH  23   8
ENDBRANCH  16  18
BRANCH  14   9
ATOM      2  N   UNL     1      -3.513  -0.160  23.782  0.00  0.00    -0.284 NA
ATOM      9  C   UNL     1      -2.623   0.136  24.923  0.00  0.00    +0.146 C 
ATOM     10  C   UNL     1      -2.580  -1.172  25.734  0.00  0.00    +0.030 C 
ATOM     11  C   UNL     1      -3.521  -2.123  25.008  0.00  0.00    +0.017 C 
ATOM     12  C   UNL     1      -4.441  -1.196  24.239  0.00  0.00    +0.085 C 
BRANCH   2  13
ATOM     13  C   UNL     1      -4.210   1.015  23.277  0.00  0.00    +0.159 C 
BRANCH  13  15
ATOM      4  N   UNL     1      -3.903   3.062  24.690  0.00  0.00    -0.347 N 
ATOM      5  N   UNL     1      -5.673   1.811  25.174  0.00  0.00    -0.239 NA
ATOM     15  C   UNL     1      -4.626   1.941  24.389  0.00  0.00    +0.121 A 
ATOM     17  C   UNL     1      -4.527   3.685  25.733  0.00  0.00    +0.104 A 
ATOM     19  C   UNL     1      -5.617   2.894  26.013  0.00  0.00    +0.130 A 
ATOM     25  H   UNL     1      -3.058   3.371  24.228  0.00  0.00    +0.167 HD
ENDBRANCH  13  15
ENDBRANCH   2  13
ENDBRANCH  14   9
TORSDOF 5
ENDMDL
