MODEL 1
REMARK VINA RESULT:      -8.4      0.000      0.000
REMARK  Name = 71693828
REMARK  6 active torsions:
REMARK  status: ('A' for Active; 'I' for Inactive)
REMARK    1  A    between atoms: O_1  and  C_6
REMARK    2  A    between atoms: O_2  and  C_8
REMARK    3  A    between atoms: N_3  and  C_4
REMARK    4  A    between atoms: N_3  and  C_10
REMARK    5  A    between atoms: C_5  and  C_15
REMARK    6  A    between atoms: C_9  and  C_10
REMARK                            x       y       z     vdW  Elec       q    Type
REMARK                         _______ _______ _______ _____ _____    ______ ____
ROOT
ATOM      4  C   UNL     1      -1.263   1.587  23.627  0.00  0.00    +0.092 C 
ATOM      5  C   UNL     1      -2.006   0.942  24.838  0.00  0.00    +0.041 C 
ATOM      6  C   UNL     1       0.095   2.042  24.185  0.00  0.00    +0.160 C 
ATOM      7  C   UNL     1      -1.047   1.073  26.037  0.00  0.00    +0.043 C 
ATOM      8  C   UNL     1      -0.174   2.264  25.670  0.00  0.00    +0.145 C 
ENDROOT
BRANCH   5  15
ATOM     15  C   UNL     1      -2.465  -0.480  24.594  0.00  0.00    -0.043 A 
ATOM     16  C   UNL     1      -1.562  -1.536  24.714  0.00  0.00    +0.004 A 
ATOM     17  C   UNL     1      -3.793  -0.734  24.249  0.00  0.00    +0.004 A 
ATOM     18  C   UNL     1      -1.986  -2.845  24.490  0.00  0.00    +0.000 A 
ATOM     19  C   UNL     1      -4.216  -2.044  24.025  0.00  0.00    +0.000 A 
ATOM     20  C   UNL     1      -3.313  -3.099  24.145  0.00  0.00    +0.000 A 
ENDBRANCH   5  15
BRANCH   6   1
ATOM      1  O   UNL     1       1.037   0.988  23.994  0.00  0.00    -0.388 OA
ATOM     22  H   UNL     1       0.534   0.159  23.914  0.00  0.00    +0.210 HD
ENDBRANCH   6   1
BRANCH   8   2
ATOM      2  O   UNL     1       1.011   2.291  26.440  0.00  0.00    -0.389 OA
ATOM     23  H   UNL     1       1.708   2.685  25.888  0.00  0.00    +0.210 HD
ENDBRANCH   8   2
BRANCH   4   3
ATOM      3  N   UNL     1      -2.019   2.745  23.147  0.00  0.00    -0.310 NA
ATOM     21  H   UNL     1      -1.610   3.089  22.279  0.00  0.00    +0.122 HD
BRANCH   3  10
ATOM     10  C   UNL     1      -3.410   2.393  22.904  0.00  0.00    +0.084 C 
BRANCH  10   9
ATOM      9  C   UNL     1      -4.333   3.084  23.891  0.00  0.00    +0.003 C 
ATOM     11  C   UNL     1      -3.588   3.764  25.036  0.00  0.00    +0.005 C 
ATOM     12  C   UNL     1      -5.254   2.120  24.632  0.00  0.00    +0.005 C 
ATOM     13  C   UNL     1      -4.662   3.982  26.096  0.00  0.00    +0.000 C 
ATOM     14  C   UNL     1      -5.729   2.916  25.843  0.00  0.00    +0.000 C 
ENDBRANCH  10   9
ENDBRANCH   3  10
ENDBRANCH   4   3
TORSDOF 6
ENDMDL
MODEL 2
REMARK VINA RESULT:      -7.3      2.808      5.415
REMARK  Name = 71693828
REMARK  6 active torsions:
REMARK  status: ('A' for Active; 'I' for Inactive)
REMARK    1  A    between atoms: O_1  and  C_6
REMARK    2  A    between atoms: O_2  and  C_8
REMARK    3  A    between atoms: N_3  and  C_4
REMARK    4  A    between atoms: N_3  and  C_10
REMARK    5  A    between atoms: C_5  and  C_15
REMARK    6  A    between atoms: C_9  and  C_10
REMARK                            x       y       z     vdW  Elec       q    Type
REMARK                         _______ _______ _______ _____ _____    ______ ____
ROOT
ATOM      4  C   UNL     1       0.156   1.205  24.450  0.00  0.00    +0.092 C 
ATOM      5  C   UNL     1      -1.277   1.171  23.833  0.00  0.00    +0.041 C 
ATOM      6  C   UNL     1       0.200   2.489  25.293  0.00  0.00    +0.160 C 
ATOM      7  C   UNL     1      -1.981   2.446  24.337  0.00  0.00    +0.043 C 
ATOM      8  C   UNL     1      -0.832   3.398  24.633  0.00  0.00    +0.145 C 
ENDROOT
BRANCH   5  15
ATOM     15  C   UNL     1      -2.049  -0.095  24.134  0.00  0.00    -0.043 A 
ATOM     16  C   UNL     1      -3.438  -0.112  24.011  0.00  0.00    +0.004 A 
ATOM     17  C   UNL     1      -1.371  -1.246  24.537  0.00  0.00    +0.004 A 
ATOM     18  C   UNL     1      -4.149  -1.280  24.289  0.00  0.00    +0.000 A 
ATOM     19  C   UNL     1      -2.082  -2.412  24.814  0.00  0.00    +0.000 A 
ATOM     20  C   UNL     1      -3.470  -2.430  24.690  0.00  0.00    +0.000 A 
ENDBRANCH   5  15
BRANCH   6   1
ATOM      1  O   UNL     1      -0.191   2.166  26.627  0.00  0.00    -0.388 OA
ATOM     22  H   UNL     1       0.238   2.808  27.220  0.00  0.00    +0.210 HD
ENDBRANCH   6   1
BRANCH   8   2
ATOM      2  O   UNL     1      -1.242   4.457  25.475  0.00  0.00    -0.389 OA
ATOM     23  H   UNL     1      -2.169   4.658  25.261  0.00  0.00    +0.210 HD
ENDBRANCH   8   2
BRANCH   4   3
ATOM      3  N   UNL     1       1.150   1.278  23.379  0.00  0.00    -0.310 NA
ATOM     21  H   UNL     1       2.004   1.712  23.728  0.00  0.00    +0.122 HD
BRANCH   3  10
ATOM     10  C   UNL     1       1.471  -0.050  22.876  0.00  0.00    +0.084 C 
BRANCH  10   9
ATOM      9  C   UNL     1       2.971  -0.235  22.730  0.00  0.00    +0.003 C 
ATOM     11  C   UNL     1       3.561  -1.195  23.759  0.00  0.00    +0.005 C 
ATOM     12  C   UNL     1       3.764   1.042  22.987  0.00  0.00    +0.005 C 
ATOM     13  C   UNL     1       5.055  -0.893  23.732  0.00  0.00    +0.000 C 
ATOM     14  C   UNL     1       5.185   0.552  23.246  0.00  0.00    +0.000 C 
ENDBRANCH  10   9
ENDBRANCH   3  10
ENDBRANCH   4   3
TORSDOF 6
ENDMDL
MODEL 3
REMARK VINA RESULT:      -6.6      2.381      4.266
REMARK  Name = 71693828
REMARK  6 active torsions:
REMARK  status: ('A' for Active; 'I' for Inactive)
REMARK    1  A    between atoms: O_1  and  C_6
REMARK    2  A    between atoms: O_2  and  C_8
REMARK    3  A    between atoms: N_3  and  C_4
REMARK    4  A    between atoms: N_3  and  C_10
REMARK    5  A    between atoms: C_5  and  C_15
REMARK    6  A    between atoms: C_9  and  C_10
REMARK                            x       y       z     vdW  Elec       q    Type
REMARK                         _______ _______ _______ _____ _____    ______ ____
ROOT
ATOM      4  C   UNL     1      -3.024   2.595  24.988  0.00  0.00    +0.092 C 
ATOM      5  C   UNL     1      -4.060   1.671  24.274  0.00  0.00    +0.041 C 
ATOM      6  C   UNL     1      -3.868   3.623  25.758  0.00  0.00    +0.160 C 
ATOM      7  C   UNL     1      -5.447   2.223  24.654  0.00  0.00    +0.043 C 
ATOM      8  C   UNL     1      -5.177   3.684  24.977  0.00  0.00    +0.145 C 
ENDROOT
BRANCH   5  15
ATOM     15  C   UNL     1      -3.896   0.200  24.591  0.00  0.00    -0.043 A 
ATOM     16  C   UNL     1      -4.050  -0.753  23.583  0.00  0.00    +0.004 A 
ATOM     17  C   UNL     1      -3.591  -0.203  25.891  0.00  0.00    +0.004 A 
ATOM     18  C   UNL     1      -3.898  -2.108  23.877  0.00  0.00    +0.000 A 
ATOM     19  C   UNL     1      -3.440  -1.558  26.183  0.00  0.00    +0.000 A 
ATOM     20  C   UNL     1      -3.593  -2.511  25.177  0.00  0.00    +0.000 A 
ENDBRANCH   5  15
BRANCH   6   1
ATOM      1  O   UNL     1      -4.090   3.125  27.077  0.00  0.00    -0.388 OA
ATOM     22  H   UNL     1      -3.412   3.516  27.654  0.00  0.00    +0.210 HD
ENDBRANCH   6   1
BRANCH   8   2
ATOM      2  O   UNL     1      -6.232   4.252  25.727  0.00  0.00    -0.389 OA
ATOM     23  H   UNL     1      -5.870   4.511  26.591  0.00  0.00    +0.210 HD
ENDBRANCH   8   2
BRANCH   4   3
ATOM      3  N   UNL     1      -2.202   3.275  23.987  0.00  0.00    -0.310 NA
ATOM     21  H   UNL     1      -2.538   4.229  23.853  0.00  0.00    +0.122 HD
BRANCH   3  10
ATOM     10  C   UNL     1      -0.808   3.324  24.405  0.00  0.00    +0.084 C 
BRANCH  10   9
ATOM      9  C   UNL     1      -0.165   1.950  24.337  0.00  0.00    +0.003 C 
ATOM     11  C   UNL     1      -0.623   1.131  23.134  0.00  0.00    +0.005 C 
ATOM     12  C   UNL     1      -0.546   1.048  25.507  0.00  0.00    +0.005 C 
ATOM     13  C   UNL     1      -0.238  -0.300  23.494  0.00  0.00    +0.000 C 
ATOM     14  C   UNL     1      -0.199  -0.356  25.022  0.00  0.00    +0.000 C 
ENDBRANCH  10   9
ENDBRANCH   3  10
ENDBRANCH   4   3
TORSDOF 6
ENDMDL
MODEL 4
REMARK VINA RESULT:      -6.6      1.245      1.964
REMARK  Name = 71693828
REMARK  6 active torsions:
REMARK  status: ('A' for Active; 'I' for Inactive)
REMARK    1  A    between atoms: O_1  and  C_6
REMARK    2  A    between atoms: O_2  and  C_8
REMARK    3  A    between atoms: N_3  and  C_4
REMARK    4  A    between atoms: N_3  and  C_10
REMARK    5  A    between atoms: C_5  and  C_15
REMARK    6  A    between atoms: C_9  and  C_10
REMARK                            x       y       z     vdW  Elec       q    Type
REMARK                         _______ _______ _______ _____ _____    ______ ____
ROOT
ATOM      4  C   UNL     1      -1.891   1.880  24.557  0.00  0.00    +0.092 C 
ATOM      5  C   UNL     1      -1.460   0.504  25.154  0.00  0.00    +0.041 C 
ATOM      6  C   UNL     1      -0.668   2.376  23.769  0.00  0.00    +0.160 C 
ATOM      7  C   UNL     1      -0.006   0.284  24.695  0.00  0.00    +0.043 C 
ATOM      8  C   UNL     1       0.512   1.694  24.453  0.00  0.00    +0.145 C 
ENDROOT
BRANCH   5  15
ATOM     15  C   UNL     1      -2.380  -0.642  24.791  0.00  0.00    -0.043 A 
ATOM     16  C   UNL     1      -3.642  -0.382  24.256  0.00  0.00    +0.004 A 
ATOM     17  C   UNL     1      -1.966  -1.959  24.991  0.00  0.00    +0.004 A 
ATOM     18  C   UNL     1      -4.489  -1.439  23.922  0.00  0.00    +0.000 A 
ATOM     19  C   UNL     1      -2.813  -3.014  24.657  0.00  0.00    +0.000 A 
ATOM     20  C   UNL     1      -4.074  -2.755  24.122  0.00  0.00    +0.000 A 
ENDBRANCH   5  15
BRANCH   6   1
ATOM      1  O   UNL     1      -0.794   1.933  22.418  0.00  0.00    -0.388 OA
ATOM     22  H   UNL     1      -1.056   2.702  21.882  0.00  0.00    +0.210 HD
ENDBRANCH   6   1
BRANCH   8   2
ATOM      2  O   UNL     1       1.676   1.686  23.651  0.00  0.00    -0.389 OA
ATOM     23  H   UNL     1       1.814   2.593  23.328  0.00  0.00    +0.210 HD
ENDBRANCH   8   2
BRANCH   4   3
ATOM      3  N   UNL     1      -2.195   2.812  25.643  0.00  0.00    -0.310 NA
ATOM     21  H   UNL     1      -1.330   3.196  26.022  0.00  0.00    +0.122 HD
BRANCH   3  10
ATOM     10  C   UNL     1      -3.026   3.910  25.169  0.00  0.00    +0.084 C 
BRANCH  10   9
ATOM      9  C   UNL     1      -4.499   3.546  25.219  0.00  0.00    +0.003 C 
ATOM     11  C   UNL     1      -4.904   2.853  26.517  0.00  0.00    +0.005 C 
ATOM     12  C   UNL     1      -4.903   2.520  24.165  0.00  0.00    +0.005 C 
ATOM     13  C   UNL     1      -6.238   2.196  26.183  0.00  0.00    +0.000 C 
ATOM     14  C   UNL     1      -6.233   1.971  24.670  0.00  0.00    +0.000 C 
ENDBRANCH  10   9
ENDBRANCH   3  10
ENDBRANCH   4   3
TORSDOF 6
ENDMDL
MODEL 5
REMARK VINA RESULT:      -6.4      1.581      4.326
REMARK  Name = 71693828
REMARK  6 active torsions:
REMARK  status: ('A' for Active; 'I' for Inactive)
REMARK    1  A    between atoms: O_1  and  C_6
REMARK    2  A    between atoms: O_2  and  C_8
REMARK    3  A    between atoms: N_3  and  C_4
REMARK    4  A    between atoms: N_3  and  C_10
REMARK    5  A    between atoms: C_5  and  C_15
REMARK    6  A    between atoms: C_9  and  C_10
REMARK                            x       y       z     vdW  Elec       q    Type
REMARK                         _______ _______ _______ _____ _____    ______ ____
ROOT
ATOM      4  C   UNL     1      -1.415   1.517  24.700  0.00  0.00    +0.092 C 
ATOM      5  C   UNL     1      -2.501   2.414  24.029  0.00  0.00    +0.041 C 
ATOM      6  C   UNL     1      -0.329   2.493  25.180  0.00  0.00    +0.160 C 
ATOM      7  C   UNL     1      -1.979   3.860  24.141  0.00  0.00    +0.043 C 
ATOM      8  C   UNL     1      -0.471   3.690  24.246  0.00  0.00    +0.145 C 
ENDROOT
BRANCH   5  15
ATOM     15  C   UNL     1      -3.890   2.236  24.604  0.00  0.00    -0.043 A 
ATOM     16  C   UNL     1      -4.530   0.999  24.514  0.00  0.00    +0.004 A 
ATOM     17  C   UNL     1      -4.531   3.309  25.223  0.00  0.00    +0.004 A 
ATOM     18  C   UNL     1      -5.810   0.837  25.044  0.00  0.00    +0.000 A 
ATOM     19  C   UNL     1      -5.810   3.145  25.753  0.00  0.00    +0.000 A 
ATOM     20  C   UNL     1      -6.450   1.910  25.663  0.00  0.00    +0.000 A 
ENDBRANCH   5  15
BRANCH   6   1
ATOM      1  O   UNL     1      -0.621   2.865  26.526  0.00  0.00    -0.388 OA
ATOM     22  H   UNL     1      -1.555   3.134  26.558  0.00  0.00    +0.210 HD
ENDBRANCH   6   1
BRANCH   8   2
ATOM      2  O   UNL     1       0.146   4.855  24.757  0.00  0.00    -0.389 OA
ATOM     23  H   UNL     1       1.106   4.701  24.758  0.00  0.00    +0.210 HD
ENDBRANCH   8   2
BRANCH   4   3
ATOM      3  N   UNL     1      -0.856   0.598  23.707  0.00  0.00    -0.310 NA
ATOM     21  H   UNL     1      -0.179   1.090  23.124  0.00  0.00    +0.122 HD
BRANCH   3  10
ATOM     10  C   UNL     1      -0.190  -0.524  24.354  0.00  0.00    +0.084 C 
BRANCH  10   9
ATOM      9  C   UNL     1      -1.196  -1.476  24.975  0.00  0.00    +0.003 C 
ATOM     11  C   UNL     1      -2.278  -1.928  24.000  0.00  0.00    +0.005 C 
ATOM     12  C   UNL     1      -2.014  -0.842  26.096  0.00  0.00    +0.005 C 
ATOM     13  C   UNL     1      -3.381  -2.474  24.899  0.00  0.00    +0.000 C 
ATOM     14  C   UNL     1      -3.218  -1.766  26.246  0.00  0.00    +0.000 C 
ENDBRANCH  10   9
ENDBRANCH   3  10
ENDBRANCH   4   3
TORSDOF 6
ENDMDL
MODEL 6
REMARK VINA RESULT:      -6.1      1.752      2.411
REMARK  Name = 71693828
REMARK  6 active torsions:
REMARK  status: ('A' for Active; 'I' for Inactive)
REMARK    1  A    between atoms: O_1  and  C_6
REMARK    2  A    between atoms: O_2  and  C_8
REMARK    3  A    between atoms: N_3  and  C_4
REMARK    4  A    between atoms: N_3  and  C_10
REMARK    5  A    between atoms: C_5  and  C_15
REMARK    6  A    between atoms: C_9  and  C_10
REMARK                            x       y       z     vdW  Elec       q    Type
REMARK                         _______ _______ _______ _____ _____    ______ ____
ROOT
ATOM      4  C   UNL     1      -0.629   1.138  24.784  0.00  0.00    +0.092 C 
ATOM      5  C   UNL     1      -0.613  -0.422  24.814  0.00  0.00    +0.041 C 
ATOM      6  C   UNL     1       0.406   1.530  23.718  0.00  0.00    +0.160 C 
ATOM      7  C   UNL     1       0.443  -0.850  23.776  0.00  0.00    +0.043 C 
ATOM      8  C   UNL     1       1.373   0.351  23.692  0.00  0.00    +0.145 C 
ENDROOT
BRANCH   5  15
ATOM     15  C   UNL     1      -1.966  -1.059  24.584  0.00  0.00    -0.043 A 
ATOM     16  C   UNL     1      -2.096  -2.448  24.596  0.00  0.00    +0.004 A 
ATOM     17  C   UNL     1      -3.085  -0.256  24.360  0.00  0.00    +0.004 A 
ATOM     18  C   UNL     1      -3.345  -3.033  24.384  0.00  0.00    +0.000 A 
ATOM     19  C   UNL     1      -4.332  -0.842  24.149  0.00  0.00    +0.000 A 
ATOM     20  C   UNL     1      -4.463  -2.230  24.160  0.00  0.00    +0.000 A 
ENDBRANCH   5  15
BRANCH   6   1
ATOM      1  O   UNL     1      -0.266   1.661  22.466  0.00  0.00    -0.388 OA
ATOM     22  H   UNL     1      -0.935   0.956  22.419  0.00  0.00    +0.210 HD
ENDBRANCH   6   1
BRANCH   8   2
ATOM      2  O   UNL     1       2.158   0.316  22.517  0.00  0.00    -0.389 OA
ATOM     23  H   UNL     1       2.831   1.013  22.595  0.00  0.00    +0.210 HD
ENDBRANCH   8   2
BRANCH   4   3
ATOM      3  N   UNL     1      -0.222   1.657  26.090  0.00  0.00    -0.310 NA
ATOM     21  H   UNL     1       0.781   1.844  26.090  0.00  0.00    +0.122 HD
BRANCH   3  10
ATOM     10  C   UNL     1      -0.928   2.892  26.402  0.00  0.00    +0.084 C 
BRANCH  10   9
ATOM      9  C   UNL     1      -2.089   3.117  25.451  0.00  0.00    +0.003 C 
ATOM     11  C   UNL     1      -2.122   4.525  24.865  0.00  0.00    +0.005 C 
ATOM     12  C   UNL     1      -3.452   3.015  26.127  0.00  0.00    +0.005 C 
ATOM     13  C   UNL     1      -3.543   4.671  24.334  0.00  0.00    +0.000 C 
ATOM     14  C   UNL     1      -4.402   3.707  25.155  0.00  0.00    +0.000 C 
ENDBRANCH  10   9
ENDBRANCH   3  10
ENDBRANCH   4   3
TORSDOF 6
ENDMDL
MODEL 7
REMARK VINA RESULT:      -5.8      2.021      4.192
REMARK  Name = 71693828
REMARK  6 active torsions:
REMARK  status: ('A' for Active; 'I' for Inactive)
REMARK    1  A    between atoms: O_1  and  C_6
REMARK    2  A    between atoms: O_2  and  C_8
REMARK    3  A    between atoms: N_3  and  C_4
REMARK    4  A    between atoms: N_3  and  C_10
REMARK    5  A    between atoms: C_5  and  C_15
REMARK    6  A    between atoms: C_9  and  C_10
REMARK                            x       y       z     vdW  Elec       q    Type
REMARK                         _______ _______ _______ _____ _____    ______ ____
ROOT
ATOM      4  C   UNL     1      -2.272  -0.012  25.038  0.00  0.00    +0.092 C 
ATOM      5  C   UNL     1      -1.228   0.769  24.180  0.00  0.00    +0.041 C 
ATOM      6  C   UNL     1      -1.478  -1.145  25.705  0.00  0.00    +0.160 C 
ATOM      7  C   UNL     1       0.113   0.035  24.382  0.00  0.00    +0.043 C 
ATOM      8  C   UNL     1      -0.304  -1.378  24.759  0.00  0.00    +0.145 C 
ENDROOT
BRANCH   5  15
ATOM     15  C   UNL     1      -1.152   2.247  24.494  0.00  0.00    -0.043 A 
ATOM     16  C   UNL     1      -1.795   2.755  25.623  0.00  0.00    +0.004 A 
ATOM     17  C   UNL     1      -0.438   3.103  23.655  0.00  0.00    +0.004 A 
ATOM     18  C   UNL     1      -1.725   4.118  25.911  0.00  0.00    +0.000 A 
ATOM     19  C   UNL     1      -0.368   4.465  23.944  0.00  0.00    +0.000 A 
ATOM     20  C   UNL     1      -1.011   4.973  25.072  0.00  0.00    +0.000 A 
ENDBRANCH   5  15
BRANCH   6   1
ATOM      1  O   UNL     1      -1.019  -0.686  26.975  0.00  0.00    -0.388 OA
ATOM     22  H   UNL     1      -0.049  -0.764  26.980  0.00  0.00    +0.210 HD
ENDBRANCH   6   1
BRANCH   8   2
ATOM      2  O   UNL     1       0.757  -2.084  25.371  0.00  0.00    -0.389 OA
ATOM     23  H   UNL     1       0.922  -2.882  24.839  0.00  0.00    +0.210 HD
ENDBRANCH   8   2
BRANCH   4   3
ATOM      3  N   UNL     1      -3.303  -0.573  24.163  0.00  0.00    -0.310 NA
ATOM     21  H   UNL     1      -3.838  -1.279  24.669  0.00  0.00    +0.122 HD
BRANCH   3  10
ATOM     10  C   UNL     1      -4.215   0.464  23.703  0.00  0.00    +0.084 C 
BRANCH  10   9
ATOM      9  C   UNL     1      -4.526   1.455  24.810  0.00  0.00    +0.003 C 
ATOM     11  C   UNL     1      -5.850   1.174  25.515  0.00  0.00    +0.005 C 
ATOM     12  C   UNL     1      -4.724   2.881  24.306  0.00  0.00    +0.005 C 
ATOM     13  C   UNL     1      -6.171   2.480  26.232  0.00  0.00    +0.000 C 
ATOM     14  C   UNL     1      -5.455   3.581  25.447  0.00  0.00    +0.000 C 
ENDBRANCH  10   9
ENDBRANCH   3  10
ENDBRANCH   4   3
TORSDOF 6
ENDMDL
MODEL 8
REMARK VINA RESULT:      -5.7      3.181      6.424
REMARK  Name = 71693828
REMARK  6 active torsions:
REMARK  status: ('A' for Active; 'I' for Inactive)
REMARK    1  A    between atoms: O_1  and  C_6
REMARK    2  A    between atoms: O_2  and  C_8
REMARK    3  A    between atoms: N_3  and  C_4
REMARK    4  A    between atoms: N_3  and  C_10
REMARK    5  A    between atoms: C_5  and  C_15
REMARK    6  A    between atoms: C_9  and  C_10
REMARK                            x       y       z     vdW  Elec       q    Type
REMARK                         _______ _______ _______ _____ _____    ______ ____
ROOT
ATOM      4  C   UNL     1      -0.153   0.671  23.779  0.00  0.00    +0.092 C 
ATOM      5  C   UNL     1      -0.544   1.165  25.207  0.00  0.00    +0.041 C 
ATOM      6  C   UNL     1      -0.549  -0.813  23.745  0.00  0.00    +0.160 C 
ATOM      7  C   UNL     1      -1.129  -0.064  25.930  0.00  0.00    +0.043 C 
ATOM      8  C   UNL     1      -0.494  -1.243  25.208  0.00  0.00    +0.145 C 
ENDROOT
BRANCH   5  15
ATOM     15  C   UNL     1      -1.473   2.359  25.214  0.00  0.00    -0.043 A 
ATOM     16  C   UNL     1      -2.849   2.176  25.079  0.00  0.00    +0.004 A 
ATOM     17  C   UNL     1      -0.952   3.646  25.355  0.00  0.00    +0.004 A 
ATOM     18  C   UNL     1      -3.703   3.278  25.086  0.00  0.00    +0.000 A 
ATOM     19  C   UNL     1      -1.807   4.747  25.362  0.00  0.00    +0.000 A 
ATOM     20  C   UNL     1      -3.183   4.564  25.227  0.00  0.00    +0.000 A 
ENDBRANCH   5  15
BRANCH   6   1
ATOM      1  O   UNL     1      -1.879  -0.913  23.239  0.00  0.00    -0.388 OA
ATOM     22  H   UNL     1      -1.856  -1.514  22.474  0.00  0.00    +0.210 HD
ENDBRANCH   6   1
BRANCH   8   2
ATOM      2  O   UNL     1      -1.204  -2.441  25.450  0.00  0.00    -0.389 OA
ATOM     23  H   UNL     1      -0.694  -2.956  26.098  0.00  0.00    +0.210 HD
ENDBRANCH   8   2
BRANCH   4   3
ATOM      3  N   UNL     1       1.293   0.806  23.592  0.00  0.00    -0.310 NA
ATOM     21  H   UNL     1       1.777   0.557  24.455  0.00  0.00    +0.122 HD
BRANCH   3  10
ATOM     10  C   UNL     1       1.762  -0.063  22.523  0.00  0.00    +0.084 C 
BRANCH  10   9
ATOM      9  C   UNL     1       3.266  -0.260  22.595  0.00  0.00    +0.003 C 
ATOM     11  C   UNL     1       3.694  -1.220  23.701  0.00  0.00    +0.005 C 
ATOM     12  C   UNL     1       4.024   1.012  22.957  0.00  0.00    +0.005 C 
ATOM     13  C   UNL     1       5.179  -0.929  23.887  0.00  0.00    +0.000 C 
ATOM     14  C   UNL     1       5.390   0.513  23.419  0.00  0.00    +0.000 C 
ENDBRANCH  10   9
ENDBRANCH   3  10
ENDBRANCH   4   3
TORSDOF 6
ENDMDL
MODEL 9
REMARK VINA RESULT:      -5.4      2.533      4.753
REMARK  Name = 71693828
REMARK  6 active torsions:
REMARK  status: ('A' for Active; 'I' for Inactive)
REMARK    1  A    between atoms: O_1  and  C_6
REMARK    2  A    between atoms: O_2  and  C_8
REMARK    3  A    between atoms: N_3  and  C_4
REMARK    4  A    between atoms: N_3  and  C_10
REMARK    5  A    between atoms: C_5  and  C_15
REMARK    6  A    between atoms: C_9  and  C_10
REMARK                            x       y       z     vdW  Elec       q    Type
REMARK                         _______ _______ _______ _____ _____    ______ ____
ROOT
ATOM      4  C   UNL     1      -2.623  -0.237  23.889  0.00  0.00    +0.092 C 
ATOM      5  C   UNL     1      -3.029   0.218  25.326  0.00  0.00    +0.041 C 
ATOM      6  C   UNL     1      -2.937  -1.740  23.840  0.00  0.00    +0.160 C 
ATOM      7  C   UNL     1      -3.541  -1.050  26.038  0.00  0.00    +0.043 C 
ATOM      8  C   UNL     1      -2.847  -2.183  25.297  0.00  0.00    +0.145 C 
ENDROOT
BRANCH   5  15
ATOM     15  C   UNL     1      -4.022   1.359  25.354  0.00  0.00    -0.043 A 
ATOM     16  C   UNL     1      -3.569   2.678  25.399  0.00  0.00    +0.004 A 
ATOM     17  C   UNL     1      -5.391   1.093  25.336  0.00  0.00    +0.004 A 
ATOM     18  C   UNL     1      -4.486   3.729  25.426  0.00  0.00    +0.000 A 
ATOM     19  C   UNL     1      -6.306   2.144  25.363  0.00  0.00    +0.000 A 
ATOM     20  C   UNL     1      -5.854   3.462  25.407  0.00  0.00    +0.000 A 
ENDBRANCH   5  15
BRANCH   6   1
ATOM      1  O   UNL     1      -4.263  -1.907  23.342  0.00  0.00    -0.388 OA
ATOM     22  H   UNL     1      -4.600  -1.024  23.107  0.00  0.00    +0.210 HD
ENDBRANCH   6   1
BRANCH   8   2
ATOM      2  O   UNL     1      -3.488  -3.421  25.529  0.00  0.00    -0.389 OA
ATOM     23  H   UNL     1      -4.438  -3.294  25.365  0.00  0.00    +0.210 HD
ENDBRANCH   8   2
BRANCH   4   3
ATOM      3  N   UNL     1      -1.188  -0.020  23.694  0.00  0.00    -0.310 NA
ATOM     21  H   UNL     1      -1.040   0.694  22.981  0.00  0.00    +0.122 HD
BRANCH   3  10
ATOM     10  C   UNL     1      -0.555   0.414  24.930  0.00  0.00    +0.084 C 
BRANCH  10   9
ATOM      9  C   UNL     1      -0.060   1.846  24.822  0.00  0.00    +0.003 C 
ATOM     11  C   UNL     1      -0.420   2.700  26.034  0.00  0.00    +0.005 C 
ATOM     12  C   UNL     1      -0.705   2.621  23.677  0.00  0.00    +0.005 C 
ATOM     13  C   UNL     1      -0.247   4.132  25.540  0.00  0.00    +0.000 C 
ATOM     14  C   UNL     1      -0.443   4.083  24.024  0.00  0.00    +0.000 C 
ENDBRANCH  10   9
ENDBRANCH   3  10
ENDBRANCH   4   3
TORSDOF 6
ENDMDL
MODEL 10
REMARK VINA RESULT:      -4.9      2.505      5.197
REMARK  Name = 71693828
REMARK  6 active torsions:
REMARK  status: ('A' for Active; 'I' for Inactive)
REMARK    1  A    between atoms: O_1  and  C_6
REMARK    2  A    between atoms: O_2  and  C_8
REMARK    3  A    between atoms: N_3  and  C_4
REMARK    4  A    between atoms: N_3  and  C_10
REMARK    5  A    between atoms: C_5  and  C_15
REMARK    6  A    between atoms: C_9  and  C_10
REMARK                            x       y       z     vdW  Elec       q    Type
REMARK                         _______ _______ _______ _____ _____    ______ ____
ROOT
ATOM      4  C   UNL     1      -4.146   1.588  24.337  0.00  0.00    +0.092 C 
ATOM      5  C   UNL     1      -3.216   1.998  25.521  0.00  0.00    +0.041 C 
ATOM      6  C   UNL     1      -5.155   2.739  24.203  0.00  0.00    +0.160 C 
ATOM      7  C   UNL     1      -3.747   3.355  26.022  0.00  0.00    +0.043 C 
ATOM      8  C   UNL     1      -5.209   3.347  25.601  0.00  0.00    +0.145 C 
ENDROOT
BRANCH   5  15
ATOM     15  C   UNL     1      -1.744   2.026  25.170  0.00  0.00    -0.043 A 
ATOM     16  C   UNL     1      -1.302   1.470  23.969  0.00  0.00    +0.004 A 
ATOM     17  C   UNL     1      -0.829   2.608  26.047  0.00  0.00    +0.004 A 
ATOM     18  C   UNL     1       0.055   1.497  23.647  0.00  0.00    +0.000 A 
ATOM     19  C   UNL     1       0.527   2.634  25.724  0.00  0.00    +0.000 A 
ATOM     20  C   UNL     1       0.969   2.079  24.524  0.00  0.00    +0.000 A 
ENDBRANCH   5  15
BRANCH   6   1
ATOM      1  O   UNL     1      -4.642   3.681  23.262  0.00  0.00    -0.388 OA
ATOM     22  H   UNL     1      -5.335   3.836  22.597  0.00  0.00    +0.210 HD
ENDBRANCH   6   1
BRANCH   8   2
ATOM      2  O   UNL     1      -5.756   4.650  25.608  0.00  0.00    -0.389 OA
ATOM     23  H   UNL     1      -6.718   4.562  25.716  0.00  0.00    +0.210 HD
ENDBRANCH   8   2
BRANCH   4   3
ATOM      3  N   UNL     1      -4.846   0.347  24.669  0.00  0.00    -0.310 NA
ATOM     21  H   UNL     1      -4.797  -0.299  23.881  0.00  0.00    +0.122 HD
BRANCH   3  10
ATOM     10  C   UNL     1      -4.251  -0.290  25.835  0.00  0.00    +0.084 C 
BRANCH  10   9
ATOM      9  C   UNL     1      -3.586  -1.604  25.465  0.00  0.00    +0.003 C 
ATOM     11  C   UNL     1      -2.077  -1.481  25.273  0.00  0.00    +0.005 C 
ATOM     12  C   UNL     1      -4.041  -2.150  24.115  0.00  0.00    +0.005 C 
ATOM     13  C   UNL     1      -1.701  -2.737  24.496  0.00  0.00    +0.000 C 
ATOM     14  C   UNL     1      -2.962  -3.162  23.741  0.00  0.00    +0.000 C 
ENDBRANCH  10   9
ENDBRANCH   3  10
ENDBRANCH   4   3
TORSDOF 6
ENDMDL
