MODEL 1
REMARK VINA RESULT:       3.9      0.000      0.000
REMARK  Name = 40779089
REMARK  3 active torsions:
REMARK  status: ('A' for Active; 'I' for Inactive)
REMARK    1  A    between atoms: N_4  and  C_12
REMARK    2  A    between atoms: C_19  and  C_23
REMARK    3  A    between atoms: C_24  and  C_27
REMARK                            x       y       z     vdW  Elec       q    Type
REMARK                         _______ _______ _______ _____ _____    ______ ____
ROOT
ATOM      2  O   UNL     1      -3.683   4.673  23.580  0.00  0.00    -0.268 OA
ATOM      4  N   UNL     1       0.314   1.731  24.056  0.00  0.00    -0.298 NA
ATOM      5  N   UNL     1      -2.590   2.894  24.640  0.00  0.00    -0.311 N 
ATOM      7  C   UNL     1      -0.396   3.234  25.926  0.00  0.00    +0.024 C 
ATOM      8  C   UNL     1      -1.374   0.997  25.752  0.00  0.00    +0.051 C 
ATOM      9  C   UNL     1      -0.867   2.042  26.743  0.00  0.00    +0.017 C 
ATOM     10  C   UNL     1       0.729   2.810  24.960  0.00  0.00    +0.090 C 
ATOM     11  C   UNL     1      -0.220   0.585  24.805  0.00  0.00    +0.094 C 
ATOM     13  C   UNL     1      -1.601   3.829  25.196  0.00  0.00    +0.130 C 
ATOM     14  C   UNL     1      -2.571   1.521  24.953  0.00  0.00    +0.034 A 
ATOM     19  C   UNL     1      -3.583   0.717  24.534  0.00  0.00    +0.005 A 
ATOM     20  C   UNL     1      -3.611   3.479  23.871  0.00  0.00    +0.252 A 
ATOM     21  C   UNL     1      -4.653   1.284  23.735  0.00  0.00    +0.015 A 
ATOM     22  C   UNL     1      -4.683   2.574  23.398  0.00  0.00    +0.071 A 
ENDROOT
BRANCH   4  12
ATOM      3  O   UNL     1       5.316  -1.751  23.253  0.00  0.00    -0.276 OA
ATOM      6  N   UNL     1       4.035   0.142  22.838  0.00  0.00    -0.302 N 
ATOM     12  C   UNL     1       1.414   1.322  23.188  0.00  0.00    +0.060 C 
ATOM     15  C   UNL     1       1.635  -0.192  23.296  0.00  0.00    +0.038 C 
ATOM     16  C   UNL     1       2.694   2.079  23.568  0.00  0.00    +0.038 C 
ATOM     17  C   UNL     1       2.844  -0.627  22.469  0.00  0.00    +0.109 C 
ATOM     18  C   UNL     1       3.882   1.599  22.736  0.00  0.00    +0.109 C 
ATOM     24  C   UNL     1       5.203  -0.524  23.209  0.00  0.00    +0.212 C 
ATOM     27  C   UNL     1       6.384   0.339  23.577  0.00  0.00    +0.109 C 
ENDBRANCH   4  12
BRANCH  19  23
ATOM      1  F   UNL     1      -4.257  -1.259  22.629  0.00  0.00    -0.205 F 
ATOM     23  C   UNL     1      -3.616  -0.726  24.856  0.00  0.00    +0.019 A 
ATOM     25  C   UNL     1      -3.956  -1.657  23.875  0.00  0.00    +0.131 A 
ATOM     26  C   UNL     1      -3.305  -1.156  26.147  0.00  0.00    +0.011 A 
ATOM     28  C   UNL     1      -3.985  -3.017  24.183  0.00  0.00    +0.039 A 
ATOM     29  C   UNL     1      -3.334  -2.517  26.455  0.00  0.00    +0.001 A 
ATOM     30  C   UNL     1      -3.675  -3.447  25.473  0.00  0.00    +0.003 A 
ENDBRANCH  19  23
TORSDOF 2
ENDMDL
