MODEL 1
REMARK VINA RESULT:      11.0      0.000      0.000
REMARK  Name = 45783310
REMARK  7 active torsions:
REMARK  status: ('A' for Active; 'I' for Inactive)
REMARK    1  A    between atoms: O_3  and  C_35
REMARK    2  A    between atoms: N_5  and  C_16
REMARK    3  A    between atoms: C_11  and  C_21
REMARK    4  A    between atoms: C_15  and  C_24
REMARK    5  A    between atoms: C_16  and  C_22
REMARK    6  A    between atoms: C_25  and  C_27
REMARK    7  A    between atoms: C_34  and  C_35
REMARK                            x       y       z     vdW  Elec       q    Type
REMARK                         _______ _______ _______ _____ _____    ______ ____
ROOT
ATOM      1  O   UNL     1      -2.263   2.757  25.328  0.00  0.00    -0.336 OA
ATOM      7  N   UNL     1      -2.590   1.771  23.344  0.00  0.00    -0.190 NA
ATOM      8  N   UNL     1      -1.039   2.171  24.978  0.00  0.00    -0.056 NA
ATOM     21  C   UNL     1      -3.121   2.474  24.313  0.00  0.00    +0.245 A 
ATOM     25  C   UNL     1      -1.313   1.610  23.798  0.00  0.00    +0.202 A 
ENDROOT
BRANCH  25  27
ATOM      6  N   UNL     1       3.275   0.372  22.946  0.00  0.00    -0.315 N 
ATOM      9  N   UNL     1       1.574  -0.550  21.582  0.00  0.00    -0.240 NA
ATOM     15  C   UNL     1       6.100   0.605  23.575  0.00  0.00    +0.078 C 
ATOM     17  C   UNL     1       5.022   0.710  24.652  0.00  0.00    +0.031 C 
ATOM     18  C   UNL     1       5.545   0.963  22.198  0.00  0.00    +0.031 C 
ATOM     19  C   UNL     1       3.724  -0.013  24.287  0.00  0.00    +0.107 C 
ATOM     20  C   UNL     1       4.255   0.215  21.864  0.00  0.00    +0.107 C 
ATOM     23  C   UNL     1       1.921   0.255  22.611  0.00  0.00    +0.122 A 
ATOM     26  C   UNL     1       1.016   0.982  23.366  0.00  0.00    +0.055 A 
ATOM     27  C   UNL     1      -0.333   0.878  23.045  0.00  0.00    +0.027 A 
ATOM     30  C   UNL     1      -0.730   0.060  21.992  0.00  0.00    +0.031 A 
ATOM     31  C   UNL     1       0.253  -0.627  21.299  0.00  0.00    +0.113 A 
BRANCH  15  24
ATOM      2  O   UNL     1       7.670  -1.035  22.820  0.00  0.00    -0.276 OA
ATOM     10  N   UNL     1       6.124  -1.656  24.406  0.00  0.00    -0.329 N 
ATOM     24  C   UNL     1       6.723  -0.760  23.553  0.00  0.00    +0.214 C 
ATOM     36  H   UNL     1       6.463  -2.610  24.476  0.00  0.00    +0.145 HD
ATOM     37  H   UNL     1       5.304  -1.430  24.959  0.00  0.00    +0.145 HD
ENDBRANCH  15  24
ENDBRANCH  25  27
BRANCH  21  11
ATOM      5  N   UNL     1      -5.193   2.545  25.689  0.00  0.00    -0.287 NA
ATOM     11  C   UNL     1      -4.530   3.006  24.452  0.00  0.00    +0.146 C 
ATOM     12  C   UNL     1      -4.580   4.543  24.533  0.00  0.00    +0.030 C 
ATOM     13  C   UNL     1      -5.341   4.850  25.816  0.00  0.00    +0.017 C 
ATOM     14  C   UNL     1      -6.146   3.590  26.063  0.00  0.00    +0.085 C 
BRANCH   5  16
ATOM     16  C   UNL     1      -5.835   1.245  25.545  0.00  0.00    +0.120 C 
BRANCH  16  22
ATOM     22  C   UNL     1      -4.841   0.160  25.222  0.00  0.00    -0.033 A 
ATOM     28  C   UNL     1      -4.939  -0.541  24.021  0.00  0.00    +0.006 A 
ATOM     29  C   UNL     1      -3.822  -0.142  26.126  0.00  0.00    +0.006 A 
ATOM     32  C   UNL     1      -4.018  -1.545  23.722  0.00  0.00    +0.015 A 
ATOM     33  C   UNL     1      -2.901  -1.147  25.826  0.00  0.00    +0.015 A 
ATOM     34  C   UNL     1      -2.999  -1.848  24.625  0.00  0.00    +0.059 A 
BRANCH  34  35
ATOM      4  O   UNL     1      -2.221  -3.821  23.517  0.00  0.00    -0.245 OA
ATOM     35  C   UNL     1      -2.038  -2.893  24.314  0.00  0.00    +0.337 C 
BRANCH  35   3
ATOM      3  O   UNL     1      -0.874  -2.753  25.004  0.00  0.00    -0.477 OA
ATOM     38  H   UNL     1      -0.172  -2.339  24.458  0.00  0.00    +0.295 HD
ENDBRANCH  35   3
ENDBRANCH  34  35
ENDBRANCH  16  22
ENDBRANCH   5  16
ENDBRANCH  21  11
TORSDOF 7
ENDMDL
MODEL 2
REMARK VINA RESULT:      11.2      2.235      3.806
REMARK  Name = 45783310
REMARK  7 active torsions:
REMARK  status: ('A' for Active; 'I' for Inactive)
REMARK    1  A    between atoms: O_3  and  C_35
REMARK    2  A    between atoms: N_5  and  C_16
REMARK    3  A    between atoms: C_11  and  C_21
REMARK    4  A    between atoms: C_15  and  C_24
REMARK    5  A    between atoms: C_16  and  C_22
REMARK    6  A    between atoms: C_25  and  C_27
REMARK    7  A    between atoms: C_34  and  C_35
REMARK                            x       y       z     vdW  Elec       q    Type
REMARK                         _______ _______ _______ _____ _____    ______ ____
ROOT
ATOM      1  O   UNL     1      -5.266   1.212  24.655  0.00  0.00    -0.336 OA
ATOM      7  N   UNL     1      -3.129   1.685  25.126  0.00  0.00    -0.190 NA
ATOM      8  N   UNL     1      -4.522   0.098  24.245  0.00  0.00    -0.056 NA
ATOM     21  C   UNL     1      -4.370   2.099  25.161  0.00  0.00    +0.245 A 
ATOM     25  C   UNL     1      -3.272   0.454  24.555  0.00  0.00    +0.202 A 
ENDROOT
BRANCH  25  27
ATOM      6  N   UNL     1       1.330  -0.152  23.226  0.00  0.00    -0.315 N 
ATOM      9  N   UNL     1       0.057  -2.056  23.829  0.00  0.00    -0.240 NA
ATOM     15  C   UNL     1       3.846   0.959  22.297  0.00  0.00    +0.078 C 
ATOM     17  C   UNL     1       2.914   1.736  23.225  0.00  0.00    +0.031 C 
ATOM     18  C   UNL     1       3.081  -0.093  21.496  0.00  0.00    +0.031 C 
ATOM     19  C   UNL     1       2.006   0.838  24.068  0.00  0.00    +0.107 C 
ATOM     20  C   UNL     1       2.194  -0.977  22.372  0.00  0.00    +0.107 C 
ATOM     23  C   UNL     1       0.123  -0.717  23.657  0.00  0.00    +0.122 A 
ATOM     26  C   UNL     1      -0.937   0.147  23.881  0.00  0.00    +0.055 A 
ATOM     27  C   UNL     1      -2.143  -0.398  24.307  0.00  0.00    +0.027 A 
ATOM     30  C   UNL     1      -2.250  -1.772  24.496  0.00  0.00    +0.031 A 
ATOM     31  C   UNL     1      -1.131  -2.550  24.246  0.00  0.00    +0.113 A 
BRANCH  15  24
ATOM      2  O   UNL     1       5.802  -0.400  22.512  0.00  0.00    -0.276 OA
ATOM     10  N   UNL     1       4.972   0.621  24.400  0.00  0.00    -0.329 N 
ATOM     24  C   UNL     1       4.974   0.326  23.057  0.00  0.00    +0.214 C 
ATOM     36  H   UNL     1       5.690   0.248  25.012  0.00  0.00    +0.145 HD
ATOM     37  H   UNL     1       4.245   1.172  24.844  0.00  0.00    +0.145 HD
ENDBRANCH  15  24
ENDBRANCH  25  27
BRANCH  21  11
ATOM      5  N   UNL     1      -4.968   4.460  24.649  0.00  0.00    -0.287 NA
ATOM     11  C   UNL     1      -4.932   3.404  25.681  0.00  0.00    +0.146 C 
ATOM     12  C   UNL     1      -6.391   3.275  26.157  0.00  0.00    +0.030 C 
ATOM     13  C   UNL     1      -7.159   4.337  25.381  0.00  0.00    +0.017 C 
ATOM     14  C   UNL     1      -6.088   5.336  24.991  0.00  0.00    +0.085 C 
BRANCH   5  16
ATOM     16  C   UNL     1      -3.713   5.193  24.536  0.00  0.00    +0.120 C 
BRANCH  16  22
ATOM     22  C   UNL     1      -2.578   4.472  25.213  0.00  0.00    -0.033 A 
ATOM     28  C   UNL     1      -1.434   4.136  24.489  0.00  0.00    +0.006 A 
ATOM     29  C   UNL     1      -2.671   4.140  26.565  0.00  0.00    +0.006 A 
ATOM     32  C   UNL     1      -0.383   3.469  25.116  0.00  0.00    +0.015 A 
ATOM     33  C   UNL     1      -1.618   3.472  27.192  0.00  0.00    +0.015 A 
ATOM     34  C   UNL     1      -0.475   3.136  26.468  0.00  0.00    +0.059 A 
BRANCH  34  35
ATOM      4  O   UNL     1       1.623   2.979  27.608  0.00  0.00    -0.245 OA
ATOM     35  C   UNL     1       0.622   2.441  27.123  0.00  0.00    +0.337 C 
BRANCH  35   3
ATOM      3  O   UNL     1       0.439   1.093  27.155  0.00  0.00    -0.477 OA
ATOM     38  H   UNL     1      -0.409   0.829  26.739  0.00  0.00    +0.295 HD
ENDBRANCH  35   3
ENDBRANCH  34  35
ENDBRANCH  16  22
ENDBRANCH   5  16
ENDBRANCH  21  11
TORSDOF 7
ENDMDL
MODEL 3
REMARK VINA RESULT:      12.3      2.249      8.710
REMARK  Name = 45783310
REMARK  7 active torsions:
REMARK  status: ('A' for Active; 'I' for Inactive)
REMARK    1  A    between atoms: O_3  and  C_35
REMARK    2  A    between atoms: N_5  and  C_16
REMARK    3  A    between atoms: C_11  and  C_21
REMARK    4  A    between atoms: C_15  and  C_24
REMARK    5  A    between atoms: C_16  and  C_22
REMARK    6  A    between atoms: C_25  and  C_27
REMARK    7  A    between atoms: C_34  and  C_35
REMARK                            x       y       z     vdW  Elec       q    Type
REMARK                         _______ _______ _______ _____ _____    ______ ____
ROOT
ATOM      1  O   UNL     1       1.822  -2.211  24.736  0.00  0.00    -0.336 OA
ATOM      7  N   UNL     1       0.490  -0.831  23.579  0.00  0.00    -0.190 NA
ATOM      8  N   UNL     1       0.516  -2.483  25.162  0.00  0.00    -0.056 NA
ATOM     21  C   UNL     1       1.718  -1.226  23.805  0.00  0.00    +0.245 A 
ATOM     25  C   UNL     1      -0.211  -1.630  24.435  0.00  0.00    +0.202 A 
ENDROOT
BRANCH  25  27
ATOM      6  N   UNL     1      -4.230   0.898  25.314  0.00  0.00    -0.315 N 
ATOM      9  N   UNL     1      -4.425  -1.392  24.740  0.00  0.00    -0.240 NA
ATOM     15  C   UNL     1      -5.520   3.388  26.063  0.00  0.00    +0.078 C 
ATOM     17  C   UNL     1      -4.221   3.362  25.260  0.00  0.00    +0.031 C 
ATOM     18  C   UNL     1      -5.693   2.109  26.879  0.00  0.00    +0.031 C 
ATOM     19  C   UNL     1      -4.025   2.071  24.461  0.00  0.00    +0.107 C 
ATOM     20  C   UNL     1      -5.501   0.842  26.047  0.00  0.00    +0.107 C 
ATOM     23  C   UNL     1      -3.632  -0.320  24.968  0.00  0.00    +0.122 A 
ATOM     26  C   UNL     1      -2.250  -0.347  24.881  0.00  0.00    +0.055 A 
ATOM     27  C   UNL     1      -1.641  -1.549  24.540  0.00  0.00    +0.027 A 
ATOM     30  C   UNL     1      -2.423  -2.674  24.299  0.00  0.00    +0.031 A 
ATOM     31  C   UNL     1      -3.798  -2.544  24.410  0.00  0.00    +0.113 A 
BRANCH  15  24
ATOM      2  O   UNL     1      -7.306   2.684  24.636  0.00  0.00    -0.276 OA
ATOM     10  N   UNL     1      -7.040   4.938  25.017  0.00  0.00    -0.329 N 
ATOM     24  C   UNL     1      -6.709   3.613  25.175  0.00  0.00    +0.214 C 
ATOM     36  H   UNL     1      -7.829   5.208  24.440  0.00  0.00    +0.145 HD
ATOM     37  H   UNL     1      -6.499   5.695  25.421  0.00  0.00    +0.145 HD
ENDBRANCH  15  24
ENDBRANCH  25  27
BRANCH  21  11
ATOM      5  N   UNL     1       3.376   0.618  23.606  0.00  0.00    -0.287 NA
ATOM     11  C   UNL     1       3.011  -0.748  23.181  0.00  0.00    +0.146 C 
ATOM     12  C   UNL     1       4.219  -1.616  23.578  0.00  0.00    +0.030 C 
ATOM     13  C   UNL     1       5.234  -0.642  24.161  0.00  0.00    +0.017 C 
ATOM     14  C   UNL     1       4.836   0.691  23.559  0.00  0.00    +0.085 C 
BRANCH   5  16
ATOM     16  C   UNL     1       2.750   1.657  22.797  0.00  0.00    +0.120 C 
BRANCH  16  22
ATOM     22  C   UNL     1       1.640   2.353  23.539  0.00  0.00    -0.033 A 
ATOM     28  C   UNL     1       1.120   1.791  24.704  0.00  0.00    +0.006 A 
ATOM     29  C   UNL     1       1.132   3.561  23.059  0.00  0.00    +0.006 A 
ATOM     32  C   UNL     1       0.092   2.437  25.391  0.00  0.00    +0.015 A 
ATOM     33  C   UNL     1       0.103   4.206  23.747  0.00  0.00    +0.015 A 
ATOM     34  C   UNL     1      -0.417   3.644  24.912  0.00  0.00    +0.059 A 
BRANCH  34  35
ATOM      4  O   UNL     1      -2.101   3.859  26.599  0.00  0.00    -0.245 OA
ATOM     35  C   UNL     1      -1.488   4.318  25.628  0.00  0.00    +0.337 C 
BRANCH  35   3
ATOM      3  O   UNL     1      -1.764   5.547  25.115  0.00  0.00    -0.477 OA
ATOM     38  H   UNL     1      -2.728   5.732  25.106  0.00  0.00    +0.295 HD
ENDBRANCH  35   3
ENDBRANCH  34  35
ENDBRANCH  16  22
ENDBRANCH   5  16
ENDBRANCH  21  11
TORSDOF 7
ENDMDL
MODEL 4
REMARK VINA RESULT:      12.6      2.147      3.905
REMARK  Name = 45783310
REMARK  7 active torsions:
REMARK  status: ('A' for Active; 'I' for Inactive)
REMARK    1  A    between atoms: O_3  and  C_35
REMARK    2  A    between atoms: N_5  and  C_16
REMARK    3  A    between atoms: C_11  and  C_21
REMARK    4  A    between atoms: C_15  and  C_24
REMARK    5  A    between atoms: C_16  and  C_22
REMARK    6  A    between atoms: C_25  and  C_27
REMARK    7  A    between atoms: C_34  and  C_35
REMARK                            x       y       z     vdW  Elec       q    Type
REMARK                         _______ _______ _______ _____ _____    ______ ____
ROOT
ATOM      1  O   UNL     1      -5.242   0.715  24.386  0.00  0.00    -0.336 OA
ATOM      7  N   UNL     1      -3.421   0.590  25.683  0.00  0.00    -0.190 NA
ATOM      8  N   UNL     1      -4.344  -0.124  23.715  0.00  0.00    -0.056 NA
ATOM     21  C   UNL     1      -4.621   1.092  25.535  0.00  0.00    +0.245 A 
ATOM     25  C   UNL     1      -3.295  -0.148  24.542  0.00  0.00    +0.202 A 
ENDROOT
BRANCH  25  27
ATOM      6  N   UNL     1       1.342  -0.339  23.211  0.00  0.00    -0.315 N 
ATOM      9  N   UNL     1       0.214  -2.361  23.708  0.00  0.00    -0.240 NA
ATOM     15  C   UNL     1       3.769   1.004  22.356  0.00  0.00    +0.078 C 
ATOM     17  C   UNL     1       2.780   1.660  23.317  0.00  0.00    +0.031 C 
ATOM     18  C   UNL     1       3.087  -0.059  21.497  0.00  0.00    +0.031 C 
ATOM     19  C   UNL     1       1.940   0.654  24.107  0.00  0.00    +0.107 C 
ATOM     20  C   UNL     1       2.267  -1.051  22.321  0.00  0.00    +0.107 C 
ATOM     23  C   UNL     1       0.180  -1.013  23.605  0.00  0.00    +0.122 A 
ATOM     26  C   UNL     1      -0.942  -0.244  23.866  0.00  0.00    +0.055 A 
ATOM     27  C   UNL     1      -2.105  -0.899  24.257  0.00  0.00    +0.027 A 
ATOM     30  C   UNL     1      -2.109  -2.285  24.374  0.00  0.00    +0.031 A 
ATOM     31  C   UNL     1      -0.935  -2.963  24.090  0.00  0.00    +0.113 A 
BRANCH  15  24
ATOM      2  O   UNL     1       5.761  -0.308  22.534  0.00  0.00    -0.276 OA
ATOM     10  N   UNL     1       4.985   0.756  24.421  0.00  0.00    -0.329 N 
ATOM     24  C   UNL     1       4.940   0.419  23.089  0.00  0.00    +0.214 C 
ATOM     36  H   UNL     1       5.735   0.417  25.015  0.00  0.00    +0.145 HD
ATOM     37  H   UNL     1       4.264   1.306  24.877  0.00  0.00    +0.145 HD
ENDBRANCH  15  24
ENDBRANCH  25  27
BRANCH  21  11
ATOM      5  N   UNL     1      -6.297   2.923  25.715  0.00  0.00    -0.287 NA
ATOM     11  C   UNL     1      -5.396   2.014  26.451  0.00  0.00    +0.146 C 
ATOM     12  C   UNL     1      -6.318   1.250  27.420  0.00  0.00    +0.030 C 
ATOM     13  C   UNL     1      -7.704   1.840  27.198  0.00  0.00    +0.017 C 
ATOM     14  C   UNL     1      -7.419   3.207  26.608  0.00  0.00    +0.085 C 
BRANCH   5  16
ATOM     16  C   UNL     1      -5.637   4.140  25.259  0.00  0.00    +0.120 C 
BRANCH  16  22
ATOM     22  C   UNL     1      -4.145   3.963  25.151  0.00  0.00    -0.033 A 
ATOM     28  C   UNL     1      -3.334   4.183  26.265  0.00  0.00    +0.006 A 
ATOM     29  C   UNL     1      -3.575   3.578  23.938  0.00  0.00    +0.006 A 
ATOM     32  C   UNL     1      -1.953   4.018  26.165  0.00  0.00    +0.015 A 
ATOM     33  C   UNL     1      -2.193   3.414  23.838  0.00  0.00    +0.015 A 
ATOM     34  C   UNL     1      -1.382   3.634  24.951  0.00  0.00    +0.059 A 
BRANCH  34  35
ATOM      4  O   UNL     1       0.801   3.076  25.756  0.00  0.00    -0.245 OA
ATOM     35  C   UNL     1       0.058   3.462  24.847  0.00  0.00    +0.337 C 
BRANCH  35   3
ATOM      3  O   UNL     1       0.532   3.775  23.611  0.00  0.00    -0.477 OA
ATOM     38  H   UNL     1       1.161   4.526  23.640  0.00  0.00    +0.295 HD
ENDBRANCH  35   3
ENDBRANCH  34  35
ENDBRANCH  16  22
ENDBRANCH   5  16
ENDBRANCH  21  11
TORSDOF 7
ENDMDL
MODEL 5
REMARK VINA RESULT:      13.2      1.913      4.144
REMARK  Name = 45783310
REMARK  7 active torsions:
REMARK  status: ('A' for Active; 'I' for Inactive)
REMARK    1  A    between atoms: O_3  and  C_35
REMARK    2  A    between atoms: N_5  and  C_16
REMARK    3  A    between atoms: C_11  and  C_21
REMARK    4  A    between atoms: C_15  and  C_24
REMARK    5  A    between atoms: C_16  and  C_22
REMARK    6  A    between atoms: C_25  and  C_27
REMARK    7  A    between atoms: C_34  and  C_35
REMARK                            x       y       z     vdW  Elec       q    Type
REMARK                         _______ _______ _______ _____ _____    ______ ____
ROOT
ATOM      1  O   UNL     1      -1.396  -1.729  25.797  0.00  0.00    -0.336 OA
ATOM      7  N   UNL     1      -1.630  -1.189  23.636  0.00  0.00    -0.190 NA
ATOM      8  N   UNL     1      -0.114  -1.401  25.338  0.00  0.00    -0.056 NA
ATOM     21  C   UNL     1      -2.229  -1.578  24.734  0.00  0.00    +0.245 A 
ATOM     25  C   UNL     1      -0.334  -1.094  24.056  0.00  0.00    +0.202 A 
ENDROOT
BRANCH  25  27
ATOM      6  N   UNL     1       4.315  -0.099  23.217  0.00  0.00    -0.315 N 
ATOM      9  N   UNL     1       2.768   0.090  21.434  0.00  0.00    -0.240 NA
ATOM     15  C   UNL     1       7.044   0.157  24.175  0.00  0.00    +0.078 C 
ATOM     17  C   UNL     1       6.080  -0.879  24.750  0.00  0.00    +0.031 C 
ATOM     18  C   UNL     1       6.289   1.332  23.556  0.00  0.00    +0.031 C 
ATOM     19  C   UNL     1       4.969  -1.283  23.779  0.00  0.00    +0.107 C 
ATOM     20  C   UNL     1       5.195   0.891  22.584  0.00  0.00    +0.107 C 
ATOM     23  C   UNL     1       3.005  -0.198  22.734  0.00  0.00    +0.122 A 
ATOM     26  C   UNL     1       2.025  -0.589  23.631  0.00  0.00    +0.055 A 
ATOM     27  C   UNL     1       0.719  -0.691  23.167  0.00  0.00    +0.027 A 
ATOM     30  C   UNL     1       0.436  -0.403  21.836  0.00  0.00    +0.031 A 
ATOM     31  C   UNL     1       1.486  -0.020  21.018  0.00  0.00    +0.113 A 
BRANCH  15  24
ATOM      2  O   UNL     1       7.599  -1.294  22.356  0.00  0.00    -0.276 OA
ATOM     10  N   UNL     1       9.273  -0.011  23.277  0.00  0.00    -0.329 N 
ATOM     24  C   UNL     1       7.977  -0.457  23.173  0.00  0.00    +0.214 C 
ATOM     36  H   UNL     1       9.991  -0.357  22.649  0.00  0.00    +0.145 HD
ATOM     37  H   UNL     1       9.580   0.634  23.997  0.00  0.00    +0.145 HD
ENDBRANCH  15  24
ENDBRANCH  25  27
BRANCH  21  11
ATOM      5  N   UNL     1      -4.578  -0.793  24.496  0.00  0.00    -0.287 NA
ATOM     11  C   UNL     1      -3.693  -1.874  24.975  0.00  0.00    +0.146 C 
ATOM     12  C   UNL     1      -4.175  -3.133  24.229  0.00  0.00    +0.030 C 
ATOM     13  C   UNL     1      -5.369  -2.672  23.404  0.00  0.00    +0.017 C 
ATOM     14  C   UNL     1      -5.843  -1.427  24.126  0.00  0.00    +0.085 C 
BRANCH   5  16
ATOM     16  C   UNL     1      -4.764   0.270  25.475  0.00  0.00    +0.120 C 
BRANCH  16  22
ATOM     22  C   UNL     1      -3.827   1.425  25.235  0.00  0.00    -0.033 A 
ATOM     28  C   UNL     1      -4.285   2.573  24.590  0.00  0.00    +0.006 A 
ATOM     29  C   UNL     1      -2.500   1.345  25.659  0.00  0.00    +0.006 A 
ATOM     32  C   UNL     1      -3.417   3.642  24.368  0.00  0.00    +0.015 A 
ATOM     33  C   UNL     1      -1.632   2.414  25.436  0.00  0.00    +0.015 A 
ATOM     34  C   UNL     1      -2.090   3.562  24.790  0.00  0.00    +0.059 A 
BRANCH  34  35
ATOM      4  O   UNL     1      -1.295   5.803  25.057  0.00  0.00    -0.245 OA
ATOM     35  C   UNL     1      -1.185   4.677  24.561  0.00  0.00    +0.337 C 
BRANCH  35   3
ATOM      3  O   UNL     1      -0.167   4.355  23.717  0.00  0.00    -0.477 OA
ATOM     38  H   UNL     1       0.432   3.683  24.106  0.00  0.00    +0.295 HD
ENDBRANCH  35   3
ENDBRANCH  34  35
ENDBRANCH  16  22
ENDBRANCH   5  16
ENDBRANCH  21  11
TORSDOF 7
ENDMDL
MODEL 6
REMARK VINA RESULT:      14.4      2.277      3.556
REMARK  Name = 45783310
REMARK  7 active torsions:
REMARK  status: ('A' for Active; 'I' for Inactive)
REMARK    1  A    between atoms: O_3  and  C_35
REMARK    2  A    between atoms: N_5  and  C_16
REMARK    3  A    between atoms: C_11  and  C_21
REMARK    4  A    between atoms: C_15  and  C_24
REMARK    5  A    between atoms: C_16  and  C_22
REMARK    6  A    between atoms: C_25  and  C_27
REMARK    7  A    between atoms: C_34  and  C_35
REMARK                            x       y       z     vdW  Elec       q    Type
REMARK                         _______ _______ _______ _____ _____    ______ ____
ROOT
ATOM      1  O   UNL     1      -2.816  -0.400  25.350  0.00  0.00    -0.336 OA
ATOM      7  N   UNL     1      -2.077   1.161  23.925  0.00  0.00    -0.190 NA
ATOM      8  N   UNL     1      -1.731  -0.973  24.674  0.00  0.00    -0.056 NA
ATOM     21  C   UNL     1      -2.953   0.856  24.849  0.00  0.00    +0.245 A 
ATOM     25  C   UNL     1      -1.350   0.009  23.852  0.00  0.00    +0.202 A 
ENDROOT
BRANCH  25  27
ATOM      6  N   UNL     1       3.398  -0.059  22.975  0.00  0.00    -0.315 N 
ATOM      9  N   UNL     1       1.900  -0.406  21.173  0.00  0.00    -0.240 NA
ATOM     15  C   UNL     1       6.132   0.194  23.917  0.00  0.00    +0.078 C 
ATOM     17  C   UNL     1       5.025  -0.378  24.799  0.00  0.00    +0.031 C 
ATOM     18  C   UNL     1       5.562   1.105  22.832  0.00  0.00    +0.031 C 
ATOM     19  C   UNL     1       3.868  -0.989  24.005  0.00  0.00    +0.107 C 
ATOM     20  C   UNL     1       4.416   0.459  22.053  0.00  0.00    +0.107 C 
ATOM     23  C   UNL     1       2.088  -0.169  22.491  0.00  0.00    +0.122 A 
ATOM     26  C   UNL     1       1.059  -0.026  23.408  0.00  0.00    +0.055 A 
ATOM     27  C   UNL     1      -0.247  -0.130  22.943  0.00  0.00    +0.027 A 
ATOM     30  C   UNL     1      -0.481  -0.373  21.594  0.00  0.00    +0.031 A 
ATOM     31  C   UNL     1       0.617  -0.502  20.758  0.00  0.00    +0.113 A 
BRANCH  15  24
ATOM      2  O   UNL     1       6.555  -2.047  23.196  0.00  0.00    -0.276 OA
ATOM     10  N   UNL     1       8.216  -0.480  22.912  0.00  0.00    -0.329 N 
ATOM     24  C   UNL     1       6.966  -0.894  23.307  0.00  0.00    +0.214 C 
ATOM     36  H   UNL     1       8.865  -1.131  22.485  0.00  0.00    +0.145 HD
ATOM     37  H   UNL     1       8.561   0.462  23.068  0.00  0.00    +0.145 HD
ENDBRANCH  15  24
ENDBRANCH  25  27
BRANCH  21  11
ATOM      5  N   UNL     1      -4.412   2.852  24.574  0.00  0.00    -0.287 NA
ATOM     11  C   UNL     1      -4.071   1.695  25.426  0.00  0.00    +0.146 C 
ATOM     12  C   UNL     1      -5.390   0.912  25.567  0.00  0.00    +0.030 C 
ATOM     13  C   UNL     1      -6.425   1.736  24.812  0.00  0.00    +0.017 C 
ATOM     14  C   UNL     1      -5.830   3.131  24.800  0.00  0.00    +0.085 C 
BRANCH   5  16
ATOM     16  C   UNL     1      -3.577   4.019  24.830  0.00  0.00    +0.120 C 
BRANCH  16  22
ATOM     22  C   UNL     1      -2.354   3.668  25.635  0.00  0.00    -0.033 A 
ATOM     28  C   UNL     1      -1.101   3.643  25.024  0.00  0.00    +0.006 A 
ATOM     29  C   UNL     1      -2.476   3.369  26.992  0.00  0.00    +0.006 A 
ATOM     32  C   UNL     1       0.032   3.319  25.771  0.00  0.00    +0.015 A 
ATOM     33  C   UNL     1      -1.342   3.044  27.738  0.00  0.00    +0.015 A 
ATOM     34  C   UNL     1      -0.089   3.019  27.127  0.00  0.00    +0.059 A 
BRANCH  34  35
ATOM      4  O   UNL     1       2.262   2.860  27.548  0.00  0.00    -0.245 OA
ATOM     35  C   UNL     1       1.092   2.682  27.906  0.00  0.00    +0.337 C 
BRANCH  35   3
ATOM      3  O   UNL     1       0.782   2.132  29.111  0.00  0.00    -0.477 OA
ATOM     38  H   UNL     1      -0.161   1.867  29.161  0.00  0.00    +0.295 HD
ENDBRANCH  35   3
ENDBRANCH  34  35
ENDBRANCH  16  22
ENDBRANCH   5  16
ENDBRANCH  21  11
TORSDOF 7
ENDMDL
