MODEL 1
REMARK VINA RESULT:      -5.1      0.000      0.000
REMARK  Name = 75536171
REMARK  13 active torsions:
REMARK  status: ('A' for Active; 'I' for Inactive)
REMARK    1  A    between atoms: O_2  and  C_30
REMARK    2  A    between atoms: N_4  and  C_14
REMARK    3  A    between atoms: C_7  and  C_11
REMARK    4  A    between atoms: C_8  and  C_14
REMARK    5  A    between atoms: C_10  and  C_15
REMARK    6  A    between atoms: C_11  and  C_16
REMARK    7  A    between atoms: C_11  and  C_17
REMARK    8  A    between atoms: C_12  and  C_18
REMARK    9  A    between atoms: C_15  and  C_19
REMARK   10  A    between atoms: C_20  and  C_23
REMARK   11  A    between atoms: C_23  and  C_26
REMARK   12  A    between atoms: C_24  and  C_29
REMARK   13  A    between atoms: C_26  and  C_30
REMARK                            x       y       z     vdW  Elec       q    Type
REMARK                         _______ _______ _______ _____ _____    ______ ____
ROOT
ATOM      7  C   UNL     1      -2.427   2.317  23.699  0.00  0.00    +0.000 C 
ATOM      8  C   UNL     1      -1.270   2.906  24.544  0.00  0.00    +0.032 C 
ATOM      9  C   UNL     1      -3.597   3.310  23.625  0.00  0.00    +0.012 C 
ATOM     10  C   UNL     1      -4.145   3.668  25.020  0.00  0.00    +0.022 C 
ATOM     12  C   UNL     1      -3.033   4.004  25.992  0.00  0.00    -0.073 C 
ATOM     13  C   UNL     1      -1.752   3.667  25.757  0.00  0.00    -0.022 C 
ATOM     18  C   UNL     1      -3.420   4.777  27.222  0.00  0.00    +0.039 C 
ENDROOT
BRANCH   7  11
ATOM     11  C   UNL     1      -1.967   1.951  22.284  0.00  0.00    -0.013 C 
ATOM     16  C   UNL     1      -1.945   0.436  22.107  0.00  0.00    +0.007 C 
ATOM     17  C   UNL     1      -2.873   2.604  21.245  0.00  0.00    +0.007 C 
ENDBRANCH   7  11
BRANCH   8  14
ATOM     14  C   UNL     1      -0.293   1.810  24.984  0.00  0.00    +0.112 C 
BRANCH  14   4
ATOM      1  O   UNL     1       0.978  -0.221  23.362  0.00  0.00    -0.276 OA
ATOM      4  N   UNL     1       0.943   1.918  24.274  0.00  0.00    -0.315 N 
ATOM     20  C   UNL     1       1.489   0.886  23.510  0.00  0.00    +0.214 C 
ATOM     31  H   UNL     1       1.422   2.815  24.282  0.00  0.00    +0.149 HD
BRANCH  20  23
ATOM     23  C   UNL     1       2.808   1.283  22.871  0.00  0.00    +0.107 C 
BRANCH  23  26
ATOM     26  C   UNL     1       3.708   0.083  22.596  0.00  0.00    +0.129 C 
BRANCH  26  30
ATOM      3  O   UNL     1       5.476   0.779  24.117  0.00  0.00    -0.251 OA
ATOM     30  C   UNL     1       4.749  -0.101  23.674  0.00  0.00    +0.305 C 
BRANCH  30   2
ATOM      2  O   UNL     1       4.792  -1.388  24.111  0.00  0.00    -0.481 OA
ATOM     33  H   UNL     1       4.180  -1.965  23.605  0.00  0.00    +0.295 HD
ENDBRANCH  30   2
ENDBRANCH  26  30
ENDBRANCH  23  26
ENDBRANCH  20  23
ENDBRANCH  14   4
ENDBRANCH   8  14
BRANCH  10  15
ATOM     15  C   UNL     1      -5.035   2.547  25.569  0.00  0.00    +0.082 C 
BRANCH  15  19
ATOM      5  N   UNL     1      -5.125   0.292  24.490  0.00  0.00    -0.342 N 
ATOM      6  N   UNL     1      -3.306   0.719  25.694  0.00  0.00    -0.232 NA
ATOM     19  C   UNL     1      -4.457   1.193  25.272  0.00  0.00    +0.109 A 
ATOM     21  C   UNL     1      -4.354  -0.839  24.402  0.00  0.00    +0.066 A 
ATOM     22  C   UNL     1      -3.224  -0.547  25.162  0.00  0.00    +0.092 A 
ATOM     24  C   UNL     1      -2.211  -1.515  25.283  0.00  0.00    -0.023 A 
ATOM     25  C   UNL     1      -4.542  -2.055  23.743  0.00  0.00    +0.028 A 
ATOM     27  C   UNL     1      -2.379  -2.742  24.630  0.00  0.00    +0.005 A 
ATOM     28  C   UNL     1      -3.524  -3.005  23.874  0.00  0.00    +0.002 A 
ATOM     29  C   UNL     1      -0.970  -1.281  26.079  0.00  0.00    +0.046 C 
ATOM     32  H   UNL     1      -6.026   0.432  24.053  0.00  0.00    +0.167 HD
ENDBRANCH  15  19
ENDBRANCH  10  15
TORSDOF 9
ENDMDL
MODEL 2
REMARK VINA RESULT:      -4.6      1.691      4.576
REMARK  Name = 75536171
REMARK  13 active torsions:
REMARK  status: ('A' for Active; 'I' for Inactive)
REMARK    1  A    between atoms: O_2  and  C_30
REMARK    2  A    between atoms: N_4  and  C_14
REMARK    3  A    between atoms: C_7  and  C_11
REMARK    4  A    between atoms: C_8  and  C_14
REMARK    5  A    between atoms: C_10  and  C_15
REMARK    6  A    between atoms: C_11  and  C_16
REMARK    7  A    between atoms: C_11  and  C_17
REMARK    8  A    between atoms: C_12  and  C_18
REMARK    9  A    between atoms: C_15  and  C_19
REMARK   10  A    between atoms: C_20  and  C_23
REMARK   11  A    between atoms: C_23  and  C_26
REMARK   12  A    between atoms: C_24  and  C_29
REMARK   13  A    between atoms: C_26  and  C_30
REMARK                            x       y       z     vdW  Elec       q    Type
REMARK                         _______ _______ _______ _____ _____    ______ ____
ROOT
ATOM      7  C   UNL     1      -1.097   0.239  24.753  0.00  0.00    +0.000 C 
ATOM      8  C   UNL     1      -0.271  -1.005  24.343  0.00  0.00    +0.032 C 
ATOM      9  C   UNL     1      -2.153  -0.140  25.803  0.00  0.00    +0.012 C 
ATOM     10  C   UNL     1      -3.122  -1.221  25.288  0.00  0.00    +0.022 C 
ATOM     12  C   UNL     1      -2.387  -2.367  24.625  0.00  0.00    -0.073 C 
ATOM     13  C   UNL     1      -1.108  -2.257  24.220  0.00  0.00    -0.022 C 
ATOM     18  C   UNL     1      -3.140  -3.660  24.477  0.00  0.00    +0.039 C 
ENDROOT
BRANCH   7  11
ATOM     11  C   UNL     1      -0.205   1.360  25.296  0.00  0.00    -0.013 C 
ATOM     16  C   UNL     1       0.006   2.434  24.233  0.00  0.00    +0.007 C 
ATOM     17  C   UNL     1      -0.814   1.960  26.559  0.00  0.00    +0.007 C 
ENDBRANCH   7  11
BRANCH   8  14
ATOM     14  C   UNL     1       0.480  -0.763  23.028  0.00  0.00    +0.112 C 
BRANCH  14   4
ATOM      1  O   UNL     1       2.548  -0.138  21.104  0.00  0.00    -0.276 OA
ATOM      4  N   UNL     1       1.682  -0.025  23.260  0.00  0.00    -0.315 N 
ATOM     20  C   UNL     1       2.633   0.234  22.271  0.00  0.00    +0.214 C 
ATOM     31  H   UNL     1       1.824   0.379  24.181  0.00  0.00    +0.149 HD
BRANCH  20  23
ATOM     23  C   UNL     1       3.806   1.037  22.803  0.00  0.00    +0.107 C 
BRANCH  23  26
ATOM     26  C   UNL     1       5.075   0.201  22.932  0.00  0.00    +0.129 C 
BRANCH  26  30
ATOM      3  O   UNL     1       4.237  -1.891  23.853  0.00  0.00    -0.251 OA
ATOM     30  C   UNL     1       4.931  -0.889  23.967  0.00  0.00    +0.305 C 
BRANCH  30   2
ATOM      2  O   UNL     1       5.678  -0.627  25.072  0.00  0.00    -0.481 OA
ATOM     33  H   UNL     1       6.499  -1.164  25.094  0.00  0.00    +0.295 HD
ENDBRANCH  30   2
ENDBRANCH  26  30
ENDBRANCH  23  26
ENDBRANCH  20  23
ENDBRANCH  14   4
ENDBRANCH   8  14
BRANCH  10  15
ATOM     15  C   UNL     1      -4.170  -0.622  24.344  0.00  0.00    +0.082 C 
BRANCH  15  19
ATOM      5  N   UNL     1      -5.616   1.288  25.067  0.00  0.00    -0.342 N 
ATOM      6  N   UNL     1      -3.526   1.807  24.522  0.00  0.00    -0.232 NA
ATOM     19  C   UNL     1      -4.401   0.834  24.635  0.00  0.00    +0.109 A 
ATOM     21  C   UNL     1      -5.519   2.643  25.245  0.00  0.00    +0.066 A 
ATOM     22  C   UNL     1      -4.204   2.944  24.898  0.00  0.00    +0.092 A 
ATOM     24  C   UNL     1      -3.764   4.277  24.970  0.00  0.00    -0.023 A 
ATOM     25  C   UNL     1      -6.439   3.604  25.666  0.00  0.00    +0.028 A 
ATOM     27  C   UNL     1      -4.671   5.257  25.390  0.00  0.00    +0.005 A 
ATOM     28  C   UNL     1      -5.983   4.925  25.732  0.00  0.00    +0.002 A 
ATOM     29  C   UNL     1      -2.371   4.682  24.615  0.00  0.00    +0.046 C 
ATOM     32  H   UNL     1      -6.441   0.725  25.229  0.00  0.00    +0.167 HD
ENDBRANCH  15  19
ENDBRANCH  10  15
TORSDOF 9
ENDMDL
MODEL 3
REMARK VINA RESULT:      -3.7      1.444      4.370
REMARK  Name = 75536171
REMARK  13 active torsions:
REMARK  status: ('A' for Active; 'I' for Inactive)
REMARK    1  A    between atoms: O_2  and  C_30
REMARK    2  A    between atoms: N_4  and  C_14
REMARK    3  A    between atoms: C_7  and  C_11
REMARK    4  A    between atoms: C_8  and  C_14
REMARK    5  A    between atoms: C_10  and  C_15
REMARK    6  A    between atoms: C_11  and  C_16
REMARK    7  A    between atoms: C_11  and  C_17
REMARK    8  A    between atoms: C_12  and  C_18
REMARK    9  A    between atoms: C_15  and  C_19
REMARK   10  A    between atoms: C_20  and  C_23
REMARK   11  A    between atoms: C_23  and  C_26
REMARK   12  A    between atoms: C_24  and  C_29
REMARK   13  A    between atoms: C_26  and  C_30
REMARK                            x       y       z     vdW  Elec       q    Type
REMARK                         _______ _______ _______ _____ _____    ______ ____
ROOT
ATOM      7  C   UNL     1      -1.347   0.853  25.518  0.00  0.00    +0.000 C 
ATOM      8  C   UNL     1      -0.113   0.336  24.738  0.00  0.00    +0.032 C 
ATOM      9  C   UNL     1      -1.934  -0.264  26.394  0.00  0.00    +0.012 C 
ATOM     10  C   UNL     1      -2.360  -1.491  25.564  0.00  0.00    +0.022 C 
ATOM     12  C   UNL     1      -1.290  -1.900  24.574  0.00  0.00    -0.073 C 
ATOM     13  C   UNL     1      -0.285  -1.075  24.226  0.00  0.00    -0.022 C 
ATOM     18  C   UNL     1      -1.373  -3.297  24.026  0.00  0.00    +0.039 C 
ENDROOT
BRANCH   7  11
ATOM     11  C   UNL     1      -1.002   2.066  26.387  0.00  0.00    -0.013 C 
ATOM     16  C   UNL     1       0.485   2.068  26.731  0.00  0.00    +0.007 C 
ATOM     17  C   UNL     1      -1.395   3.358  25.678  0.00  0.00    +0.007 C 
ENDBRANCH   7  11
BRANCH   8  14
ATOM     14  C   UNL     1       0.231   1.264  23.567  0.00  0.00    +0.112 C 
BRANCH  14   4
ATOM      1  O   UNL     1       2.178  -0.226  22.031  0.00  0.00    -0.276 OA
ATOM      4  N   UNL     1       1.640   1.495  23.500  0.00  0.00    -0.315 N 
ATOM     20  C   UNL     1       2.514   0.726  22.730  0.00  0.00    +0.214 C 
ATOM     31  H   UNL     1       2.017   2.297  23.997  0.00  0.00    +0.149 HD
BRANCH  20  23
ATOM     23  C   UNL     1       3.952   1.198  22.853  0.00  0.00    +0.107 C 
BRANCH  23  26
ATOM     26  C   UNL     1       4.954   0.054  22.746  0.00  0.00    +0.129 C 
BRANCH  26  30
ATOM      3  O   UNL     1       5.749  -0.481  24.984  0.00  0.00    -0.251 OA
ATOM     30  C   UNL     1       5.036  -0.746  24.025  0.00  0.00    +0.305 C 
BRANCH  30   2
ATOM      2  O   UNL     1       4.208  -1.823  23.991  0.00  0.00    -0.481 OA
ATOM     33  H   UNL     1       3.340  -1.604  23.591  0.00  0.00    +0.295 HD
ENDBRANCH  30   2
ENDBRANCH  26  30
ENDBRANCH  23  26
ENDBRANCH  20  23
ENDBRANCH  14   4
ENDBRANCH   8  14
BRANCH  10  15
ATOM     15  C   UNL     1      -3.697  -1.242  24.856  0.00  0.00    +0.082 C 
BRANCH  15  19
ATOM      5  N   UNL     1      -3.357   0.795  23.444  0.00  0.00    -0.342 N 
ATOM      6  N   UNL     1      -4.574   1.081  25.282  0.00  0.00    -0.232 NA
ATOM     19  C   UNL     1      -3.897   0.216  24.559  0.00  0.00    +0.109 A 
ATOM     21  C   UNL     1      -3.709   2.120  23.447  0.00  0.00    +0.066 A 
ATOM     22  C   UNL     1      -4.469   2.273  24.604  0.00  0.00    +0.092 A 
ATOM     24  C   UNL     1      -4.996   3.539  24.915  0.00  0.00    -0.023 A 
ATOM     25  C   UNL     1      -3.437   3.166  22.564  0.00  0.00    +0.028 A 
ATOM     27  C   UNL     1      -4.735   4.602  24.043  0.00  0.00    +0.005 A 
ATOM     28  C   UNL     1      -3.970   4.418  22.889  0.00  0.00    +0.002 A 
ATOM     29  C   UNL     1      -5.819   3.787  26.136  0.00  0.00    +0.046 C 
ATOM     32  H   UNL     1      -2.799   0.330  22.741  0.00  0.00    +0.167 HD
ENDBRANCH  15  19
ENDBRANCH  10  15
TORSDOF 9
ENDMDL
MODEL 4
REMARK VINA RESULT:      -3.1      1.468      4.755
REMARK  Name = 75536171
REMARK  13 active torsions:
REMARK  status: ('A' for Active; 'I' for Inactive)
REMARK    1  A    between atoms: O_2  and  C_30
REMARK    2  A    between atoms: N_4  and  C_14
REMARK    3  A    between atoms: C_7  and  C_11
REMARK    4  A    between atoms: C_8  and  C_14
REMARK    5  A    between atoms: C_10  and  C_15
REMARK    6  A    between atoms: C_11  and  C_16
REMARK    7  A    between atoms: C_11  and  C_17
REMARK    8  A    between atoms: C_12  and  C_18
REMARK    9  A    between atoms: C_15  and  C_19
REMARK   10  A    between atoms: C_20  and  C_23
REMARK   11  A    between atoms: C_23  and  C_26
REMARK   12  A    between atoms: C_24  and  C_29
REMARK   13  A    between atoms: C_26  and  C_30
REMARK                            x       y       z     vdW  Elec       q    Type
REMARK                         _______ _______ _______ _____ _____    ______ ____
ROOT
ATOM      7  C   UNL     1      -1.653  -0.586  25.163  0.00  0.00    +0.000 C 
ATOM      8  C   UNL     1      -1.330  -1.996  24.609  0.00  0.00    +0.032 C 
ATOM      9  C   UNL     1      -3.022  -0.584  25.861  0.00  0.00    +0.012 C 
ATOM     10  C   UNL     1      -4.159  -1.007  24.911  0.00  0.00    +0.022 C 
ATOM     12  C   UNL     1      -3.803  -2.252  24.125  0.00  0.00    -0.073 C 
ATOM     13  C   UNL     1      -2.534  -2.687  24.012  0.00  0.00    -0.022 C 
ATOM     18  C   UNL     1      -4.943  -3.014  23.509  0.00  0.00    +0.039 C 
ENDROOT
BRANCH   7  11
ATOM     11  C   UNL     1      -0.575  -0.097  26.135  0.00  0.00    -0.013 C 
ATOM     16  C   UNL     1      -0.571   1.427  26.202  0.00  0.00    +0.007 C 
ATOM     17  C   UNL     1      -0.794  -0.699  27.520  0.00  0.00    +0.007 C 
ENDBRANCH   7  11
BRANCH   8  14
ATOM     14  C   UNL     1      -0.207  -1.938  23.568  0.00  0.00    +0.112 C 
BRANCH  14   4
ATOM      1  O   UNL     1       1.320  -0.473  21.595  0.00  0.00    -0.276 OA
ATOM      4  N   UNL     1       0.635  -0.805  23.793  0.00  0.00    -0.315 N 
ATOM     20  C   UNL     1       1.340  -0.153  22.780  0.00  0.00    +0.214 C 
ATOM     31  H   UNL     1       0.677  -0.421  24.733  0.00  0.00    +0.149 HD
BRANCH  20  23
ATOM     23  C   UNL     1       2.151   1.016  23.310  0.00  0.00    +0.107 C 
BRANCH  23  26
ATOM     26  C   UNL     1       3.558   1.064  22.723  0.00  0.00    +0.129 C 
BRANCH  26  30
ATOM      3  O   UNL     1       5.624   0.397  23.824  0.00  0.00    -0.251 OA
ATOM     30  C   UNL     1       4.499   0.118  23.432  0.00  0.00    +0.305 C 
BRANCH  30   2
ATOM      2  O   UNL     1       3.941  -1.111  23.590  0.00  0.00    -0.481 OA
ATOM     33  H   UNL     1       4.095  -1.469  24.490  0.00  0.00    +0.295 HD
ENDBRANCH  30   2
ENDBRANCH  26  30
ENDBRANCH  23  26
ENDBRANCH  20  23
ENDBRANCH  14   4
ENDBRANCH   8  14
BRANCH  10  15
ATOM     15  C   UNL     1      -4.553   0.139  23.974  0.00  0.00    +0.082 C 
BRANCH  15  19
ATOM      5  N   UNL     1      -2.597   1.614  23.468  0.00  0.00    -0.342 N 
ATOM      6  N   UNL     1      -3.917   2.290  25.122  0.00  0.00    -0.232 NA
ATOM     19  C   UNL     1      -3.712   1.360  24.217  0.00  0.00    +0.109 A 
ATOM     21  C   UNL     1      -2.047   2.786  23.920  0.00  0.00    +0.066 A 
ATOM     22  C   UNL     1      -2.890   3.188  24.953  0.00  0.00    +0.092 A 
ATOM     24  C   UNL     1      -2.605   4.377  25.646  0.00  0.00    -0.023 A 
ATOM     25  C   UNL     1      -0.919   3.507  23.526  0.00  0.00    +0.028 A 
ATOM     27  C   UNL     1      -1.478   5.117  25.268  0.00  0.00    +0.005 A 
ATOM     28  C   UNL     1      -0.652   4.689  24.227  0.00  0.00    +0.002 A 
ATOM     29  C   UNL     1      -3.458   4.877  26.765  0.00  0.00    +0.046 C 
ATOM     32  H   UNL     1      -2.240   1.043  22.714  0.00  0.00    +0.167 HD
ENDBRANCH  15  19
ENDBRANCH  10  15
TORSDOF 9
ENDMDL
MODEL 5
REMARK VINA RESULT:      -2.8      1.418      2.428
REMARK  Name = 75536171
REMARK  13 active torsions:
REMARK  status: ('A' for Active; 'I' for Inactive)
REMARK    1  A    between atoms: O_2  and  C_30
REMARK    2  A    between atoms: N_4  and  C_14
REMARK    3  A    between atoms: C_7  and  C_11
REMARK    4  A    between atoms: C_8  and  C_14
REMARK    5  A    between atoms: C_10  and  C_15
REMARK    6  A    between atoms: C_11  and  C_16
REMARK    7  A    between atoms: C_11  and  C_17
REMARK    8  A    between atoms: C_12  and  C_18
REMARK    9  A    between atoms: C_15  and  C_19
REMARK   10  A    between atoms: C_20  and  C_23
REMARK   11  A    between atoms: C_23  and  C_26
REMARK   12  A    between atoms: C_24  and  C_29
REMARK   13  A    between atoms: C_26  and  C_30
REMARK                            x       y       z     vdW  Elec       q    Type
REMARK                         _______ _______ _______ _____ _____    ______ ____
ROOT
ATOM      7  C   UNL     1      -3.202   2.445  23.853  0.00  0.00    +0.000 C 
ATOM      8  C   UNL     1      -2.924   3.925  24.216  0.00  0.00    +0.032 C 
ATOM      9  C   UNL     1      -4.688   2.246  23.514  0.00  0.00    +0.012 C 
ATOM     10  C   UNL     1      -5.609   2.644  24.684  0.00  0.00    +0.022 C 
ATOM     12  C   UNL     1      -5.224   3.985  25.273  0.00  0.00    -0.073 C 
ATOM     13  C   UNL     1      -4.024   4.548  25.043  0.00  0.00    -0.022 C 
ATOM     18  C   UNL     1      -6.267   4.686  26.098  0.00  0.00    +0.039 C 
ENDROOT
BRANCH   7  11
ATOM     11  C   UNL     1      -2.336   1.975  22.681  0.00  0.00    -0.013 C 
ATOM     16  C   UNL     1      -2.518   0.477  22.453  0.00  0.00    +0.007 C 
ATOM     17  C   UNL     1      -2.676   2.760  21.419  0.00  0.00    +0.007 C 
ENDBRANCH   7  11
BRANCH   8  14
ATOM     14  C   UNL     1      -1.587   4.073  24.951  0.00  0.00    +0.112 C 
BRANCH  14   4
ATOM      1  O   UNL     1       0.094   1.961  25.993  0.00  0.00    -0.276 OA
ATOM      4  N   UNL     1      -0.548   3.374  24.261  0.00  0.00    -0.315 N 
ATOM     20  C   UNL     1       0.219   2.362  24.839  0.00  0.00    +0.214 C 
ATOM     31  H   UNL     1      -0.400   3.589  23.278  0.00  0.00    +0.149 HD
BRANCH  20  23
ATOM     23  C   UNL     1       1.247   1.801  23.872  0.00  0.00    +0.107 C 
BRANCH  23  26
ATOM     26  C   UNL     1       0.889   0.401  23.386  0.00  0.00    +0.129 C 
BRANCH  26  30
ATOM      3  O   UNL     1       1.800  -0.358  21.261  0.00  0.00    -0.251 OA
ATOM     30  C   UNL     1       1.941  -0.162  22.460  0.00  0.00    +0.305 C 
BRANCH  30   2
ATOM      2  O   UNL     1       3.094  -0.435  23.126  0.00  0.00    -0.481 OA
ATOM     33  H   UNL     1       3.869  -0.449  22.525  0.00  0.00    +0.295 HD
ENDBRANCH  30   2
ENDBRANCH  26  30
ENDBRANCH  23  26
ENDBRANCH  20  23
ENDBRANCH  14   4
ENDBRANCH   8  14
BRANCH  10  15
ATOM     15  C   UNL     1      -5.634   1.556  25.763  0.00  0.00    +0.082 C 
BRANCH  15  19
ATOM      5  N   UNL     1      -3.329   0.602  25.940  0.00  0.00    -0.342 N 
ATOM      6  N   UNL     1      -4.803  -0.628  24.823  0.00  0.00    -0.232 NA
ATOM     19  C   UNL     1      -4.614   0.488  25.489  0.00  0.00    +0.109 A 
ATOM     21  C   UNL     1      -2.643  -0.516  25.539  0.00  0.00    +0.066 A 
ATOM     22  C   UNL     1      -3.586  -1.268  24.843  0.00  0.00    +0.092 A 
ATOM     24  C   UNL     1      -3.203  -2.501  24.286  0.00  0.00    -0.023 A 
ATOM     25  C   UNL     1      -1.320  -0.921  25.718  0.00  0.00    +0.028 A 
ATOM     27  C   UNL     1      -1.880  -2.927  24.454  0.00  0.00    +0.005 A 
ATOM     28  C   UNL     1      -0.957  -2.150  25.158  0.00  0.00    +0.002 A 
ATOM     29  C   UNL     1      -4.153  -3.366  23.525  0.00  0.00    +0.046 C 
ATOM     32  H   UNL     1      -2.949   1.371  26.476  0.00  0.00    +0.167 HD
ENDBRANCH  15  19
ENDBRANCH  10  15
TORSDOF 9
ENDMDL
MODEL 6
REMARK VINA RESULT:      -2.4      2.967      6.894
REMARK  Name = 75536171
REMARK  13 active torsions:
REMARK  status: ('A' for Active; 'I' for Inactive)
REMARK    1  A    between atoms: O_2  and  C_30
REMARK    2  A    between atoms: N_4  and  C_14
REMARK    3  A    between atoms: C_7  and  C_11
REMARK    4  A    between atoms: C_8  and  C_14
REMARK    5  A    between atoms: C_10  and  C_15
REMARK    6  A    between atoms: C_11  and  C_16
REMARK    7  A    between atoms: C_11  and  C_17
REMARK    8  A    between atoms: C_12  and  C_18
REMARK    9  A    between atoms: C_15  and  C_19
REMARK   10  A    between atoms: C_20  and  C_23
REMARK   11  A    between atoms: C_23  and  C_26
REMARK   12  A    between atoms: C_24  and  C_29
REMARK   13  A    between atoms: C_26  and  C_30
REMARK                            x       y       z     vdW  Elec       q    Type
REMARK                         _______ _______ _______ _____ _____    ______ ____
ROOT
ATOM      7  C   UNL     1      -3.121  -1.203  24.440  0.00  0.00    +0.000 C 
ATOM      8  C   UNL     1      -3.693  -0.022  25.263  0.00  0.00    +0.032 C 
ATOM      9  C   UNL     1      -1.724  -1.586  24.951  0.00  0.00    +0.012 C 
ATOM     10  C   UNL     1      -0.732  -0.409  24.869  0.00  0.00    +0.022 C 
ATOM     12  C   UNL     1      -1.328   0.869  25.423  0.00  0.00    -0.073 C 
ATOM     13  C   UNL     1      -2.653   1.019  25.605  0.00  0.00    -0.022 C 
ATOM     18  C   UNL     1      -0.363   1.955  25.808  0.00  0.00    +0.039 C 
ENDROOT
BRANCH   7  11
ATOM     11  C   UNL     1      -4.043  -2.426  24.485  0.00  0.00    -0.013 C 
ATOM     16  C   UNL     1      -4.665  -2.674  23.115  0.00  0.00    +0.007 C 
ATOM     17  C   UNL     1      -3.274  -3.654  24.961  0.00  0.00    +0.007 C 
ENDBRANCH   7  11
BRANCH   8  14
ATOM     14  C   UNL     1      -4.863   0.647  24.532  0.00  0.00    +0.112 C 
BRANCH  14   4
ATOM      1  O   UNL     1      -6.012   2.516  26.418  0.00  0.00    -0.276 OA
ATOM      4  N   UNL     1      -4.718   2.069  24.538  0.00  0.00    -0.315 N 
ATOM     20  C   UNL     1      -5.308   2.902  25.489  0.00  0.00    +0.214 C 
ATOM     31  H   UNL     1      -4.106   2.489  23.844  0.00  0.00    +0.149 HD
BRANCH  20  23
ATOM     23  C   UNL     1      -4.984   4.366  25.247  0.00  0.00    +0.107 C 
BRANCH  23  26
ATOM     26  C   UNL     1      -3.660   4.558  24.516  0.00  0.00    +0.129 C 
BRANCH  26  30
ATOM      3  O   UNL     1      -1.418   5.220  25.194  0.00  0.00    -0.251 OA
ATOM     30  C   UNL     1      -2.506   4.736  25.474  0.00  0.00    +0.305 C 
BRANCH  30   2
ATOM      2  O   UNL     1      -2.820   4.286  26.718  0.00  0.00    -0.481 OA
ATOM     33  H   UNL     1      -2.304   3.486  26.958  0.00  0.00    +0.295 HD
ENDBRANCH  30   2
ENDBRANCH  26  30
ENDBRANCH  23  26
ENDBRANCH  20  23
ENDBRANCH  14   4
ENDBRANCH   8  14
BRANCH  10  15
ATOM     15  C   UNL     1      -0.232  -0.205  23.435  0.00  0.00    +0.082 C 
BRANCH  15  19
ATOM      5  N   UNL     1       1.910   1.014  23.007  0.00  0.00    -0.342 N 
ATOM      6  N   UNL     1       2.112  -1.098  23.668  0.00  0.00    -0.232 NA
ATOM     19  C   UNL     1       1.267  -0.133  23.382  0.00  0.00    +0.109 A 
ATOM     21  C   UNL     1       3.259   0.773  23.056  0.00  0.00    +0.066 A 
ATOM     22  C   UNL     1       3.359  -0.552  23.471  0.00  0.00    +0.092 A 
ATOM     24  C   UNL     1       4.632  -1.128  23.626  0.00  0.00    -0.023 A 
ATOM     25  C   UNL     1       4.367   1.575  22.780  0.00  0.00    +0.028 A 
ATOM     27  C   UNL     1       5.757  -0.341  23.355  0.00  0.00    +0.005 A 
ATOM     28  C   UNL     1       5.626   0.986  22.940  0.00  0.00    +0.002 A 
ATOM     29  C   UNL     1       4.825  -2.542  24.067  0.00  0.00    +0.046 C 
ATOM     32  H   UNL     1       1.471   1.885  22.742  0.00  0.00    +0.167 HD
ENDBRANCH  15  19
ENDBRANCH  10  15
TORSDOF 9
ENDMDL
MODEL 7
REMARK VINA RESULT:      -1.8      2.724      3.269
REMARK  Name = 75536171
REMARK  13 active torsions:
REMARK  status: ('A' for Active; 'I' for Inactive)
REMARK    1  A    between atoms: O_2  and  C_30
REMARK    2  A    between atoms: N_4  and  C_14
REMARK    3  A    between atoms: C_7  and  C_11
REMARK    4  A    between atoms: C_8  and  C_14
REMARK    5  A    between atoms: C_10  and  C_15
REMARK    6  A    between atoms: C_11  and  C_16
REMARK    7  A    between atoms: C_11  and  C_17
REMARK    8  A    between atoms: C_12  and  C_18
REMARK    9  A    between atoms: C_15  and  C_19
REMARK   10  A    between atoms: C_20  and  C_23
REMARK   11  A    between atoms: C_23  and  C_26
REMARK   12  A    between atoms: C_24  and  C_29
REMARK   13  A    between atoms: C_26  and  C_30
REMARK                            x       y       z     vdW  Elec       q    Type
REMARK                         _______ _______ _______ _____ _____    ______ ____
ROOT
ATOM      7  C   UNL     1      -2.734   2.940  23.772  0.00  0.00    +0.000 C 
ATOM      8  C   UNL     1      -2.773   4.474  23.981  0.00  0.00    +0.032 C 
ATOM      9  C   UNL     1      -4.138   2.407  23.444  0.00  0.00    +0.012 C 
ATOM     10  C   UNL     1      -5.155   2.722  24.558  0.00  0.00    +0.022 C 
ATOM     12  C   UNL     1      -5.068   4.166  25.008  0.00  0.00    -0.073 C 
ATOM     13  C   UNL     1      -4.001   4.938  24.729  0.00  0.00    -0.022 C 
ATOM     18  C   UNL     1      -6.255   4.718  25.746  0.00  0.00    +0.039 C 
ENDROOT
BRANCH   7  11
ATOM     11  C   UNL     1      -1.756   2.542  22.663  0.00  0.00    -0.013 C 
ATOM     16  C   UNL     1      -0.811   1.449  23.153  0.00  0.00    +0.007 C 
ATOM     17  C   UNL     1      -2.517   2.083  21.422  0.00  0.00    +0.007 C 
ENDBRANCH   7  11
BRANCH   8  14
ATOM     14  C   UNL     1      -1.517   4.966  24.707  0.00  0.00    +0.112 C 
BRANCH  14   4
ATOM      1  O   UNL     1      -2.285   3.560  27.117  0.00  0.00    -0.276 OA
ATOM      4  N   UNL     1      -0.831   3.876  25.329  0.00  0.00    -0.315 N 
ATOM     20  C   UNL     1      -1.272   3.251  26.496  0.00  0.00    +0.214 C 
ATOM     31  H   UNL     1      -0.008   3.503  24.864  0.00  0.00    +0.149 HD
BRANCH  20  23
ATOM     23  C   UNL     1      -0.346   2.127  26.927  0.00  0.00    +0.107 C 
BRANCH  23  26
ATOM     26  C   UNL     1       1.093   2.597  27.119  0.00  0.00    +0.129 C 
BRANCH  26  30
ATOM      3  O   UNL     1       0.751   2.487  29.526  0.00  0.00    -0.251 OA
ATOM     30  C   UNL     1       1.511   2.559  28.570  0.00  0.00    +0.305 C 
BRANCH  30   2
ATOM      2  O   UNL     1       2.863   2.616  28.699  0.00  0.00    -0.481 OA
ATOM     33  H   UNL     1       3.284   1.747  28.521  0.00  0.00    +0.295 HD
ENDBRANCH  30   2
ENDBRANCH  26  30
ENDBRANCH  23  26
ENDBRANCH  20  23
ENDBRANCH  14   4
ENDBRANCH   8  14
BRANCH  10  15
ATOM     15  C   UNL     1      -4.989   1.767  25.745  0.00  0.00    +0.082 C 
BRANCH  15  19
ATOM      5  N   UNL     1      -4.925  -0.488  24.662  0.00  0.00    -0.342 N 
ATOM      6  N   UNL     1      -3.019   0.208  25.567  0.00  0.00    -0.232 NA
ATOM     19  C   UNL     1      -4.278   0.508  25.340  0.00  0.00    +0.109 A 
ATOM     21  C   UNL     1      -4.024  -1.496  24.436  0.00  0.00    +0.066 A 
ATOM     22  C   UNL     1      -2.841  -1.037  25.010  0.00  0.00    +0.092 A 
ATOM     24  C   UNL     1      -1.694  -1.847  24.954  0.00  0.00    -0.023 A 
ATOM     25  C   UNL     1      -4.138  -2.732  23.799  0.00  0.00    +0.028 A 
ATOM     27  C   UNL     1      -1.785  -3.091  24.319  0.00  0.00    +0.005 A 
ATOM     28  C   UNL     1      -2.986  -3.524  23.752  0.00  0.00    +0.002 A 
ATOM     29  C   UNL     1      -0.387  -1.429  25.546  0.00  0.00    +0.046 C 
ATOM     32  H   UNL     1      -5.895  -0.483  24.377  0.00  0.00    +0.167 HD
ENDBRANCH  15  19
ENDBRANCH  10  15
TORSDOF 9
ENDMDL
