MODEL 1
REMARK VINA RESULT:       7.0      0.000      0.000
REMARK  Name = 11885333
REMARK  7 active torsions:
REMARK  status: ('A' for Active; 'I' for Inactive)
REMARK    1  A    between atoms: S_1  and  C_29
REMARK    2  A    between atoms: S_1  and  C_30
REMARK    3  A    between atoms: O_4  and  C_26
REMARK    4  A    between atoms: N_5  and  C_14
REMARK    5  A    between atoms: C_14  and  C_19
REMARK    6  A    between atoms: C_17  and  C_20
REMARK    7  A    between atoms: C_22  and  C_26
REMARK                            x       y       z     vdW  Elec       q    Type
REMARK                         _______ _______ _______ _____ _____    ______ ____
ROOT
ATOM      2  O   UNL     1       0.584   2.211  25.698  0.00  0.00    -0.267 OA
ATOM      5  N   UNL     1      -4.349   1.522  25.127  0.00  0.00    -0.294 NA
ATOM      6  N   UNL     1      -1.442   2.756  24.682  0.00  0.00    -0.311 N 
ATOM      7  C   UNL     1      -3.438   3.694  25.989  0.00  0.00    +0.024 C 
ATOM      8  C   UNL     1      -3.625   3.340  23.573  0.00  0.00    +0.050 C 
ATOM      9  C   UNL     1      -3.785   4.383  24.676  0.00  0.00    +0.017 C 
ATOM     10  C   UNL     1      -4.385   2.498  26.225  0.00  0.00    +0.090 C 
ATOM     11  C   UNL     1      -4.598   2.167  23.828  0.00  0.00    +0.094 C 
ATOM     12  C   UNL     1      -1.961   3.278  25.954  0.00  0.00    +0.130 C 
ATOM     13  C   UNL     1      -2.195   2.839  23.508  0.00  0.00    +0.026 A 
ATOM     15  C   UNL     1      -1.659   2.460  22.337  0.00  0.00    +0.022 A 
ATOM     16  C   UNL     1      -0.121   2.267  24.690  0.00  0.00    +0.259 A 
ATOM     17  C   UNL     1       0.441   1.818  23.368  0.00  0.00    +0.047 A 
ATOM     18  C   UNL     1      -0.324   1.936  22.271  0.00  0.00    +0.015 A 
ENDROOT
BRANCH  17  20
ATOM     20  C   UNL     1       1.796   1.248  23.267  0.00  0.00    -0.013 A 
ATOM     24  C   UNL     1       2.887   2.083  23.022  0.00  0.00    +0.010 A 
ATOM     25  C   UNL     1       1.989  -0.125  23.415  0.00  0.00    +0.010 A 
ATOM     27  C   UNL     1       4.170   1.544  22.927  0.00  0.00    +0.015 A 
ATOM     28  C   UNL     1       3.272  -0.664  23.320  0.00  0.00    +0.015 A 
ATOM     29  C   UNL     1       4.363   0.171  23.075  0.00  0.00    +0.008 A 
BRANCH  29   1
ATOM      1  S   UNL     1       6.001  -0.518  22.952  0.00  0.00    -0.129 S 
ATOM     30  C   UNL     1       6.198  -1.298  24.578  0.00  0.00    +0.090 C 
ENDBRANCH  29   1
ENDBRANCH  17  20
BRANCH   5  14
ATOM     14  C   UNL     1      -5.297   0.436  25.362  0.00  0.00    +0.158 C 
BRANCH  14  19
ATOM      3  O   UNL     1      -3.506  -1.155  25.165  0.00  0.00    -0.461 OA
ATOM     19  C   UNL     1      -4.781  -0.880  24.841  0.00  0.00    +0.119 A 
ATOM     21  C   UNL     1      -5.360  -1.851  24.101  0.00  0.00    +0.046 A 
ATOM     22  C   UNL     1      -3.249  -2.367  24.605  0.00  0.00    +0.131 A 
ATOM     23  C   UNL     1      -4.357  -2.836  23.940  0.00  0.00    +0.047 A 
BRANCH  22  26
ATOM     26  C   UNL     1      -1.898  -2.906  24.815  0.00  0.00    +0.230 C 
BRANCH  26   4
ATOM      4  O   UNL     1      -0.995  -1.805  24.938  0.00  0.00    -0.387 OA
ATOM     31  H   UNL     1      -1.246  -1.156  24.259  0.00  0.00    +0.210 HD
ENDBRANCH  26   4
ENDBRANCH  22  26
ENDBRANCH  14  19
ENDBRANCH   5  14
TORSDOF 6
ENDMDL
MODEL 2
REMARK VINA RESULT:       8.6      1.865      4.355
REMARK  Name = 11885333
REMARK  7 active torsions:
REMARK  status: ('A' for Active; 'I' for Inactive)
REMARK    1  A    between atoms: S_1  and  C_29
REMARK    2  A    between atoms: S_1  and  C_30
REMARK    3  A    between atoms: O_4  and  C_26
REMARK    4  A    between atoms: N_5  and  C_14
REMARK    5  A    between atoms: C_14  and  C_19
REMARK    6  A    between atoms: C_17  and  C_20
REMARK    7  A    between atoms: C_22  and  C_26
REMARK                            x       y       z     vdW  Elec       q    Type
REMARK                         _______ _______ _______ _____ _____    ______ ____
ROOT
ATOM      2  O   UNL     1      -0.352   0.023  22.085  0.00  0.00    -0.267 OA
ATOM      5  N   UNL     1      -4.130   1.054  25.217  0.00  0.00    -0.294 NA
ATOM      6  N   UNL     1      -1.924  -0.652  23.670  0.00  0.00    -0.311 N 
ATOM      7  C   UNL     1      -4.450  -0.492  23.268  0.00  0.00    +0.024 C 
ATOM      8  C   UNL     1      -3.611  -1.384  25.388  0.00  0.00    +0.050 C 
ATOM      9  C   UNL     1      -4.526  -1.689  24.205  0.00  0.00    +0.017 C 
ATOM     10  C   UNL     1      -4.912   0.785  24.003  0.00  0.00    +0.090 C 
ATOM     11  C   UNL     1      -4.110  -0.113  26.112  0.00  0.00    +0.094 C 
ATOM     12  C   UNL     1      -3.019  -0.376  22.728  0.00  0.00    +0.130 C 
ATOM     13  C   UNL     1      -2.177  -1.204  24.927  0.00  0.00    +0.026 A 
ATOM     15  C   UNL     1      -1.156  -1.553  25.727  0.00  0.00    +0.022 A 
ATOM     16  C   UNL     1      -0.615  -0.429  23.200  0.00  0.00    +0.259 A 
ATOM     17  C   UNL     1       0.508  -0.799  24.132  0.00  0.00    +0.047 A 
ATOM     18  C   UNL     1       0.205  -1.340  25.322  0.00  0.00    +0.015 A 
ENDROOT
BRANCH  17  20
ATOM     20  C   UNL     1       1.916  -0.568  23.762  0.00  0.00    -0.013 A 
ATOM     24  C   UNL     1       2.875  -1.549  24.015  0.00  0.00    +0.010 A 
ATOM     25  C   UNL     1       2.291   0.633  23.159  0.00  0.00    +0.010 A 
ATOM     27  C   UNL     1       4.207  -1.331  23.665  0.00  0.00    +0.015 A 
ATOM     28  C   UNL     1       3.623   0.852  22.809  0.00  0.00    +0.015 A 
ATOM     29  C   UNL     1       4.581  -0.129  23.063  0.00  0.00    +0.008 A 
BRANCH  29   1
ATOM      1  S   UNL     1       6.283   0.151  22.617  0.00  0.00    -0.129 S 
ATOM     30  C   UNL     1       7.162  -0.605  24.013  0.00  0.00    +0.090 C 
ENDBRANCH  29   1
ENDBRANCH  17  20
BRANCH   5  14
ATOM     14  C   UNL     1      -4.631   2.237  25.911  0.00  0.00    +0.158 C 
BRANCH  14  19
ATOM      3  O   UNL     1      -2.490   3.101  25.243  0.00  0.00    -0.461 OA
ATOM     19  C   UNL     1      -3.672   3.394  25.812  0.00  0.00    +0.119 A 
ATOM     21  C   UNL     1      -3.770   4.687  26.190  0.00  0.00    +0.046 A 
ATOM     22  C   UNL     1      -1.790   4.265  25.254  0.00  0.00    +0.131 A 
ATOM     23  C   UNL     1      -2.534   5.271  25.826  0.00  0.00    +0.047 A 
BRANCH  22  26
ATOM     26  C   UNL     1      -0.439   4.217  24.678  0.00  0.00    +0.230 C 
BRANCH  26   4
ATOM      4  O   UNL     1      -0.165   2.865  24.304  0.00  0.00    -0.387 OA
ATOM     31  H   UNL     1       0.760   2.836  24.006  0.00  0.00    +0.210 HD
ENDBRANCH  26   4
ENDBRANCH  22  26
ENDBRANCH  14  19
ENDBRANCH   5  14
TORSDOF 6
ENDMDL
