MODEL 1
REMARK VINA RESULT:      21.3      0.000      0.000
REMARK  Name = 26763567
REMARK  8 active torsions:
REMARK  status: ('A' for Active; 'I' for Inactive)
REMARK    1  A    between atoms: O_5  and  C_28
REMARK    2  A    between atoms: O_5  and  C_33
REMARK    3  A    between atoms: C_13  and  C_14
REMARK    4  A    between atoms: C_13  and  C_19
REMARK    5  A    between atoms: C_13  and  C_20
REMARK    6  A    between atoms: C_13  and  C_21
REMARK    7  A    between atoms: C_14  and  C_15
REMARK    8  A    between atoms: C_25  and  C_27
REMARK                            x       y       z     vdW  Elec       q    Type
REMARK                         _______ _______ _______ _____ _____    ______ ____
ROOT
ATOM      2  O   UNL     1      -4.968   4.666  23.375  0.00  0.00    -0.276 OA
ATOM      3  O   UNL     1      -2.937   1.306  22.936  0.00  0.00    -0.273 OA
ATOM      4  O   UNL     1       1.009   1.754  26.425  0.00  0.00    -0.270 OA
ATOM      6  N   UNL     1      -3.351   3.675  24.718  0.00  0.00    -0.298 N 
ATOM      7  N   UNL     1      -0.729   2.482  25.082  0.00  0.00    -0.283 N 
ATOM      8  N   UNL     1      -0.798   0.534  22.856  0.00  0.00    -0.283 N 
ATOM      9  C   UNL     1      -1.219   2.795  23.747  0.00  0.00    +0.180 C 
ATOM     10  C   UNL     1      -2.276   3.906  23.749  0.00  0.00    +0.139 C 
ATOM     11  C   UNL     1      -2.981   2.998  25.965  0.00  0.00    +0.127 C 
ATOM     12  C   UNL     1      -1.481   3.021  26.215  0.00  0.00    +0.128 C 
ATOM     15  C   UNL     1      -4.647   4.097  24.421  0.00  0.00    +0.216 C 
ATOM     16  C   UNL     1      -1.742   1.485  23.179  0.00  0.00    +0.239 C 
ATOM     17  C   UNL     1       0.493   1.856  25.311  0.00  0.00    +0.249 C 
ATOM     18  C   UNL     1       1.214   1.245  24.163  0.00  0.00    +0.059 A 
ATOM     22  C   UNL     1       0.589   0.561  23.108  0.00  0.00    +0.046 A 
ATOM     23  C   UNL     1       2.618   1.216  24.267  0.00  0.00    +0.023 A 
ATOM     24  C   UNL     1       1.380  -0.194  22.223  0.00  0.00    +0.024 A 
ATOM     25  C   UNL     1       3.390   0.502  23.351  0.00  0.00    -0.014 A 
ATOM     26  C   UNL     1       2.769  -0.215  22.337  0.00  0.00    +0.010 A 
ATOM     34  H   UNL     1      -1.131  -0.235  22.280  0.00  0.00    +0.155 HD
ENDROOT
BRANCH  25  27
ATOM      1 CL   UNL     1       7.716   3.156  24.231  0.00  0.00    -0.084 Cl
ATOM     27  C   UNL     1       4.832   0.489  23.472  0.00  0.00    +0.025 A 
ATOM     28  C   UNL     1       5.552  -0.693  23.307  0.00  0.00    +0.128 A 
ATOM     29  C   UNL     1       5.500   1.679  23.758  0.00  0.00    +0.032 A 
ATOM     30  C   UNL     1       6.942  -0.686  23.428  0.00  0.00    +0.047 A 
ATOM     31  C   UNL     1       6.890   1.687  23.878  0.00  0.00    +0.042 A 
ATOM     32  C   UNL     1       7.610   0.505  23.714  0.00  0.00    +0.023 A 
BRANCH  28   5
ATOM      5  O   UNL     1       4.925  -1.871  23.028  0.00  0.00    -0.495 OA
ATOM     33  C   UNL     1       4.377  -2.589  24.131  0.00  0.00    +0.277 C 
ENDBRANCH  28   5
ENDBRANCH  25  27
BRANCH  15  14
ATOM     14  C   UNL     1      -5.694   3.826  25.474  0.00  0.00    +0.102 C 
BRANCH  14  13
ATOM     13  C   UNL     1      -6.066   2.337  25.577  0.00  0.00    -0.029 C 
ATOM     19  C   UNL     1      -6.614   1.997  26.974  0.00  0.00    +0.011 C 
ATOM     20  C   UNL     1      -4.857   1.439  25.268  0.00  0.00    +0.011 C 
ATOM     21  C   UNL     1      -7.167   2.054  24.537  0.00  0.00    +0.011 C 
ENDBRANCH  14  13
ENDBRANCH  15  14
TORSDOF 4
ENDMDL
MODEL 2
REMARK VINA RESULT:      21.5      3.205      9.564
REMARK  Name = 26763567
REMARK  8 active torsions:
REMARK  status: ('A' for Active; 'I' for Inactive)
REMARK    1  A    between atoms: O_5  and  C_28
REMARK    2  A    between atoms: O_5  and  C_33
REMARK    3  A    between atoms: C_13  and  C_14
REMARK    4  A    between atoms: C_13  and  C_19
REMARK    5  A    between atoms: C_13  and  C_20
REMARK    6  A    between atoms: C_13  and  C_21
REMARK    7  A    between atoms: C_14  and  C_15
REMARK    8  A    between atoms: C_25  and  C_27
REMARK                            x       y       z     vdW  Elec       q    Type
REMARK                         _______ _______ _______ _____ _____    ______ ____
ROOT
ATOM      2  O   UNL     1       4.648  -2.522  23.165  0.00  0.00    -0.276 OA
ATOM      3  O   UNL     1       1.500  -0.929  21.386  0.00  0.00    -0.273 OA
ATOM      4  O   UNL     1       0.310   3.232  24.423  0.00  0.00    -0.270 OA
ATOM      6  N   UNL     1       3.642  -0.442  23.420  0.00  0.00    -0.298 N 
ATOM      7  N   UNL     1       1.302   1.212  23.885  0.00  0.00    -0.283 N 
ATOM      8  N   UNL     1      -0.510   0.020  21.873  0.00  0.00    -0.283 N 
ATOM      9  C   UNL     1       1.162  -0.221  23.670  0.00  0.00    +0.180 C 
ATOM     10  C   UNL     1       2.432  -1.001  24.029  0.00  0.00    +0.139 C 
ATOM     11  C   UNL     1       3.686   1.014  23.255  0.00  0.00    +0.127 C 
ATOM     12  C   UNL     1       2.653   1.727  24.114  0.00  0.00    +0.128 C 
ATOM     15  C   UNL     1       4.675  -1.296  23.031  0.00  0.00    +0.216 C 
ATOM     16  C   UNL     1       0.763  -0.384  22.212  0.00  0.00    +0.239 C 
ATOM     17  C   UNL     1       0.212   2.060  24.054  0.00  0.00    +0.249 C 
ATOM     18  C   UNL     1      -1.151   1.550  23.747  0.00  0.00    +0.059 A 
ATOM     22  C   UNL     1      -1.453   0.694  22.676  0.00  0.00    +0.046 A 
ATOM     23  C   UNL     1      -2.201   2.124  24.488  0.00  0.00    +0.023 A 
ATOM     24  C   UNL     1      -2.801   0.489  22.328  0.00  0.00    +0.024 A 
ATOM     25  C   UNL     1      -3.532   1.871  24.160  0.00  0.00    -0.014 A 
ATOM     26  C   UNL     1      -3.832   1.063  23.070  0.00  0.00    +0.010 A 
ATOM     34  H   UNL     1      -0.842  -0.294  20.964  0.00  0.00    +0.155 HD
ENDROOT
BRANCH  25  27
ATOM      1 CL   UNL     1      -7.371   1.201  27.528  0.00  0.00    -0.084 Cl
ATOM     27  C   UNL     1      -4.597   2.466  24.937  0.00  0.00    +0.025 A 
ATOM     28  C   UNL     1      -4.849   3.836  24.873  0.00  0.00    +0.128 A 
ATOM     29  C   UNL     1      -5.377   1.651  25.757  0.00  0.00    +0.032 A 
ATOM     30  C   UNL     1      -5.881   4.391  25.631  0.00  0.00    +0.047 A 
ATOM     31  C   UNL     1      -6.409   2.206  26.515  0.00  0.00    +0.042 A 
ATOM     32  C   UNL     1      -6.660   3.576  26.451  0.00  0.00    +0.023 A 
BRANCH  28   5
ATOM      5  O   UNL     1      -4.103   4.657  24.080  0.00  0.00    -0.495 OA
ATOM     33  C   UNL     1      -2.894   5.169  24.636  0.00  0.00    +0.277 C 
ENDBRANCH  28   5
ENDBRANCH  25  27
BRANCH  15  14
ATOM     14  C   UNL     1       5.887  -0.640  22.417  0.00  0.00    +0.102 C 
BRANCH  14  13
ATOM     13  C   UNL     1       6.919  -0.191  23.466  0.00  0.00    -0.029 C 
ATOM     19  C   UNL     1       6.677   1.267  23.894  0.00  0.00    +0.011 C 
ATOM     20  C   UNL     1       8.354  -0.335  22.932  0.00  0.00    +0.011 C 
ATOM     21  C   UNL     1       6.761  -1.097  24.701  0.00  0.00    +0.011 C 
ENDBRANCH  14  13
ENDBRANCH  15  14
TORSDOF 4
ENDMDL
MODEL 3
REMARK VINA RESULT:      21.8      3.150      9.403
REMARK  Name = 26763567
REMARK  8 active torsions:
REMARK  status: ('A' for Active; 'I' for Inactive)
REMARK    1  A    between atoms: O_5  and  C_28
REMARK    2  A    between atoms: O_5  and  C_33
REMARK    3  A    between atoms: C_13  and  C_14
REMARK    4  A    between atoms: C_13  and  C_19
REMARK    5  A    between atoms: C_13  and  C_20
REMARK    6  A    between atoms: C_13  and  C_21
REMARK    7  A    between atoms: C_14  and  C_15
REMARK    8  A    between atoms: C_25  and  C_27
REMARK                            x       y       z     vdW  Elec       q    Type
REMARK                         _______ _______ _______ _____ _____    ______ ____
ROOT
ATOM      2  O   UNL     1       4.856  -2.382  22.965  0.00  0.00    -0.276 OA
ATOM      3  O   UNL     1       1.731  -0.737  21.195  0.00  0.00    -0.273 OA
ATOM      4  O   UNL     1       0.300   3.130  24.504  0.00  0.00    -0.270 OA
ATOM      6  N   UNL     1       3.779  -0.358  23.345  0.00  0.00    -0.298 N 
ATOM      7  N   UNL     1       1.373   1.188  23.847  0.00  0.00    -0.283 N 
ATOM      8  N   UNL     1      -0.325   0.114  21.675  0.00  0.00    -0.283 N 
ATOM      9  C   UNL     1       1.285  -0.226  23.512  0.00  0.00    +0.180 C 
ATOM     10  C   UNL     1       2.564  -0.998  23.858  0.00  0.00    +0.139 C 
ATOM     11  C   UNL     1       3.784   1.107  23.299  0.00  0.00    +0.127 C 
ATOM     12  C   UNL     1       2.697   1.719  24.170  0.00  0.00    +0.128 C 
ATOM     15  C   UNL     1       4.851  -1.149  22.930  0.00  0.00    +0.216 C 
ATOM     16  C   UNL     1       0.946  -0.282  22.031  0.00  0.00    +0.239 C 
ATOM     17  C   UNL     1       0.252   1.990  24.039  0.00  0.00    +0.249 C 
ATOM     18  C   UNL     1      -1.082   1.469  23.638  0.00  0.00    +0.059 A 
ATOM     22  C   UNL     1      -1.318   0.695  22.491  0.00  0.00    +0.046 A 
ATOM     23  C   UNL     1      -2.177   1.952  24.380  0.00  0.00    +0.023 A 
ATOM     24  C   UNL     1      -2.645   0.482  22.074  0.00  0.00    +0.024 A 
ATOM     25  C   UNL     1      -3.486   1.689  23.979  0.00  0.00    -0.014 A 
ATOM     26  C   UNL     1      -3.720   0.965  22.817  0.00  0.00    +0.010 A 
ATOM     34  H   UNL     1      -0.612  -0.134  20.731  0.00  0.00    +0.155 HD
ENDROOT
BRANCH  25  27
ATOM      1 CL   UNL     1      -6.243   5.755  25.529  0.00  0.00    -0.084 Cl
ATOM     27  C   UNL     1      -4.598   2.190  24.758  0.00  0.00    +0.025 A 
ATOM     28  C   UNL     1      -5.406   1.322  25.491  0.00  0.00    +0.128 A 
ATOM     29  C   UNL     1      -4.856   3.561  24.770  0.00  0.00    +0.032 A 
ATOM     30  C   UNL     1      -6.473   1.824  26.236  0.00  0.00    +0.047 A 
ATOM     31  C   UNL     1      -5.923   4.063  25.514  0.00  0.00    +0.042 A 
ATOM     32  C   UNL     1      -6.732   3.195  26.247  0.00  0.00    +0.023 A 
BRANCH  28   5
ATOM      5  O   UNL     1      -5.177  -0.022  25.498  0.00  0.00    -0.495 OA
ATOM     33  C   UNL     1      -3.951  -0.466  26.074  0.00  0.00    +0.277 C 
ENDBRANCH  28   5
ENDBRANCH  25  27
BRANCH  15  14
ATOM     14  C   UNL     1       6.065  -0.413  22.420  0.00  0.00    +0.102 C 
BRANCH  14  13
ATOM     13  C   UNL     1       7.042  -0.022  23.542  0.00  0.00    -0.029 C 
ATOM     19  C   UNL     1       6.810   1.428  24.000  0.00  0.00    +0.011 C 
ATOM     20  C   UNL     1       8.503  -0.189  23.090  0.00  0.00    +0.011 C 
ATOM     21  C   UNL     1       6.788  -0.961  24.736  0.00  0.00    +0.011 C 
ENDBRANCH  14  13
ENDBRANCH  15  14
TORSDOF 4
ENDMDL
MODEL 4
REMARK VINA RESULT:      22.1      3.246      9.419
REMARK  Name = 26763567
REMARK  8 active torsions:
REMARK  status: ('A' for Active; 'I' for Inactive)
REMARK    1  A    between atoms: O_5  and  C_28
REMARK    2  A    between atoms: O_5  and  C_33
REMARK    3  A    between atoms: C_13  and  C_14
REMARK    4  A    between atoms: C_13  and  C_19
REMARK    5  A    between atoms: C_13  and  C_20
REMARK    6  A    between atoms: C_13  and  C_21
REMARK    7  A    between atoms: C_14  and  C_15
REMARK    8  A    between atoms: C_25  and  C_27
REMARK                            x       y       z     vdW  Elec       q    Type
REMARK                         _______ _______ _______ _____ _____    ______ ____
ROOT
ATOM      2  O   UNL     1       4.839  -0.222  20.785  0.00  0.00    -0.276 OA
ATOM      3  O   UNL     1       3.240   2.204  23.462  0.00  0.00    -0.273 OA
ATOM      4  O   UNL     1      -0.706  -0.635  25.537  0.00  0.00    -0.270 OA
ATOM      6  N   UNL     1       3.367  -0.639  22.535  0.00  0.00    -0.298 N 
ATOM      7  N   UNL     1       0.917  -0.075  23.987  0.00  0.00    -0.283 N 
ATOM      8  N   UNL     1       1.213   2.856  24.266  0.00  0.00    -0.283 N 
ATOM      9  C   UNL     1       1.355   0.801  22.909  0.00  0.00    +0.180 C 
ATOM     10  C   UNL     1       2.265   0.090  21.901  0.00  0.00    +0.139 C 
ATOM     11  C   UNL     1       3.094  -1.242  23.843  0.00  0.00    +0.127 C 
ATOM     12  C   UNL     1       1.604  -1.359  24.128  0.00  0.00    +0.128 C 
ATOM     15  C   UNL     1       4.599  -0.726  21.885  0.00  0.00    +0.216 C 
ATOM     16  C   UNL     1       2.033   1.983  23.584  0.00  0.00    +0.239 C 
ATOM     17  C   UNL     1      -0.215   0.180  24.754  0.00  0.00    +0.249 C 
ATOM     18  C   UNL     1      -0.863   1.516  24.660  0.00  0.00    +0.059 A 
ATOM     22  C   UNL     1      -0.165   2.727  24.536  0.00  0.00    +0.046 A 
ATOM     23  C   UNL     1      -2.251   1.541  24.892  0.00  0.00    +0.023 A 
ATOM     24  C   UNL     1      -0.861   3.936  24.718  0.00  0.00    +0.024 A 
ATOM     25  C   UNL     1      -2.934   2.750  25.020  0.00  0.00    -0.014 A 
ATOM     26  C   UNL     1      -2.236   3.948  24.947  0.00  0.00    +0.010 A 
ATOM     34  H   UNL     1       1.636   3.746  24.519  0.00  0.00    +0.155 HD
ENDROOT
BRANCH  25  27
ATOM      1 CL   UNL     1      -7.239   5.507  25.653  0.00  0.00    -0.084 Cl
ATOM     27  C   UNL     1      -4.362   2.755  25.254  0.00  0.00    +0.025 A 
ATOM     28  C   UNL     1      -5.067   1.561  25.399  0.00  0.00    +0.128 A 
ATOM     29  C   UNL     1      -5.033   3.975  25.332  0.00  0.00    +0.032 A 
ATOM     30  C   UNL     1      -6.444   1.587  25.623  0.00  0.00    +0.047 A 
ATOM     31  C   UNL     1      -6.410   4.001  25.556  0.00  0.00    +0.042 A 
ATOM     32  C   UNL     1      -7.115   2.807  25.701  0.00  0.00    +0.023 A 
BRANCH  28   5
ATOM      5  O   UNL     1      -4.438   0.354  25.326  0.00  0.00    -0.495 OA
ATOM     33  C   UNL     1      -4.712  -0.451  24.182  0.00  0.00    +0.277 C 
ENDBRANCH  28   5
ENDBRANCH  25  27
BRANCH  15  14
ATOM     14  C   UNL     1       5.679  -1.498  22.602  0.00  0.00    +0.102 C 
BRANCH  14  13
ATOM     13  C   UNL     1       6.488  -0.627  23.578  0.00  0.00    -0.029 C 
ATOM     19  C   UNL     1       5.835   0.754  23.762  0.00  0.00    +0.011 C 
ATOM     20  C   UNL     1       7.937  -0.447  23.093  0.00  0.00    +0.011 C 
ATOM     21  C   UNL     1       6.512  -1.343  24.941  0.00  0.00    +0.011 C 
ENDBRANCH  14  13
ENDBRANCH  15  14
TORSDOF 4
ENDMDL
MODEL 5
REMARK VINA RESULT:      23.0      3.300      9.696
REMARK  Name = 26763567
REMARK  8 active torsions:
REMARK  status: ('A' for Active; 'I' for Inactive)
REMARK    1  A    between atoms: O_5  and  C_28
REMARK    2  A    between atoms: O_5  and  C_33
REMARK    3  A    between atoms: C_13  and  C_14
REMARK    4  A    between atoms: C_13  and  C_19
REMARK    5  A    between atoms: C_13  and  C_20
REMARK    6  A    between atoms: C_13  and  C_21
REMARK    7  A    between atoms: C_14  and  C_15
REMARK    8  A    between atoms: C_25  and  C_27
REMARK                            x       y       z     vdW  Elec       q    Type
REMARK                         _______ _______ _______ _____ _____    ______ ____
ROOT
ATOM      2  O   UNL     1       3.827   0.104  20.832  0.00  0.00    -0.276 OA
ATOM      3  O   UNL     1       2.355   2.319  23.753  0.00  0.00    -0.273 OA
ATOM      4  O   UNL     1      -1.268  -0.806  26.001  0.00  0.00    -0.270 OA
ATOM      6  N   UNL     1       2.530  -0.468  22.674  0.00  0.00    -0.298 N 
ATOM      7  N   UNL     1       0.190  -0.094  24.352  0.00  0.00    -0.283 N 
ATOM      8  N   UNL     1       0.378   2.831  24.755  0.00  0.00    -0.283 N 
ATOM      9  C   UNL     1       0.495   0.853  23.288  0.00  0.00    +0.180 C 
ATOM     10  C   UNL     1       1.347   0.236  22.172  0.00  0.00    +0.139 C 
ATOM     11  C   UNL     1       2.397  -1.145  23.968  0.00  0.00    +0.127 C 
ATOM     12  C   UNL     1       0.944  -1.348  24.369  0.00  0.00    +0.128 C 
ATOM     15  C   UNL     1       3.705  -0.463  21.920  0.00  0.00    +0.216 C 
ATOM     16  C   UNL     1       1.175   2.033  23.964  0.00  0.00    +0.239 C 
ATOM     17  C   UNL     1      -0.883   0.069  25.223  0.00  0.00    +0.249 C 
ATOM     18  C   UNL     1      -1.595   1.374  25.252  0.00  0.00    +0.059 A 
ATOM     22  C   UNL     1      -0.965   2.623  25.132  0.00  0.00    +0.046 A 
ATOM     23  C   UNL     1      -2.958   1.320  25.599  0.00  0.00    +0.023 A 
ATOM     24  C   UNL     1      -1.697   3.786  25.433  0.00  0.00    +0.024 A 
ATOM     25  C   UNL     1      -3.682   2.486  25.846  0.00  0.00    -0.014 A 
ATOM     26  C   UNL     1      -3.047   3.719  25.777  0.00  0.00    +0.010 A 
ATOM     34  H   UNL     1       0.780   3.728  25.018  0.00  0.00    +0.155 HD
ENDROOT
BRANCH  25  27
ATOM      1 CL   UNL     1      -7.417  -0.012  28.364  0.00  0.00    -0.084 Cl
ATOM     27  C   UNL     1      -5.083   2.410  26.197  0.00  0.00    +0.025 A 
ATOM     28  C   UNL     1      -5.989   3.364  25.733  0.00  0.00    +0.128 A 
ATOM     29  C   UNL     1      -5.524   1.366  27.010  0.00  0.00    +0.032 A 
ATOM     30  C   UNL     1      -7.337   3.273  26.083  0.00  0.00    +0.047 A 
ATOM     31  C   UNL     1      -6.872   1.275  27.360  0.00  0.00    +0.042 A 
ATOM     32  C   UNL     1      -7.777   2.229  26.896  0.00  0.00    +0.023 A 
BRANCH  28   5
ATOM      5  O   UNL     1      -5.586   4.395  24.938  0.00  0.00    -0.495 OA
ATOM     33  C   UNL     1      -6.270   5.636  25.093  0.00  0.00    +0.277 C 
ENDBRANCH  28   5
ENDBRANCH  25  27
BRANCH  15  14
ATOM     14  C   UNL     1       4.875  -1.215  22.506  0.00  0.00    +0.102 C 
BRANCH  14  13
ATOM     13  C   UNL     1       5.753  -0.338  23.416  0.00  0.00    -0.029 C 
ATOM     19  C   UNL     1       5.208   1.098  23.497  0.00  0.00    +0.011 C 
ATOM     20  C   UNL     1       7.209  -0.307  22.921  0.00  0.00    +0.011 C 
ATOM     21  C   UNL     1       5.727  -0.952  24.828  0.00  0.00    +0.011 C 
ENDBRANCH  14  13
ENDBRANCH  15  14
TORSDOF 4
ENDMDL
MODEL 6
REMARK VINA RESULT:      24.2      1.414      1.903
REMARK  Name = 26763567
REMARK  8 active torsions:
REMARK  status: ('A' for Active; 'I' for Inactive)
REMARK    1  A    between atoms: O_5  and  C_28
REMARK    2  A    between atoms: O_5  and  C_33
REMARK    3  A    between atoms: C_13  and  C_14
REMARK    4  A    between atoms: C_13  and  C_19
REMARK    5  A    between atoms: C_13  and  C_20
REMARK    6  A    between atoms: C_13  and  C_21
REMARK    7  A    between atoms: C_14  and  C_15
REMARK    8  A    between atoms: C_25  and  C_27
REMARK                            x       y       z     vdW  Elec       q    Type
REMARK                         _______ _______ _______ _____ _____    ______ ____
ROOT
ATOM      2  O   UNL     1      -4.717   4.550  23.294  0.00  0.00    -0.276 OA
ATOM      3  O   UNL     1      -2.839   1.095  22.913  0.00  0.00    -0.273 OA
ATOM      4  O   UNL     1       1.234   1.500  26.258  0.00  0.00    -0.270 OA
ATOM      6  N   UNL     1      -3.098   3.540  24.621  0.00  0.00    -0.298 N 
ATOM      7  N   UNL     1      -0.516   2.252  24.945  0.00  0.00    -0.283 N 
ATOM      8  N   UNL     1      -0.737   0.233  22.794  0.00  0.00    -0.283 N 
ATOM      9  C   UNL     1      -1.036   2.539  23.616  0.00  0.00    +0.180 C 
ATOM     10  C   UNL     1      -2.047   3.692  23.611  0.00  0.00    +0.139 C 
ATOM     11  C   UNL     1      -2.716   2.893  25.879  0.00  0.00    +0.127 C 
ATOM     12  C   UNL     1      -1.208   2.861  26.081  0.00  0.00    +0.128 C 
ATOM     15  C   UNL     1      -4.386   4.005  24.349  0.00  0.00    +0.216 C 
ATOM     16  C   UNL     1      -1.630   1.233  23.112  0.00  0.00    +0.239 C 
ATOM     17  C   UNL     1       0.686   1.585  25.158  0.00  0.00    +0.249 C 
ATOM     18  C   UNL     1       1.344   0.905  24.011  0.00  0.00    +0.059 A 
ATOM     22  C   UNL     1       0.658   0.211  23.001  0.00  0.00    +0.046 A 
ATOM     23  C   UNL     1       2.748   0.821  24.071  0.00  0.00    +0.023 A 
ATOM     24  C   UNL     1       1.388  -0.607  22.120  0.00  0.00    +0.024 A 
ATOM     25  C   UNL     1       3.460   0.045  23.159  0.00  0.00    -0.014 A 
ATOM     26  C   UNL     1       2.778  -0.681  22.191  0.00  0.00    +0.010 A 
ATOM     34  H   UNL     1      -1.120  -0.541  22.257  0.00  0.00    +0.155 HD
ENDROOT
BRANCH  25  27
ATOM      1 CL   UNL     1       7.823  -2.061  21.408  0.00  0.00    -0.084 Cl
ATOM     27  C   UNL     1       4.904  -0.025  23.235  0.00  0.00    +0.025 A 
ATOM     28  C   UNL     1       5.611   0.770  24.136  0.00  0.00    +0.128 A 
ATOM     29  C   UNL     1       5.587  -0.900  22.391  0.00  0.00    +0.032 A 
ATOM     30  C   UNL     1       7.003   0.689  24.194  0.00  0.00    +0.047 A 
ATOM     31  C   UNL     1       6.979  -0.981  22.449  0.00  0.00    +0.042 A 
ATOM     32  C   UNL     1       7.686  -0.187  23.350  0.00  0.00    +0.023 A 
BRANCH  28   5
ATOM      5  O   UNL     1       4.969   1.635  24.972  0.00  0.00    -0.495 OA
ATOM     33  C   UNL     1       5.320   1.579  26.353  0.00  0.00    +0.277 C 
ENDBRANCH  28   5
ENDBRANCH  25  27
BRANCH  15  14
ATOM     14  C   UNL     1      -5.407   3.815  25.443  0.00  0.00    +0.102 C 
BRANCH  14  13
ATOM     13  C   UNL     1      -5.965   2.382  25.497  0.00  0.00    -0.029 C 
ATOM     19  C   UNL     1      -4.851   1.344  25.273  0.00  0.00    +0.011 C 
ATOM     20  C   UNL     1      -7.074   2.177  24.451  0.00  0.00    +0.011 C 
ATOM     21  C   UNL     1      -6.565   2.162  26.899  0.00  0.00    +0.011 C 
ENDBRANCH  14  13
ENDBRANCH  15  14
TORSDOF 4
ENDMDL
MODEL 7
REMARK VINA RESULT:      24.3      3.443      9.893
REMARK  Name = 26763567
REMARK  8 active torsions:
REMARK  status: ('A' for Active; 'I' for Inactive)
REMARK    1  A    between atoms: O_5  and  C_28
REMARK    2  A    between atoms: O_5  and  C_33
REMARK    3  A    between atoms: C_13  and  C_14
REMARK    4  A    between atoms: C_13  and  C_19
REMARK    5  A    between atoms: C_13  and  C_20
REMARK    6  A    between atoms: C_13  and  C_21
REMARK    7  A    between atoms: C_14  and  C_15
REMARK    8  A    between atoms: C_25  and  C_27
REMARK                            x       y       z     vdW  Elec       q    Type
REMARK                         _______ _______ _______ _____ _____    ______ ____
ROOT
ATOM      2  O   UNL     1       7.314  -1.290  24.822  0.00  0.00    -0.276 OA
ATOM      3  O   UNL     1       3.721  -2.093  23.390  0.00  0.00    -0.273 OA
ATOM      4  O   UNL     1       1.574   2.678  22.629  0.00  0.00    -0.270 OA
ATOM      6  N   UNL     1       5.761   0.067  23.750  0.00  0.00    -0.298 N 
ATOM      7  N   UNL     1       3.076   1.138  23.482  0.00  0.00    -0.283 N 
ATOM      8  N   UNL     1       1.559  -1.401  23.556  0.00  0.00    -0.283 N 
ATOM      9  C   UNL     1       3.350   0.059  24.419  0.00  0.00    +0.180 C 
ATOM     10  C   UNL     1       4.815   0.021  24.869  0.00  0.00    +0.139 C 
ATOM     11  C   UNL     1       5.363   0.855  22.580  0.00  0.00    +0.127 C 
ATOM     12  C   UNL     1       4.228   1.820  22.889  0.00  0.00    +0.128 C 
ATOM     15  C   UNL     1       6.970  -0.625  23.843  0.00  0.00    +0.216 C 
ATOM     16  C   UNL     1       2.915  -1.219  23.720  0.00  0.00    +0.239 C 
ATOM     17  C   UNL     1       1.799   1.649  23.269  0.00  0.00    +0.249 C 
ATOM     18  C   UNL     1       0.629   0.909  23.811  0.00  0.00    +0.059 A 
ATOM     22  C   UNL     1       0.518  -0.491  23.833  0.00  0.00    +0.046 A 
ATOM     23  C   UNL     1      -0.489   1.694  24.151  0.00  0.00    +0.023 A 
ATOM     24  C   UNL     1      -0.731  -1.070  24.125  0.00  0.00    +0.024 A 
ATOM     25  C   UNL     1      -1.706   1.102  24.486  0.00  0.00    -0.014 A 
ATOM     26  C   UNL     1      -1.830  -0.281  24.459  0.00  0.00    +0.010 A 
ATOM     34  H   UNL     1       1.272  -2.341  23.295  0.00  0.00    +0.155 HD
ENDROOT
BRANCH  25  27
ATOM      1 CL   UNL     1      -6.828   1.624  24.652  0.00  0.00    -0.084 Cl
ATOM     27  C   UNL     1      -2.842   1.926  24.836  0.00  0.00    +0.025 A 
ATOM     28  C   UNL     1      -2.663   3.189  25.398  0.00  0.00    +0.128 A 
ATOM     29  C   UNL     1      -4.130   1.441  24.605  0.00  0.00    +0.032 A 
ATOM     30  C   UNL     1      -3.771   3.969  25.729  0.00  0.00    +0.047 A 
ATOM     31  C   UNL     1      -5.238   2.221  24.937  0.00  0.00    +0.042 A 
ATOM     32  C   UNL     1      -5.059   3.484  25.498  0.00  0.00    +0.023 A 
BRANCH  28   5
ATOM      5  O   UNL     1      -1.417   3.688  25.635  0.00  0.00    -0.495 OA
ATOM     33  C   UNL     1      -1.122   4.974  25.095  0.00  0.00    +0.277 C 
ENDBRANCH  28   5
ENDBRANCH  25  27
BRANCH  15  14
ATOM     14  C   UNL     1       7.889  -0.522  22.650  0.00  0.00    +0.102 C 
BRANCH  14  13
ATOM     13  C   UNL     1       9.298  -0.031  23.023  0.00  0.00    -0.029 C 
ATOM     19  C   UNL     1       9.520  -0.082  24.545  0.00  0.00    +0.011 C 
ATOM     20  C   UNL     1       9.540   1.401  22.518  0.00  0.00    +0.011 C 
ATOM     21  C   UNL     1      10.318  -0.968  22.348  0.00  0.00    +0.011 C 
ENDBRANCH  14  13
ENDBRANCH  15  14
TORSDOF 4
ENDMDL
MODEL 8
REMARK VINA RESULT:      25.1      3.461      9.966
REMARK  Name = 26763567
REMARK  8 active torsions:
REMARK  status: ('A' for Active; 'I' for Inactive)
REMARK    1  A    between atoms: O_5  and  C_28
REMARK    2  A    between atoms: O_5  and  C_33
REMARK    3  A    between atoms: C_13  and  C_14
REMARK    4  A    between atoms: C_13  and  C_19
REMARK    5  A    between atoms: C_13  and  C_20
REMARK    6  A    between atoms: C_13  and  C_21
REMARK    7  A    between atoms: C_14  and  C_15
REMARK    8  A    between atoms: C_25  and  C_27
REMARK                            x       y       z     vdW  Elec       q    Type
REMARK                         _______ _______ _______ _____ _____    ______ ____
ROOT
ATOM      2  O   UNL     1       7.831  -0.333  24.801  0.00  0.00    -0.276 OA
ATOM      3  O   UNL     1       4.516  -2.425  24.310  0.00  0.00    -0.273 OA
ATOM      4  O   UNL     1       1.286   0.910  21.781  0.00  0.00    -0.270 OA
ATOM      6  N   UNL     1       5.988   0.030  23.433  0.00  0.00    -0.298 N 
ATOM      7  N   UNL     1       3.122   0.279  23.040  0.00  0.00    -0.283 N 
ATOM      8  N   UNL     1       2.253  -2.196  24.408  0.00  0.00    -0.283 N 
ATOM      9  C   UNL     1       3.655  -0.169  24.318  0.00  0.00    +0.180 C 
ATOM     10  C   UNL     1       5.093   0.307  24.560  0.00  0.00    +0.139 C 
ATOM     11  C   UNL     1       5.399   0.094  22.091  0.00  0.00    +0.127 C 
ATOM     12  C   UNL     1       4.071   0.835  22.075  0.00  0.00    +0.128 C 
ATOM     15  C   UNL     1       7.327  -0.277  23.677  0.00  0.00    +0.216 C 
ATOM     16  C   UNL     1       3.529  -1.685  24.312  0.00  0.00    +0.239 C 
ATOM     17  C   UNL     1       1.757   0.360  22.777  0.00  0.00    +0.249 C 
ATOM     18  C   UNL     1       0.804  -0.274  23.726  0.00  0.00    +0.059 A 
ATOM     22  C   UNL     1       1.029  -1.498  24.376  0.00  0.00    +0.046 A 
ATOM     23  C   UNL     1      -0.465   0.329  23.814  0.00  0.00    +0.023 A 
ATOM     24  C   UNL     1      -0.042  -2.123  25.040  0.00  0.00    +0.024 A 
ATOM     25  C   UNL     1      -1.502  -0.281  24.518  0.00  0.00    -0.014 A 
ATOM     26  C   UNL     1      -1.294  -1.515  25.120  0.00  0.00    +0.010 A 
ATOM     34  H   UNL     1       2.195  -3.188  24.626  0.00  0.00    +0.155 HD
ENDROOT
BRANCH  25  27
ATOM      1 CL   UNL     1      -4.212   4.099  24.515  0.00  0.00    -0.084 Cl
ATOM     27  C   UNL     1      -2.798   0.358  24.601  0.00  0.00    +0.025 A 
ATOM     28  C   UNL     1      -3.959  -0.399  24.751  0.00  0.00    +0.128 A 
ATOM     29  C   UNL     1      -2.875   1.748  24.528  0.00  0.00    +0.032 A 
ATOM     30  C   UNL     1      -5.200   0.236  24.828  0.00  0.00    +0.047 A 
ATOM     31  C   UNL     1      -4.115   2.383  24.605  0.00  0.00    +0.042 A 
ATOM     32  C   UNL     1      -5.277   1.627  24.755  0.00  0.00    +0.023 A 
BRANCH  28   5
ATOM      5  O   UNL     1      -3.914  -1.759  24.824  0.00  0.00    -0.495 OA
ATOM     33  C   UNL     1      -4.336  -2.484  23.671  0.00  0.00    +0.277 C 
ENDBRANCH  28   5
ENDBRANCH  25  27
BRANCH  15  14
ATOM     14  C   UNL     1       8.182  -0.544  22.462  0.00  0.00    +0.102 C 
BRANCH  14  13
ATOM     13  C   UNL     1       9.673  -0.253  22.705  0.00  0.00    -0.029 C 
ATOM     19  C   UNL     1      10.123   1.008  21.947  0.00  0.00    +0.011 C 
ATOM     20  C   UNL     1      10.548  -1.445  22.281  0.00  0.00    +0.011 C 
ATOM     21  C   UNL     1       9.867  -0.014  24.214  0.00  0.00    +0.011 C 
ENDBRANCH  14  13
ENDBRANCH  15  14
TORSDOF 4
ENDMDL
MODEL 9
REMARK VINA RESULT:      25.2      1.701      2.154
REMARK  Name = 26763567
REMARK  8 active torsions:
REMARK  status: ('A' for Active; 'I' for Inactive)
REMARK    1  A    between atoms: O_5  and  C_28
REMARK    2  A    between atoms: O_5  and  C_33
REMARK    3  A    between atoms: C_13  and  C_14
REMARK    4  A    between atoms: C_13  and  C_19
REMARK    5  A    between atoms: C_13  and  C_20
REMARK    6  A    between atoms: C_13  and  C_21
REMARK    7  A    between atoms: C_14  and  C_15
REMARK    8  A    between atoms: C_25  and  C_27
REMARK                            x       y       z     vdW  Elec       q    Type
REMARK                         _______ _______ _______ _____ _____    ______ ____
ROOT
ATOM      2  O   UNL     1      -4.075   4.358  26.752  0.00  0.00    -0.276 OA
ATOM      3  O   UNL     1      -1.449   4.391  23.801  0.00  0.00    -0.273 OA
ATOM      4  O   UNL     1      -0.018  -0.676  23.332  0.00  0.00    -0.270 OA
ATOM      6  N   UNL     1      -3.197   2.628  25.472  0.00  0.00    -0.298 N 
ATOM      7  N   UNL     1      -0.941   1.182  24.356  0.00  0.00    -0.283 N 
ATOM      8  N   UNL     1       0.541   3.467  23.198  0.00  0.00    -0.283 N 
ATOM      9  C   UNL     1      -0.738   2.449  25.045  0.00  0.00    +0.180 C 
ATOM     10  C   UNL     1      -1.856   2.764  26.046  0.00  0.00    +0.139 C 
ATOM     11  C   UNL     1      -3.380   1.584  24.460  0.00  0.00    +0.127 C 
ATOM     12  C   UNL     1      -2.258   0.556  24.477  0.00  0.00    +0.128 C 
ATOM     15  C   UNL     1      -4.219   3.477  25.901  0.00  0.00    +0.216 C 
ATOM     16  C   UNL     1      -0.612   3.500  23.953  0.00  0.00    +0.239 C 
ATOM     17  C   UNL     1       0.096   0.477  23.751  0.00  0.00    +0.249 C 
ATOM     18  C   UNL     1       1.409   1.149  23.565  0.00  0.00    +0.059 A 
ATOM     22  C   UNL     1       1.566   2.499  23.214  0.00  0.00    +0.046 A 
ATOM     23  C   UNL     1       2.535   0.304  23.574  0.00  0.00    +0.023 A 
ATOM     24  C   UNL     1       2.835   2.954  22.812  0.00  0.00    +0.024 A 
ATOM     25  C   UNL     1       3.795   0.785  23.220  0.00  0.00    -0.014 A 
ATOM     26  C   UNL     1       3.942   2.108  22.825  0.00  0.00    +0.010 A 
ATOM     34  H   UNL     1       0.716   4.293  22.631  0.00  0.00    +0.155 HD
ENDROOT
BRANCH  25  27
ATOM      1 CL   UNL     1       8.917   0.283  23.001  0.00  0.00    -0.084 Cl
ATOM     27  C   UNL     1       4.941  -0.098  23.241  0.00  0.00    +0.025 A 
ATOM     28  C   UNL     1       4.780  -1.476  23.374  0.00  0.00    +0.128 A 
ATOM     29  C   UNL     1       6.220   0.447  23.125  0.00  0.00    +0.032 A 
ATOM     30  C   UNL     1       5.898  -2.311  23.392  0.00  0.00    +0.047 A 
ATOM     31  C   UNL     1       7.338  -0.388  23.143  0.00  0.00    +0.042 A 
ATOM     32  C   UNL     1       7.177  -1.766  23.277  0.00  0.00    +0.023 A 
BRANCH  28   5
ATOM      5  O   UNL     1       3.542  -2.036  23.490  0.00  0.00    -0.495 OA
ATOM     33  C   UNL     1       3.181  -2.550  24.770  0.00  0.00    +0.277 C 
ENDBRANCH  28   5
ENDBRANCH  25  27
BRANCH  15  14
ATOM     14  C   UNL     1      -5.571   3.268  25.265  0.00  0.00    +0.102 C 
BRANCH  14  13
ATOM     13  C   UNL     1      -6.172   1.888  25.580  0.00  0.00    -0.029 C 
ATOM     19  C   UNL     1      -6.910   1.898  26.930  0.00  0.00    +0.011 C 
ATOM     20  C   UNL     1      -5.086   0.799  25.599  0.00  0.00    +0.011 C 
ATOM     21  C   UNL     1      -7.186   1.551  24.470  0.00  0.00    +0.011 C 
ENDBRANCH  14  13
ENDBRANCH  15  14
TORSDOF 4
ENDMDL
