MODEL 1
REMARK VINA RESULT:       6.4      0.000      0.000
REMARK  Name = 51136629
REMARK  11 active torsions:
REMARK  status: ('A' for Active; 'I' for Inactive)
REMARK    1  A    between atoms: O_4  and  C_22
REMARK    2  A    between atoms: O_7  and  C_28
REMARK    3  A    between atoms: O_7  and  C_36
REMARK    4  A    between atoms: O_8  and  C_29
REMARK    5  A    between atoms: O_8  and  C_37
REMARK    6  A    between atoms: N_11  and  C_30
REMARK    7  A    between atoms: C_12  and  C_17
REMARK    8  A    between atoms: C_13  and  C_18
REMARK    9  A    between atoms: C_17  and  C_19
REMARK   10  A    between atoms: C_18  and  C_22
REMARK   11  A    between atoms: C_33  and  C_38
REMARK                            x       y       z     vdW  Elec       q    Type
REMARK                         _______ _______ _______ _____ _____    ______ ____
ROOT
ATOM      5  O   UNL     1       0.449   4.269  23.301  0.00  0.00    -0.252 OA
ATOM      9  N   UNL     1      -1.097   3.993  24.999  0.00  0.00    -0.285 N 
ATOM     11  N   UNL     1       0.563   2.361  24.616  0.00  0.00    -0.269 N 
ATOM     12  C   UNL     1      -3.153   2.933  25.891  0.00  0.00    +0.016 C 
ATOM     13  C   UNL     1      -3.932   4.225  25.527  0.00  0.00    +0.006 C 
ATOM     14  C   UNL     1      -3.253   5.000  24.383  0.00  0.00    +0.023 C 
ATOM     15  C   UNL     1      -1.676   3.280  26.147  0.00  0.00    +0.113 C 
ATOM     16  C   UNL     1      -1.775   5.250  24.677  0.00  0.00    +0.109 C 
ATOM     20  C   UNL     1       0.021   3.589  24.237  0.00  0.00    +0.306 C 
ATOM     39  H   UNL     1       0.474   2.070  25.582  0.00  0.00    +0.156 HD
ENDROOT
BRANCH  11  30
ATOM     30  C   UNL     1       1.232   1.425  23.788  0.00  0.00    +0.035 A 
ATOM     31  C   UNL     1       2.619   1.296  23.858  0.00  0.00    +0.035 A 
ATOM     32  C   UNL     1       0.501   0.632  22.903  0.00  0.00    +0.023 A 
ATOM     33  C   UNL     1       3.276   0.375  23.043  0.00  0.00    +0.057 A 
ATOM     34  C   UNL     1       1.159  -0.289  22.088  0.00  0.00    +0.002 A 
ATOM     35  C   UNL     1       2.546  -0.418  22.158  0.00  0.00    +0.012 A 
BRANCH  33  38
ATOM      1  F   UNL     1       5.150  -0.894  23.771  0.00  0.00    -0.166 F 
ATOM      2  F   UNL     1       5.365   0.183  21.894  0.00  0.00    -0.166 F 
ATOM      3  F   UNL     1       5.372   1.269  23.772  0.00  0.00    -0.166 F 
ATOM     38  C   UNL     1       4.759   0.238  23.118  0.00  0.00    +0.417 C 
ENDBRANCH  33  38
ENDBRANCH  11  30
BRANCH  12  17
ATOM     17  C   UNL     1      -3.269   1.818  24.846  0.00  0.00    +0.061 C 
BRANCH  17  19
ATOM     10  N   UNL     1      -1.412   0.847  26.020  0.00  0.00    -0.287 NA
ATOM     19  C   UNL     1      -2.443   0.628  25.271  0.00  0.00    +0.044 C 
ATOM     21  C   UNL     1      -2.845  -0.724  24.809  0.00  0.00    +0.003 A 
ATOM     23  C   UNL     1      -1.876  -1.732  24.886  0.00  0.00    -0.033 A 
ATOM     24  C   UNL     1      -0.513  -1.383  25.406  0.00  0.00    +0.059 C 
ATOM     25  C   UNL     1      -0.645  -0.313  26.484  0.00  0.00    +0.146 C 
ATOM     26  C   UNL     1      -4.117  -1.002  24.304  0.00  0.00    +0.059 A 
ATOM     27  C   UNL     1      -2.179  -3.018  24.429  0.00  0.00    +0.053 A 
ATOM     28  C   UNL     1      -4.416  -2.293  23.865  0.00  0.00    +0.162 A 
ATOM     29  C   UNL     1      -3.449  -3.297  23.924  0.00  0.00    +0.162 A 
BRANCH  28   7
ATOM      7  O   UNL     1      -5.659  -2.561  23.376  0.00  0.00    -0.491 OA
ATOM     36  C   UNL     1      -5.853  -3.832  22.758  0.00  0.00    +0.277 C 
ENDBRANCH  28   7
BRANCH  29   8
ATOM      8  O   UNL     1      -3.733  -4.557  23.489  0.00  0.00    -0.491 OA
ATOM     37  C   UNL     1      -2.805  -5.154  22.584  0.00  0.00    +0.277 C 
ENDBRANCH  29   8
ENDBRANCH  17  19
ENDBRANCH  12  17
BRANCH  13  18
ATOM     18  C   UNL     1      -5.404   3.966  25.203  0.00  0.00    +0.124 C 
BRANCH  18  22
ATOM      6  O   UNL     1      -5.902   2.561  27.131  0.00  0.00    -0.251 OA
ATOM     22  C   UNL     1      -5.926   2.755  25.925  0.00  0.00    +0.305 C 
BRANCH  22   4
ATOM      4  O   UNL     1      -6.444   1.877  25.029  0.00  0.00    -0.481 OA
ATOM     40  H   UNL     1      -6.219   2.122  24.105  0.00  0.00    +0.295 HD
ENDBRANCH  22   4
ENDBRANCH  18  22
ENDBRANCH  13  18
TORSDOF 9
ENDMDL
MODEL 2
REMARK VINA RESULT:       9.5      4.261      8.036
REMARK  Name = 51136629
REMARK  11 active torsions:
REMARK  status: ('A' for Active; 'I' for Inactive)
REMARK    1  A    between atoms: O_4  and  C_22
REMARK    2  A    between atoms: O_7  and  C_28
REMARK    3  A    between atoms: O_7  and  C_36
REMARK    4  A    between atoms: O_8  and  C_29
REMARK    5  A    between atoms: O_8  and  C_37
REMARK    6  A    between atoms: N_11  and  C_30
REMARK    7  A    between atoms: C_12  and  C_17
REMARK    8  A    between atoms: C_13  and  C_18
REMARK    9  A    between atoms: C_17  and  C_19
REMARK   10  A    between atoms: C_18  and  C_22
REMARK   11  A    between atoms: C_33  and  C_38
REMARK                            x       y       z     vdW  Elec       q    Type
REMARK                         _______ _______ _______ _____ _____    ______ ____
ROOT
ATOM      5  O   UNL     1      -3.243  -2.189  23.477  0.00  0.00    -0.252 OA
ATOM      9  N   UNL     1      -1.096  -1.616  24.117  0.00  0.00    -0.285 N 
ATOM     11  N   UNL     1      -2.961  -0.631  25.174  0.00  0.00    -0.269 N 
ATOM     12  C   UNL     1       0.811  -0.032  24.091  0.00  0.00    +0.016 C 
ATOM     13  C   UNL     1       1.478  -0.910  22.999  0.00  0.00    +0.006 C 
ATOM     14  C   UNL     1       0.438  -1.715  22.198  0.00  0.00    +0.023 C 
ATOM     15  C   UNL     1      -0.119  -0.903  24.953  0.00  0.00    +0.113 C 
ATOM     16  C   UNL     1      -0.491  -2.502  23.121  0.00  0.00    +0.109 C 
ATOM     20  C   UNL     1      -2.502  -1.532  24.212  0.00  0.00    +0.306 C 
ATOM     39  H   UNL     1      -2.385  -0.458  25.988  0.00  0.00    +0.156 HD
ENDROOT
BRANCH  11  30
ATOM     30  C   UNL     1      -4.167   0.112  25.148  0.00  0.00    +0.035 A 
ATOM     31  C   UNL     1      -4.839   0.396  26.337  0.00  0.00    +0.035 A 
ATOM     32  C   UNL     1      -4.683   0.560  23.931  0.00  0.00    +0.023 A 
ATOM     33  C   UNL     1      -6.026   1.127  26.311  0.00  0.00    +0.057 A 
ATOM     34  C   UNL     1      -5.870   1.291  23.905  0.00  0.00    +0.002 A 
ATOM     35  C   UNL     1      -6.542   1.576  25.095  0.00  0.00    +0.012 A 
BRANCH  33  38
ATOM      1  F   UNL     1      -7.917   2.097  27.377  0.00  0.00    -0.166 F 
ATOM      2  F   UNL     1      -7.076   0.318  28.302  0.00  0.00    -0.166 F 
ATOM      3  F   UNL     1      -6.025   2.211  28.443  0.00  0.00    -0.166 F 
ATOM     38  C   UNL     1      -6.744   1.431  27.582  0.00  0.00    +0.417 C 
ENDBRANCH  33  38
ENDBRANCH  11  30
BRANCH  12  17
ATOM     17  C   UNL     1       0.052   1.181  23.541  0.00  0.00    +0.061 C 
BRANCH  17  19
ATOM     10  N   UNL     1       0.510   2.229  25.654  0.00  0.00    -0.287 NA
ATOM     19  C   UNL     1      -0.323   2.108  24.672  0.00  0.00    +0.044 C 
ATOM     21  C   UNL     1      -1.621   2.826  24.609  0.00  0.00    +0.003 A 
ATOM     23  C   UNL     1      -2.108   3.357  25.810  0.00  0.00    -0.033 A 
ATOM     24  C   UNL     1      -1.310   3.154  27.063  0.00  0.00    +0.059 C 
ATOM     25  C   UNL     1       0.175   3.175  26.722  0.00  0.00    +0.146 C 
ATOM     26  C   UNL     1      -2.347   2.969  23.425  0.00  0.00    +0.059 A 
ATOM     27  C   UNL     1      -3.344   4.009  25.825  0.00  0.00    +0.053 A 
ATOM     28  C   UNL     1      -3.573   3.637  23.447  0.00  0.00    +0.162 A 
ATOM     29  C   UNL     1      -4.072   4.152  24.643  0.00  0.00    +0.162 A 
BRANCH  28   7
ATOM      7  O   UNL     1      -4.278   3.775  22.289  0.00  0.00    -0.491 OA
ATOM     36  C   UNL     1      -3.710   3.204  21.112  0.00  0.00    +0.277 C 
ENDBRANCH  28   7
BRANCH  29   8
ATOM      8  O   UNL     1      -5.271   4.797  24.671  0.00  0.00    -0.491 OA
ATOM     37  C   UNL     1      -5.995   4.766  25.900  0.00  0.00    +0.277 C 
ENDBRANCH  29   8
ENDBRANCH  17  19
ENDBRANCH  12  17
BRANCH  13  18
ATOM     18  C   UNL     1       2.382  -0.112  22.059  0.00  0.00    +0.124 C 
BRANCH  18  22
ATOM      6  O   UNL     1       4.508  -0.206  23.245  0.00  0.00    -0.251 OA
ATOM     22  C   UNL     1       3.582   0.438  22.778  0.00  0.00    +0.305 C 
BRANCH  22   4
ATOM      4  O   UNL     1       3.496   1.792  22.841  0.00  0.00    -0.481 OA
ATOM     40  H   UNL     1       3.794   2.137  23.711  0.00  0.00    +0.295 HD
ENDBRANCH  22   4
ENDBRANCH  18  22
ENDBRANCH  13  18
TORSDOF 9
ENDMDL
MODEL 3
REMARK VINA RESULT:       9.7      3.549      6.710
REMARK  Name = 51136629
REMARK  11 active torsions:
REMARK  status: ('A' for Active; 'I' for Inactive)
REMARK    1  A    between atoms: O_4  and  C_22
REMARK    2  A    between atoms: O_7  and  C_28
REMARK    3  A    between atoms: O_7  and  C_36
REMARK    4  A    between atoms: O_8  and  C_29
REMARK    5  A    between atoms: O_8  and  C_37
REMARK    6  A    between atoms: N_11  and  C_30
REMARK    7  A    between atoms: C_12  and  C_17
REMARK    8  A    between atoms: C_13  and  C_18
REMARK    9  A    between atoms: C_17  and  C_19
REMARK   10  A    between atoms: C_18  and  C_22
REMARK   11  A    between atoms: C_33  and  C_38
REMARK                            x       y       z     vdW  Elec       q    Type
REMARK                         _______ _______ _______ _____ _____    ______ ____
ROOT
ATOM      5  O   UNL     1       0.927   1.398  25.893  0.00  0.00    -0.252 OA
ATOM      9  N   UNL     1       0.159  -0.075  24.284  0.00  0.00    -0.285 N 
ATOM     11  N   UNL     1      -0.280   2.234  24.096  0.00  0.00    -0.269 N 
ATOM     12  C   UNL     1      -1.682  -1.385  23.262  0.00  0.00    +0.016 C 
ATOM     13  C   UNL     1      -1.161  -2.637  24.017  0.00  0.00    +0.006 C 
ATOM     14  C   UNL     1      -0.378  -2.255  25.286  0.00  0.00    +0.023 C 
ATOM     15  C   UNL     1      -0.517  -0.410  23.022  0.00  0.00    +0.113 C 
ATOM     16  C   UNL     1       0.717  -1.234  24.983  0.00  0.00    +0.109 C 
ATOM     20  C   UNL     1       0.322   1.215  24.833  0.00  0.00    +0.306 C 
ATOM     39  H   UNL     1      -0.375   2.117  23.095  0.00  0.00    +0.156 HD
ENDROOT
BRANCH  11  30
ATOM     30  C   UNL     1      -0.810   3.452  24.589  0.00  0.00    +0.035 A 
ATOM     31  C   UNL     1      -1.755   3.439  25.616  0.00  0.00    +0.035 A 
ATOM     32  C   UNL     1      -0.386   4.667  24.048  0.00  0.00    +0.023 A 
ATOM     33  C   UNL     1      -2.276   4.638  26.101  0.00  0.00    +0.057 A 
ATOM     34  C   UNL     1      -0.908   5.866  24.532  0.00  0.00    +0.002 A 
ATOM     35  C   UNL     1      -1.852   5.853  25.559  0.00  0.00    +0.012 A 
BRANCH  33  38
ATOM      1  F   UNL     1      -3.931   5.819  27.333  0.00  0.00    -0.166 F 
ATOM      2  F   UNL     1      -4.271   3.693  27.023  0.00  0.00    -0.166 F 
ATOM      3  F   UNL     1      -2.754   4.353  28.427  0.00  0.00    -0.166 F 
ATOM     38  C   UNL     1      -3.286   4.624  27.198  0.00  0.00    +0.417 C 
ENDBRANCH  33  38
ENDBRANCH  11  30
BRANCH  12  17
ATOM     17  C   UNL     1      -2.844  -0.671  23.962  0.00  0.00    +0.061 C 
BRANCH  17  19
ATOM     10  N   UNL     1      -2.466   0.918  22.201  0.00  0.00    -0.287 NA
ATOM     19  C   UNL     1      -3.118   0.650  23.285  0.00  0.00    +0.044 C 
ATOM     21  C   UNL     1      -4.110   1.573  23.891  0.00  0.00    +0.003 A 
ATOM     23  C   UNL     1      -4.062   2.911  23.479  0.00  0.00    -0.033 A 
ATOM     24  C   UNL     1      -3.019   3.320  22.482  0.00  0.00    +0.059 C 
ATOM     25  C   UNL     1      -2.776   2.173  21.509  0.00  0.00    +0.146 C 
ATOM     26  C   UNL     1      -5.047   1.157  24.839  0.00  0.00    +0.059 A 
ATOM     27  C   UNL     1      -4.942   3.839  24.043  0.00  0.00    +0.053 A 
ATOM     28  C   UNL     1      -5.933   2.088  25.384  0.00  0.00    +0.162 A 
ATOM     29  C   UNL     1      -5.879   3.425  24.990  0.00  0.00    +0.162 A 
BRANCH  28   7
ATOM      7  O   UNL     1      -6.847   1.678  26.307  0.00  0.00    -0.491 OA
ATOM     36  C   UNL     1      -6.353   1.334  27.600  0.00  0.00    +0.277 C 
ENDBRANCH  28   7
BRANCH  29   8
ATOM      8  O   UNL     1      -6.736   4.339  25.525  0.00  0.00    -0.491 OA
ATOM     37  C   UNL     1      -6.415   5.716  25.336  0.00  0.00    +0.277 C 
ENDBRANCH  29   8
ENDBRANCH  17  19
ENDBRANCH  12  17
BRANCH  13  18
ATOM     18  C   UNL     1      -2.266  -3.640  24.347  0.00  0.00    +0.124 C 
BRANCH  18  22
ATOM      6  O   UNL     1      -3.638  -2.386  25.922  0.00  0.00    -0.251 OA
ATOM     22  C   UNL     1      -3.506  -2.955  24.850  0.00  0.00    +0.305 C 
BRANCH  22   4
ATOM      4  O   UNL     1      -4.492  -3.056  23.922  0.00  0.00    -0.481 OA
ATOM     40  H   UNL     1      -4.825  -2.175  23.644  0.00  0.00    +0.295 HD
ENDBRANCH  22   4
ENDBRANCH  18  22
ENDBRANCH  13  18
TORSDOF 9
ENDMDL
