MODEL 1
REMARK VINA RESULT:      -5.8      0.000      0.000
REMARK  Name = 75367647
REMARK  7 active torsions:
REMARK  status: ('A' for Active; 'I' for Inactive)
REMARK    1  A    between atoms: O_2  and  C_7
REMARK    2  A    between atoms: O_2  and  C_15
REMARK    3  A    between atoms: O_3  and  C_18
REMARK    4  A    between atoms: O_3  and  C_24
REMARK    5  A    between atoms: N_4  and  C_10
REMARK    6  A    between atoms: C_10  and  C_12
REMARK    7  A    between atoms: C_20  and  C_23
REMARK                            x       y       z     vdW  Elec       q    Type
REMARK                         _______ _______ _______ _____ _____    ______ ____
ROOT
ATOM      1  O   UNL     1      -3.802  -3.126  24.176  0.00  0.00    -0.375 OA
ATOM      4  N   UNL     1      -1.498  -1.054  24.528  0.00  0.00    -0.292 NA
ATOM      6  C   UNL     1      -2.581  -0.301  25.170  0.00  0.00    +0.131 C 
ATOM      7  C   UNL     1      -3.955  -0.980  25.286  0.00  0.00    +0.215 C 
ATOM      8  C   UNL     1      -1.503  -2.488  24.821  0.00  0.00    +0.113 C 
ATOM      9  C   UNL     1      -4.347  -1.815  24.075  0.00  0.00    +0.205 C 
ATOM     11  C   UNL     1      -2.424  -3.217  23.842  0.00  0.00    +0.175 C 
ENDROOT
BRANCH   7   2
ATOM      2  O   UNL     1      -4.941   0.039  25.458  0.00  0.00    -0.469 OA
BRANCH   2  15
ATOM      5  N   UNL     1      -3.938   1.317  23.804  0.00  0.00    -0.218 NA
ATOM     15  C   UNL     1      -4.635   1.277  24.962  0.00  0.00    +0.215 A 
ATOM     19  C   UNL     1      -5.044   2.401  25.660  0.00  0.00    +0.067 A 
ATOM     20  C   UNL     1      -3.640   2.545  23.325  0.00  0.00    +0.042 A 
ATOM     21  C   UNL     1      -4.718   3.647  25.136  0.00  0.00    +0.007 A 
ATOM     22  C   UNL     1      -4.004   3.730  23.947  0.00  0.00    +0.023 A 
ATOM     23  C   UNL     1      -2.869   2.596  22.048  0.00  0.00    +0.066 C 
ENDBRANCH   2  15
ENDBRANCH   7   2
BRANCH   4  10
ATOM     10  C   UNL     1      -0.205  -0.447  24.848  0.00  0.00    +0.119 C 
BRANCH  10  12
ATOM     12  C   UNL     1      -0.286   1.056  24.889  0.00  0.00    -0.033 A 
ATOM     13  C   UNL     1      -0.798   1.696  26.018  0.00  0.00    +0.008 A 
ATOM     14  C   UNL     1       0.150   1.808  23.797  0.00  0.00    +0.008 A 
ATOM     16  C   UNL     1      -0.873   3.089  26.054  0.00  0.00    +0.046 A 
ATOM     17  C   UNL     1       0.074   3.200  23.835  0.00  0.00    +0.046 A 
ATOM     18  C   UNL     1      -0.437   3.841  24.964  0.00  0.00    +0.120 A 
BRANCH  18   3
ATOM      3  O   UNL     1      -0.512   5.199  25.001  0.00  0.00    -0.495 OA
ATOM     24  C   UNL     1      -1.813   5.775  25.103  0.00  0.00    +0.277 C 
ENDBRANCH  18   3
ENDBRANCH  10  12
ENDBRANCH   4  10
TORSDOF 5
ENDMDL
MODEL 2
REMARK VINA RESULT:      -5.3      1.966      4.868
REMARK  Name = 75367647
REMARK  7 active torsions:
REMARK  status: ('A' for Active; 'I' for Inactive)
REMARK    1  A    between atoms: O_2  and  C_7
REMARK    2  A    between atoms: O_2  and  C_15
REMARK    3  A    between atoms: O_3  and  C_18
REMARK    4  A    between atoms: O_3  and  C_24
REMARK    5  A    between atoms: N_4  and  C_10
REMARK    6  A    between atoms: C_10  and  C_12
REMARK    7  A    between atoms: C_20  and  C_23
REMARK                            x       y       z     vdW  Elec       q    Type
REMARK                         _______ _______ _______ _____ _____    ______ ____
ROOT
ATOM      1  O   UNL     1      -6.417   3.147  25.360  0.00  0.00    -0.375 OA
ATOM      4  N   UNL     1      -3.317   3.470  25.488  0.00  0.00    -0.292 NA
ATOM      6  C   UNL     1      -3.394   2.005  25.515  0.00  0.00    +0.131 C 
ATOM      7  C   UNL     1      -4.785   1.359  25.410  0.00  0.00    +0.215 C 
ATOM      8  C   UNL     1      -4.276   4.109  24.585  0.00  0.00    +0.113 C 
ATOM      9  C   UNL     1      -5.881   2.100  26.163  0.00  0.00    +0.205 C 
ATOM     11  C   UNL     1      -5.611   4.315  25.302  0.00  0.00    +0.175 C 
ENDROOT
BRANCH   7   2
ATOM      2  O   UNL     1      -4.701   0.036  25.942  0.00  0.00    -0.469 OA
BRANCH   2  15
ATOM      5  N   UNL     1      -2.575  -0.869  25.759  0.00  0.00    -0.218 NA
ATOM     15  C   UNL     1      -3.848  -0.825  25.308  0.00  0.00    +0.215 A 
ATOM     19  C   UNL     1      -4.325  -1.590  24.256  0.00  0.00    +0.067 A 
ATOM     20  C   UNL     1      -1.742  -1.722  25.123  0.00  0.00    +0.042 A 
ATOM     21  C   UNL     1      -3.438  -2.456  23.626  0.00  0.00    +0.007 A 
ATOM     22  C   UNL     1      -2.120  -2.530  24.063  0.00  0.00    +0.023 A 
ATOM     23  C   UNL     1      -0.333  -1.773  25.616  0.00  0.00    +0.066 C 
ENDBRANCH   2  15
ENDBRANCH   7   2
BRANCH   4  10
ATOM     10  C   UNL     1      -1.947   3.896  25.202  0.00  0.00    +0.119 C 
BRANCH  10  12
ATOM     12  C   UNL     1      -1.143   2.803  24.550  0.00  0.00    -0.033 A 
ATOM     13  C   UNL     1      -1.691   2.067  23.499  0.00  0.00    +0.008 A 
ATOM     14  C   UNL     1       0.148   2.524  24.999  0.00  0.00    +0.008 A 
ATOM     16  C   UNL     1      -0.946   1.054  22.896  0.00  0.00    +0.046 A 
ATOM     17  C   UNL     1       0.892   1.510  24.396  0.00  0.00    +0.046 A 
ATOM     18  C   UNL     1       0.345   0.775  23.343  0.00  0.00    +0.120 A 
BRANCH  18   3
ATOM      3  O   UNL     1       1.071  -0.215  22.755  0.00  0.00    -0.495 OA
ATOM     24  C   UNL     1       2.441   0.064  22.477  0.00  0.00    +0.277 C 
ENDBRANCH  18   3
ENDBRANCH  10  12
ENDBRANCH   4  10
TORSDOF 5
ENDMDL
MODEL 3
REMARK VINA RESULT:      -5.1      2.092      4.406
REMARK  Name = 75367647
REMARK  7 active torsions:
REMARK  status: ('A' for Active; 'I' for Inactive)
REMARK    1  A    between atoms: O_2  and  C_7
REMARK    2  A    between atoms: O_2  and  C_15
REMARK    3  A    between atoms: O_3  and  C_18
REMARK    4  A    between atoms: O_3  and  C_24
REMARK    5  A    between atoms: N_4  and  C_10
REMARK    6  A    between atoms: C_10  and  C_12
REMARK    7  A    between atoms: C_20  and  C_23
REMARK                            x       y       z     vdW  Elec       q    Type
REMARK                         _______ _______ _______ _____ _____    ______ ____
ROOT
ATOM      1  O   UNL     1       1.477  -0.827  23.336  0.00  0.00    -0.375 OA
ATOM      4  N   UNL     1      -0.042   1.818  23.986  0.00  0.00    -0.292 NA
ATOM      6  C   UNL     1      -0.606   0.968  25.040  0.00  0.00    +0.131 C 
ATOM      7  C   UNL     1      -0.086  -0.475  25.151  0.00  0.00    +0.215 C 
ATOM      8  C   UNL     1       1.385   1.609  23.739  0.00  0.00    +0.113 C 
ATOM      9  C   UNL     1       0.176  -1.153  23.814  0.00  0.00    +0.205 C 
ATOM     11  C   UNL     1       1.581   0.462  22.748  0.00  0.00    +0.175 C 
ENDROOT
BRANCH   7   2
ATOM      2  O   UNL     1      -1.062  -1.246  25.854  0.00  0.00    -0.469 OA
BRANCH   2  15
ATOM      5  N   UNL     1      -3.153  -0.522  25.161  0.00  0.00    -0.218 NA
ATOM     15  C   UNL     1      -2.229  -1.508  25.189  0.00  0.00    +0.215 A 
ATOM     19  C   UNL     1      -2.399  -2.747  24.594  0.00  0.00    +0.067 A 
ATOM     20  C   UNL     1      -4.301  -0.793  24.503  0.00  0.00    +0.042 A 
ATOM     21  C   UNL     1      -3.594  -2.989  23.926  0.00  0.00    +0.007 A 
ATOM     22  C   UNL     1      -4.569  -1.999  23.874  0.00  0.00    +0.023 A 
ATOM     23  C   UNL     1      -5.327   0.292  24.471  0.00  0.00    +0.066 C 
ENDBRANCH   2  15
ENDBRANCH   7   2
BRANCH   4  10
ATOM     10  C   UNL     1      -0.338   3.224  24.262  0.00  0.00    +0.119 C 
BRANCH  10  12
ATOM     12  C   UNL     1      -1.775   3.427  24.663  0.00  0.00    -0.033 A 
ATOM     13  C   UNL     1      -2.081   3.991  25.902  0.00  0.00    +0.008 A 
ATOM     14  C   UNL     1      -2.801   3.050  23.796  0.00  0.00    +0.008 A 
ATOM     16  C   UNL     1      -3.413   4.179  26.272  0.00  0.00    +0.046 A 
ATOM     17  C   UNL     1      -4.132   3.237  24.168  0.00  0.00    +0.046 A 
ATOM     18  C   UNL     1      -4.438   3.802  25.406  0.00  0.00    +0.120 A 
BRANCH  18   3
ATOM      3  O   UNL     1      -5.737   3.984  25.769  0.00  0.00    -0.495 OA
ATOM     24  C   UNL     1      -6.477   2.821  26.136  0.00  0.00    +0.277 C 
ENDBRANCH  18   3
ENDBRANCH  10  12
ENDBRANCH   4  10
TORSDOF 5
ENDMDL
MODEL 4
REMARK VINA RESULT:      -4.5     18.123     20.099
REMARK  Name = 75367647
REMARK  7 active torsions:
REMARK  status: ('A' for Active; 'I' for Inactive)
REMARK    1  A    between atoms: O_2  and  C_7
REMARK    2  A    between atoms: O_2  and  C_15
REMARK    3  A    between atoms: O_3  and  C_18
REMARK    4  A    between atoms: O_3  and  C_24
REMARK    5  A    between atoms: N_4  and  C_10
REMARK    6  A    between atoms: C_10  and  C_12
REMARK    7  A    between atoms: C_20  and  C_23
REMARK                            x       y       z     vdW  Elec       q    Type
REMARK                         _______ _______ _______ _____ _____    ______ ____
ROOT
ATOM      1  O   UNL     1      15.923  -7.771  25.245  0.00  0.00    -0.375 OA
ATOM      4  N   UNL     1      16.494  -7.682  28.310  0.00  0.00    -0.292 NA
ATOM      6  C   UNL     1      16.806  -6.287  27.980  0.00  0.00    +0.131 C 
ATOM      7  C   UNL     1      16.606  -5.834  26.525  0.00  0.00    +0.215 C 
ATOM      8  C   UNL     1      15.334  -8.225  27.602  0.00  0.00    +0.113 C 
ATOM      9  C   UNL     1      17.000  -6.871  25.483  0.00  0.00    +0.205 C 
ATOM     11  C   UNL     1      15.762  -8.773  26.240  0.00  0.00    +0.175 C 
ENDROOT
BRANCH   7   2
ATOM      2  O   UNL     1      17.404  -4.668  26.310  0.00  0.00    -0.469 OA
BRANCH   2  15
ATOM      5  N   UNL     1      17.066  -2.534  25.471  0.00  0.00    -0.218 NA
ATOM     15  C   UNL     1      17.048  -3.869  25.259  0.00  0.00    +0.215 A 
ATOM     19  C   UNL     1      16.691  -4.457  24.057  0.00  0.00    +0.067 A 
ATOM     20  C   UNL     1      16.711  -1.755  24.425  0.00  0.00    +0.042 A 
ATOM     21  C   UNL     1      16.331  -3.623  23.004  0.00  0.00    +0.007 A 
ATOM     22  C   UNL     1      16.339  -2.245  23.183  0.00  0.00    +0.023 A 
ATOM     23  C   UNL     1      16.727  -0.279  24.654  0.00  0.00    +0.066 C 
ENDBRANCH   2  15
ENDBRANCH   7   2
BRANCH   4  10
ATOM     10  C   UNL     1      16.359  -7.838  29.758  0.00  0.00    +0.119 C 
BRANCH  10  12
ATOM     12  C   UNL     1      14.928  -7.702  30.207  0.00  0.00    -0.033 A 
ATOM     13  C   UNL     1      14.300  -6.457  30.167  0.00  0.00    +0.008 A 
ATOM     14  C   UNL     1      14.231  -8.821  30.664  0.00  0.00    +0.008 A 
ATOM     16  C   UNL     1      12.974  -6.332  30.583  0.00  0.00    +0.046 A 
ATOM     17  C   UNL     1      12.906  -8.695  31.080  0.00  0.00    +0.046 A 
ATOM     18  C   UNL     1      12.277  -7.450  31.039  0.00  0.00    +0.120 A 
BRANCH  18   3
ATOM      3  O   UNL     1      10.985  -7.327  31.446  0.00  0.00    -0.495 OA
ATOM     24  C   UNL     1      10.391  -8.462  32.073  0.00  0.00    +0.277 C 
ENDBRANCH  18   3
ENDBRANCH  10  12
ENDBRANCH   4  10
TORSDOF 5
ENDMDL
MODEL 5
REMARK VINA RESULT:      -4.3     18.425     20.828
REMARK  Name = 75367647
REMARK  7 active torsions:
REMARK  status: ('A' for Active; 'I' for Inactive)
REMARK    1  A    between atoms: O_2  and  C_7
REMARK    2  A    between atoms: O_2  and  C_15
REMARK    3  A    between atoms: O_3  and  C_18
REMARK    4  A    between atoms: O_3  and  C_24
REMARK    5  A    between atoms: N_4  and  C_10
REMARK    6  A    between atoms: C_10  and  C_12
REMARK    7  A    between atoms: C_20  and  C_23
REMARK                            x       y       z     vdW  Elec       q    Type
REMARK                         _______ _______ _______ _____ _____    ______ ____
ROOT
ATOM      1  O   UNL     1      16.335  -1.669  32.194  0.00  0.00    -0.375 OA
ATOM      4  N   UNL     1      16.803  -3.951  30.120  0.00  0.00    -0.292 NA
ATOM      6  C   UNL     1      15.630  -4.504  30.804  0.00  0.00    +0.131 C 
ATOM      7  C   UNL     1      14.986  -3.660  31.916  0.00  0.00    +0.215 C 
ATOM      8  C   UNL     1      16.752  -2.505  29.905  0.00  0.00    +0.113 C 
ATOM      9  C   UNL     1      15.979  -2.911  32.792  0.00  0.00    +0.205 C 
ATOM     11  C   UNL     1      17.282  -1.774  31.140  0.00  0.00    +0.175 C 
ENDROOT
BRANCH   7   2
ATOM      2  O   UNL     1      14.229  -4.535  32.755  0.00  0.00    -0.469 OA
BRANCH   2  15
ATOM      5  N   UNL     1      14.224  -6.844  32.559  0.00  0.00    -0.218 NA
ATOM     15  C   UNL     1      13.715  -5.656  32.164  0.00  0.00    +0.215 A 
ATOM     19  C   UNL     1      12.721  -5.517  31.209  0.00  0.00    +0.067 A 
ATOM     20  C   UNL     1      13.708  -7.944  31.967  0.00  0.00    +0.042 A 
ATOM     21  C   UNL     1      12.216  -6.671  30.622  0.00  0.00    +0.007 A 
ATOM     22  C   UNL     1      12.713  -7.913  31.003  0.00  0.00    +0.023 A 
ATOM     23  C   UNL     1      14.268  -9.260  32.398  0.00  0.00    +0.066 C 
ENDBRANCH   2  15
ENDBRANCH   7   2
BRANCH   4  10
ATOM     10  C   UNL     1      17.040  -4.671  28.867  0.00  0.00    +0.119 C 
BRANCH  10  12
ATOM     12  C   UNL     1      16.689  -6.130  28.983  0.00  0.00    -0.033 A 
ATOM     13  C   UNL     1      15.644  -6.658  28.224  0.00  0.00    +0.008 A 
ATOM     14  C   UNL     1      17.405  -6.953  29.852  0.00  0.00    +0.008 A 
ATOM     16  C   UNL     1      15.319  -8.010  28.332  0.00  0.00    +0.046 A 
ATOM     17  C   UNL     1      17.079  -8.305  29.960  0.00  0.00    +0.046 A 
ATOM     18  C   UNL     1      16.035  -8.833  29.199  0.00  0.00    +0.120 A 
BRANCH  18   3
ATOM      3  O   UNL     1      15.716 -10.152  29.305  0.00  0.00    -0.495 OA
ATOM     24  C   UNL     1      14.434 -10.550  28.825  0.00  0.00    +0.277 C 
ENDBRANCH  18   3
ENDBRANCH  10  12
ENDBRANCH   4  10
TORSDOF 5
ENDMDL
MODEL 6
REMARK VINA RESULT:      -4.0     18.405     20.532
REMARK  Name = 75367647
REMARK  7 active torsions:
REMARK  status: ('A' for Active; 'I' for Inactive)
REMARK    1  A    between atoms: O_2  and  C_7
REMARK    2  A    between atoms: O_2  and  C_15
REMARK    3  A    between atoms: O_3  and  C_18
REMARK    4  A    between atoms: O_3  and  C_24
REMARK    5  A    between atoms: N_4  and  C_10
REMARK    6  A    between atoms: C_10  and  C_12
REMARK    7  A    between atoms: C_20  and  C_23
REMARK                            x       y       z     vdW  Elec       q    Type
REMARK                         _______ _______ _______ _____ _____    ______ ____
ROOT
ATOM      1  O   UNL     1      14.919  -9.051  25.950  0.00  0.00    -0.375 OA
ATOM      4  N   UNL     1      16.843  -8.125  28.222  0.00  0.00    -0.292 NA
ATOM      6  C   UNL     1      17.279  -7.204  27.167  0.00  0.00    +0.131 C 
ATOM      7  C   UNL     1      16.540  -7.258  25.820  0.00  0.00    +0.215 C 
ATOM      8  C   UNL     1      15.398  -8.349  28.271  0.00  0.00    +0.113 C 
ATOM      9  C   UNL     1      16.158  -8.660  25.368  0.00  0.00    +0.205 C 
ATOM     11  C   UNL     1      15.011  -9.470  27.304  0.00  0.00    +0.175 C 
ENDROOT
BRANCH   7   2
ATOM      2  O   UNL     1      17.391  -6.689  24.823  0.00  0.00    -0.469 OA
BRANCH   2  15
ATOM      5  N   UNL     1      17.391  -4.490  25.556  0.00  0.00    -0.218 NA
ATOM     15  C   UNL     1      17.203  -5.364  24.542  0.00  0.00    +0.215 A 
ATOM     19  C   UNL     1      16.835  -4.995  23.259  0.00  0.00    +0.067 A 
ATOM     20  C   UNL     1      17.201  -3.184  25.266  0.00  0.00    +0.042 A 
ATOM     21  C   UNL     1      16.648  -3.642  22.999  0.00  0.00    +0.007 A 
ATOM     22  C   UNL     1      16.833  -2.712  24.016  0.00  0.00    +0.023 A 
ATOM     23  C   UNL     1      17.405  -2.214  26.383  0.00  0.00    +0.066 C 
ENDBRANCH   2  15
ENDBRANCH   7   2
BRANCH   4  10
ATOM     10  C   UNL     1      17.360  -7.684  29.519  0.00  0.00    +0.119 C 
BRANCH  10  12
ATOM     12  C   UNL     1      16.355  -6.853  30.271  0.00  0.00    -0.033 A 
ATOM     13  C   UNL     1      15.674  -7.400  31.359  0.00  0.00    +0.008 A 
ATOM     14  C   UNL     1      16.104  -5.539  29.879  0.00  0.00    +0.008 A 
ATOM     16  C   UNL     1      14.742  -6.629  32.055  0.00  0.00    +0.046 A 
ATOM     17  C   UNL     1      15.172  -4.769  30.575  0.00  0.00    +0.046 A 
ATOM     18  C   UNL     1      14.491  -5.315  31.664  0.00  0.00    +0.120 A 
BRANCH  18   3
ATOM      3  O   UNL     1      13.581  -4.565  32.343  0.00  0.00    -0.495 OA
ATOM     24  C   UNL     1      12.235  -5.037  32.361  0.00  0.00    +0.277 C 
ENDBRANCH  18   3
ENDBRANCH  10  12
ENDBRANCH   4  10
TORSDOF 5
ENDMDL
MODEL 7
REMARK VINA RESULT:      -3.8      1.502      6.350
REMARK  Name = 75367647
REMARK  7 active torsions:
REMARK  status: ('A' for Active; 'I' for Inactive)
REMARK    1  A    between atoms: O_2  and  C_7
REMARK    2  A    between atoms: O_2  and  C_15
REMARK    3  A    between atoms: O_3  and  C_18
REMARK    4  A    between atoms: O_3  and  C_24
REMARK    5  A    between atoms: N_4  and  C_10
REMARK    6  A    between atoms: C_10  and  C_12
REMARK    7  A    between atoms: C_20  and  C_23
REMARK                            x       y       z     vdW  Elec       q    Type
REMARK                         _______ _______ _______ _____ _____    ______ ____
ROOT
ATOM      1  O   UNL     1      -0.602   5.760  25.024  0.00  0.00    -0.375 OA
ATOM      4  N   UNL     1      -3.029   3.835  24.657  0.00  0.00    -0.292 NA
ATOM      6  C   UNL     1      -1.944   2.850  24.578  0.00  0.00    +0.131 C 
ATOM      7  C   UNL     1      -0.505   3.354  24.770  0.00  0.00    +0.215 C 
ATOM      8  C   UNL     1      -2.823   4.881  25.659  0.00  0.00    +0.113 C 
ATOM      9  C   UNL     1      -0.223   4.710  24.139  0.00  0.00    +0.205 C 
ATOM     11  C   UNL     1      -1.998   6.021  25.061  0.00  0.00    +0.175 C 
ENDROOT
BRANCH   7   2
ATOM      2  O   UNL     1       0.382   2.401  24.181  0.00  0.00    -0.469 OA
BRANCH   2  15
ATOM      5  N   UNL     1      -0.617   0.748  25.463  0.00  0.00    -0.218 NA
ATOM     15  C   UNL     1       0.054   1.082  24.338  0.00  0.00    +0.215 A 
ATOM     19  C   UNL     1       0.422   0.176  23.357  0.00  0.00    +0.067 A 
ATOM     20  C   UNL     1      -0.934  -0.558  25.607  0.00  0.00    +0.042 A 
ATOM     21  C   UNL     1       0.079  -1.158  23.541  0.00  0.00    +0.007 A 
ATOM     22  C   UNL     1      -0.613  -1.541  24.684  0.00  0.00    +0.023 A 
ATOM     23  C   UNL     1      -1.674  -0.934  26.848  0.00  0.00    +0.066 C 
ENDBRANCH   2  15
ENDBRANCH   7   2
BRANCH   4  10
ATOM     10  C   UNL     1      -4.311   3.155  24.846  0.00  0.00    +0.119 C 
BRANCH  10  12
ATOM     12  C   UNL     1      -4.223   1.688  24.520  0.00  0.00    -0.033 A 
ATOM     13  C   UNL     1      -3.587   1.271  23.351  0.00  0.00    +0.008 A 
ATOM     14  C   UNL     1      -4.780   0.747  25.386  0.00  0.00    +0.008 A 
ATOM     16  C   UNL     1      -3.506  -0.089  23.049  0.00  0.00    +0.046 A 
ATOM     17  C   UNL     1      -4.699  -0.612  25.083  0.00  0.00    +0.046 A 
ATOM     18  C   UNL     1      -4.062  -1.030  23.914  0.00  0.00    +0.120 A 
BRANCH  18   3
ATOM      3  O   UNL     1      -3.984  -2.356  23.618  0.00  0.00    -0.495 OA
ATOM     24  C   UNL     1      -3.525  -3.225  24.652  0.00  0.00    +0.277 C 
ENDBRANCH  18   3
ENDBRANCH  10  12
ENDBRANCH   4  10
TORSDOF 5
ENDMDL
MODEL 8
REMARK VINA RESULT:      -3.8      1.762      6.290
REMARK  Name = 75367647
REMARK  7 active torsions:
REMARK  status: ('A' for Active; 'I' for Inactive)
REMARK    1  A    between atoms: O_2  and  C_7
REMARK    2  A    between atoms: O_2  and  C_15
REMARK    3  A    between atoms: O_3  and  C_18
REMARK    4  A    between atoms: O_3  and  C_24
REMARK    5  A    between atoms: N_4  and  C_10
REMARK    6  A    between atoms: C_10  and  C_12
REMARK    7  A    between atoms: C_20  and  C_23
REMARK                            x       y       z     vdW  Elec       q    Type
REMARK                         _______ _______ _______ _____ _____    ______ ____
ROOT
ATOM      1  O   UNL     1      -1.264   5.401  25.010  0.00  0.00    -0.375 OA
ATOM      4  N   UNL     1      -3.220   2.973  25.110  0.00  0.00    -0.292 NA
ATOM      6  C   UNL     1      -2.024   2.324  25.658  0.00  0.00    +0.131 C 
ATOM      7  C   UNL     1      -0.767   3.187  25.855  0.00  0.00    +0.215 C 
ATOM      8  C   UNL     1      -3.428   4.346  25.573  0.00  0.00    +0.113 C 
ATOM      9  C   UNL     1      -0.528   4.210  24.754  0.00  0.00    +0.205 C 
ATOM     11  C   UNL     1      -2.646   5.319  24.689  0.00  0.00    +0.175 C 
ENDROOT
BRANCH   7   2
ATOM      2  O   UNL     1       0.365   2.318  25.905  0.00  0.00    -0.469 OA
BRANCH   2  15
ATOM      5  N   UNL     1       1.623   1.463  24.155  0.00  0.00    -0.218 NA
ATOM     15  C   UNL     1       0.487   1.413  24.887  0.00  0.00    +0.215 A 
ATOM     19  C   UNL     1      -0.541   0.513  24.660  0.00  0.00    +0.067 A 
ATOM     20  C   UNL     1       1.731   0.565  23.151  0.00  0.00    +0.042 A 
ATOM     21  C   UNL     1      -0.394  -0.395  23.618  0.00  0.00    +0.007 A 
ATOM     22  C   UNL     1       0.761  -0.376  22.844  0.00  0.00    +0.023 A 
ATOM     23  C   UNL     1       2.982   0.617  22.339  0.00  0.00    +0.066 C 
ENDBRANCH   2  15
ENDBRANCH   7   2
BRANCH   4  10
ATOM     10  C   UNL     1      -4.399   2.142  25.354  0.00  0.00    +0.119 C 
BRANCH  10  12
ATOM     12  C   UNL     1      -4.136   0.691  25.048  0.00  0.00    -0.033 A 
ATOM     13  C   UNL     1      -4.173   0.239  23.729  0.00  0.00    +0.008 A 
ATOM     14  C   UNL     1      -3.859  -0.200  26.084  0.00  0.00    +0.008 A 
ATOM     16  C   UNL     1      -3.930  -1.106  23.447  0.00  0.00    +0.046 A 
ATOM     17  C   UNL     1      -3.616  -1.545  25.801  0.00  0.00    +0.046 A 
ATOM     18  C   UNL     1      -3.652  -1.997  24.482  0.00  0.00    +0.120 A 
BRANCH  18   3
ATOM      3  O   UNL     1      -3.416  -3.309  24.206  0.00  0.00    -0.495 OA
ATOM     24  C   UNL     1      -2.118  -3.647  23.722  0.00  0.00    +0.277 C 
ENDBRANCH  18   3
ENDBRANCH  10  12
ENDBRANCH   4  10
TORSDOF 5
ENDMDL
MODEL 9
REMARK VINA RESULT:      -3.6      1.625      3.931
REMARK  Name = 75367647
REMARK  7 active torsions:
REMARK  status: ('A' for Active; 'I' for Inactive)
REMARK    1  A    between atoms: O_2  and  C_7
REMARK    2  A    between atoms: O_2  and  C_15
REMARK    3  A    between atoms: O_3  and  C_18
REMARK    4  A    between atoms: O_3  and  C_24
REMARK    5  A    between atoms: N_4  and  C_10
REMARK    6  A    between atoms: C_10  and  C_12
REMARK    7  A    between atoms: C_20  and  C_23
REMARK                            x       y       z     vdW  Elec       q    Type
REMARK                         _______ _______ _______ _____ _____    ______ ____
ROOT
ATOM      1  O   UNL     1      -3.159  -3.358  23.951  0.00  0.00    -0.375 OA
ATOM      4  N   UNL     1      -4.471  -0.638  24.732  0.00  0.00    -0.292 NA
ATOM      6  C   UNL     1      -3.061  -0.268  24.901  0.00  0.00    +0.131 C 
ATOM      7  C   UNL     1      -1.997  -1.323  24.559  0.00  0.00    +0.215 C 
ATOM      8  C   UNL     1      -4.736  -1.492  23.574  0.00  0.00    +0.113 C 
ATOM      9  C   UNL     1      -2.368  -2.743  24.962  0.00  0.00    +0.205 C 
ATOM     11  C   UNL     1      -4.523  -2.960  23.947  0.00  0.00    +0.175 C 
ENDROOT
BRANCH   7   2
ATOM      2  O   UNL     1      -0.790  -0.973  25.238  0.00  0.00    -0.469 OA
BRANCH   2  15
ATOM      5  N   UNL     1       0.888  -0.466  23.721  0.00  0.00    -0.218 NA
ATOM     15  C   UNL     1      -0.003  -0.028  24.638  0.00  0.00    +0.215 A 
ATOM     19  C   UNL     1      -0.157   1.301  24.997  0.00  0.00    +0.067 A 
ATOM     20  C   UNL     1       1.660   0.477  23.137  0.00  0.00    +0.042 A 
ATOM     21  C   UNL     1       0.656   2.241  24.375  0.00  0.00    +0.007 A 
ATOM     22  C   UNL     1       1.584   1.830  23.425  0.00  0.00    +0.023 A 
ATOM     23  C   UNL     1       2.648  -0.001  22.124  0.00  0.00    +0.066 C 
ENDBRANCH   2  15
ENDBRANCH   7   2
BRANCH   4  10
ATOM     10  C   UNL     1      -5.307   0.562  24.716  0.00  0.00    +0.119 C 
BRANCH  10  12
ATOM     12  C   UNL     1      -4.484   1.821  24.782  0.00  0.00    -0.033 A 
ATOM     13  C   UNL     1      -4.575   2.656  25.896  0.00  0.00    +0.008 A 
ATOM     14  C   UNL     1      -3.633   2.155  23.728  0.00  0.00    +0.008 A 
ATOM     16  C   UNL     1      -3.813   3.822  25.956  0.00  0.00    +0.046 A 
ATOM     17  C   UNL     1      -2.872   3.322  23.789  0.00  0.00    +0.046 A 
ATOM     18  C   UNL     1      -2.962   4.156  24.904  0.00  0.00    +0.120 A 
BRANCH  18   3
ATOM      3  O   UNL     1      -2.219   5.295  24.963  0.00  0.00    -0.495 OA
ATOM     24  C   UNL     1      -0.801   5.148  24.906  0.00  0.00    +0.277 C 
ENDBRANCH  18   3
ENDBRANCH  10  12
ENDBRANCH   4  10
TORSDOF 5
ENDMDL
MODEL 10
REMARK VINA RESULT:      -3.4      2.042      4.093
REMARK  Name = 75367647
REMARK  7 active torsions:
REMARK  status: ('A' for Active; 'I' for Inactive)
REMARK    1  A    between atoms: O_2  and  C_7
REMARK    2  A    between atoms: O_2  and  C_15
REMARK    3  A    between atoms: O_3  and  C_18
REMARK    4  A    between atoms: O_3  and  C_24
REMARK    5  A    between atoms: N_4  and  C_10
REMARK    6  A    between atoms: C_10  and  C_12
REMARK    7  A    between atoms: C_20  and  C_23
REMARK                            x       y       z     vdW  Elec       q    Type
REMARK                         _______ _______ _______ _____ _____    ______ ____
ROOT
ATOM      1  O   UNL     1      -0.643  -2.886  25.118  0.00  0.00    -0.375 OA
ATOM      4  N   UNL     1      -3.055  -1.001  24.523  0.00  0.00    -0.292 NA
ATOM      6  C   UNL     1      -1.969  -0.137  24.048  0.00  0.00    +0.131 C 
ATOM      7  C   UNL     1      -0.537  -0.695  24.095  0.00  0.00    +0.215 C 
ATOM      8  C   UNL     1      -2.887  -2.417  24.195  0.00  0.00    +0.113 C 
ATOM      9  C   UNL     1      -0.231  -1.539  25.324  0.00  0.00    +0.205 C 
ATOM     11  C   UNL     1      -2.039  -3.104  25.266  0.00  0.00    +0.175 C 
ENDROOT
BRANCH   7   2
ATOM      2  O   UNL     1       0.370   0.409  24.081  0.00  0.00    -0.469 OA
BRANCH   2  15
ATOM      5  N   UNL     1      -0.008   2.682  23.832  0.00  0.00    -0.218 NA
ATOM     15  C   UNL     1      -0.086   1.583  24.614  0.00  0.00    +0.215 A 
ATOM     19  C   UNL     1      -0.590   1.583  25.905  0.00  0.00    +0.067 A 
ATOM     20  C   UNL     1      -0.461   3.836  24.371  0.00  0.00    +0.042 A 
ATOM     21  C   UNL     1      -1.046   2.789  26.425  0.00  0.00    +0.007 A 
ATOM     22  C   UNL     1      -0.984   3.942  25.650  0.00  0.00    +0.023 A 
ATOM     23  C   UNL     1      -0.376   5.055  23.513  0.00  0.00    +0.066 C 
ENDBRANCH   2  15
ENDBRANCH   7   2
BRANCH   4  10
ATOM     10  C   UNL     1      -4.344  -0.492  24.053  0.00  0.00    +0.119 C 
BRANCH  10  12
ATOM     12  C   UNL     1      -4.600   0.914  24.529  0.00  0.00    -0.033 A 
ATOM     13  C   UNL     1      -3.910   1.981  23.953  0.00  0.00    +0.008 A 
ATOM     14  C   UNL     1      -5.524   1.148  25.547  0.00  0.00    +0.008 A 
ATOM     16  C   UNL     1      -4.147   3.283  24.395  0.00  0.00    +0.046 A 
ATOM     17  C   UNL     1      -5.760   2.450  25.988  0.00  0.00    +0.046 A 
ATOM     18  C   UNL     1      -5.071   3.518  25.412  0.00  0.00    +0.120 A 
BRANCH  18   3
ATOM      3  O   UNL     1      -5.301   4.788  25.843  0.00  0.00    -0.495 OA
ATOM     24  C   UNL     1      -6.480   5.432  25.366  0.00  0.00    +0.277 C 
ENDBRANCH  18   3
ENDBRANCH  10  12
ENDBRANCH   4  10
TORSDOF 5
ENDMDL
