MODEL 1
REMARK VINA RESULT:      -1.3      0.000      0.000
REMARK  Name = 40777131
REMARK  8 active torsions:
REMARK  status: ('A' for Active; 'I' for Inactive)
REMARK    1  A    between atoms: N_4  and  C_15
REMARK    2  A    between atoms: N_7  and  C_23
REMARK    3  A    between atoms: C_9  and  C_16
REMARK    4  A    between atoms: C_10  and  C_15
REMARK    5  A    between atoms: C_18  and  C_21
REMARK    6  A    between atoms: C_20  and  C_22
REMARK    7  A    between atoms: C_23  and  C_26
REMARK    8  A    between atoms: C_23  and  C_27
REMARK                            x       y       z     vdW  Elec       q    Type
REMARK                         _______ _______ _______ _____ _____    ______ ____
ROOT
ATOM      3  N   UNL     1      -2.721  -2.279  23.577  0.00  0.00    -0.297 NA
ATOM      8  C   UNL     1      -3.003  -1.463  26.035  0.00  0.00    +0.002 C 
ATOM      9  C   UNL     1      -4.031  -0.759  25.106  0.00  0.00    +0.055 C 
ATOM     10  C   UNL     1      -1.402  -1.876  24.134  0.00  0.00    +0.074 C 
ATOM     11  C   UNL     1      -1.576  -1.198  25.510  0.00  0.00    +0.024 C 
ATOM     12  C   UNL     1      -3.257  -2.981  25.909  0.00  0.00    +0.019 C 
ATOM     13  C   UNL     1      -3.670  -1.139  23.641  0.00  0.00    +0.094 C 
ATOM     14  C   UNL     1      -3.254  -3.374  24.422  0.00  0.00    +0.085 C 
ENDROOT
BRANCH   9  16
ATOM      5  N   UNL     1      -5.487   1.136  25.626  0.00  0.00    -0.237 NA
ATOM      6  N   UNL     1      -4.693   3.412  25.595  0.00  0.00    -0.232 NA
ATOM     16  C   UNL     1      -4.246   0.738  25.277  0.00  0.00    +0.050 A 
ATOM     17  C   UNL     1      -3.192   1.605  25.072  0.00  0.00    +0.052 A 
ATOM     18  C   UNL     1      -3.477   2.944  25.248  0.00  0.00    +0.076 A 
ATOM     20  C   UNL     1      -5.637   2.467  25.766  0.00  0.00    +0.127 A 
ATOM     22  C   UNL     1      -6.997   2.947  26.150  0.00  0.00    +0.088 C 
BRANCH  18  21
ATOM      1 BR   UNL     1      -0.477   1.956  25.751  0.00  0.00    -0.050 Br
ATOM     21  C   UNL     1      -2.460   3.952  25.062  0.00  0.00    +0.014 A 
ATOM     24  C   UNL     1      -1.105   3.678  25.244  0.00  0.00    +0.027 A 
ATOM     25  C   UNL     1      -2.869   5.232  24.690  0.00  0.00    +0.011 A 
ATOM     28  C   UNL     1      -0.157   4.683  25.053  0.00  0.00    +0.016 A 
ATOM     29  C   UNL     1      -1.922   6.239  24.500  0.00  0.00    +0.001 A 
ATOM     30  C   UNL     1      -0.567   5.965  24.681  0.00  0.00    +0.001 A 
ENDBRANCH  18  21
ENDBRANCH   9  16
BRANCH  10  15
ATOM     15  C   UNL     1      -0.603  -1.001  23.164  0.00  0.00    +0.124 C 
BRANCH  15   4
ATOM      2  O   UNL     1       1.687  -0.216  21.595  0.00  0.00    -0.253 OA
ATOM      4  N   UNL     1       0.738  -0.820  23.628  0.00  0.00    -0.298 N 
ATOM      7  N   UNL     1       2.995  -0.334  23.508  0.00  0.00    -0.297 N 
ATOM     19  C   UNL     1       1.800  -0.436  22.801  0.00  0.00    +0.300 C 
ATOM     31  H   UNL     1       0.933  -0.984  24.611  0.00  0.00    +0.150 HD
ATOM     32  H   UNL     1       2.971  -0.463  24.516  0.00  0.00    +0.150 HD
BRANCH   7  23
ATOM     23  C   UNL     1       4.241   0.047  22.888  0.00  0.00    +0.068 C 
ATOM     26  C   UNL     1       5.413  -0.297  23.800  0.00  0.00    +0.027 C 
ATOM     27  C   UNL     1       4.233   1.529  22.535  0.00  0.00    +0.027 C 
ENDBRANCH   7  23
ENDBRANCH  15   4
ENDBRANCH  10  15
TORSDOF 5
ENDMDL
MODEL 2
REMARK VINA RESULT:       0.4      1.603      5.183
REMARK  Name = 40777131
REMARK  8 active torsions:
REMARK  status: ('A' for Active; 'I' for Inactive)
REMARK    1  A    between atoms: N_4  and  C_15
REMARK    2  A    between atoms: N_7  and  C_23
REMARK    3  A    between atoms: C_9  and  C_16
REMARK    4  A    between atoms: C_10  and  C_15
REMARK    5  A    between atoms: C_18  and  C_21
REMARK    6  A    between atoms: C_20  and  C_22
REMARK    7  A    between atoms: C_23  and  C_26
REMARK    8  A    between atoms: C_23  and  C_27
REMARK                            x       y       z     vdW  Elec       q    Type
REMARK                         _______ _______ _______ _____ _____    ______ ____
ROOT
ATOM      3  N   UNL     1       0.190   3.583  25.228  0.00  0.00    -0.297 NA
ATOM      8  C   UNL     1      -2.088   4.368  24.240  0.00  0.00    +0.002 C 
ATOM      9  C   UNL     1      -2.315   3.496  25.507  0.00  0.00    +0.055 C 
ATOM     10  C   UNL     1       0.144   3.298  23.770  0.00  0.00    +0.074 C 
ATOM     11  C   UNL     1      -1.269   3.564  23.208  0.00  0.00    +0.024 C 
ATOM     12  C   UNL     1      -1.217   5.566  24.676  0.00  0.00    +0.019 C 
ATOM     13  C   UNL     1      -0.936   2.904  25.915  0.00  0.00    +0.094 C 
ATOM     14  C   UNL     1       0.031   5.045  25.411  0.00  0.00    +0.085 C 
ENDROOT
BRANCH   9  16
ATOM      5  N   UNL     1      -4.645   2.828  25.835  0.00  0.00    -0.237 NA
ATOM      6  N   UNL     1      -5.410   0.582  25.409  0.00  0.00    -0.232 NA
ATOM     16  C   UNL     1      -3.408   2.438  25.463  0.00  0.00    +0.050 A 
ATOM     17  C   UNL     1      -3.098   1.156  25.058  0.00  0.00    +0.052 A 
ATOM     18  C   UNL     1      -4.149   0.261  25.050  0.00  0.00    +0.076 A 
ATOM     20  C   UNL     1      -5.583   1.864  25.785  0.00  0.00    +0.127 A 
ATOM     22  C   UNL     1      -6.965   2.256  26.191  0.00  0.00    +0.088 C 
BRANCH  18  21
ATOM      1 BR   UNL     1      -1.414  -1.071  26.038  0.00  0.00    -0.050 Br
ATOM     21  C   UNL     1      -3.956  -1.112  24.648  0.00  0.00    +0.014 A 
ATOM     24  C   UNL     1      -2.813  -1.831  24.999  0.00  0.00    +0.027 A 
ATOM     25  C   UNL     1      -4.953  -1.716  23.883  0.00  0.00    +0.011 A 
ATOM     28  C   UNL     1      -2.669  -3.156  24.587  0.00  0.00    +0.016 A 
ATOM     29  C   UNL     1      -4.809  -3.041  23.470  0.00  0.00    +0.001 A 
ATOM     30  C   UNL     1      -3.668  -3.761  23.822  0.00  0.00    +0.001 A 
ENDBRANCH  18  21
ENDBRANCH   9  16
BRANCH  10  15
ATOM     15  C   UNL     1       0.634   1.887  23.436  0.00  0.00    +0.124 C 
BRANCH  15   4
ATOM      2  O   UNL     1       2.364  -0.258  22.580  0.00  0.00    -0.253 OA
ATOM      4  N   UNL     1       2.040   1.766  23.674  0.00  0.00    -0.298 N 
ATOM      7  N   UNL     1       4.149   0.822  23.596  0.00  0.00    -0.297 N 
ATOM     19  C   UNL     1       2.813   0.689  23.225  0.00  0.00    +0.300 C 
ATOM     31  H   UNL     1       2.502   2.498  24.205  0.00  0.00    +0.150 HD
ATOM     32  H   UNL     1       4.436   1.678  24.063  0.00  0.00    +0.150 HD
BRANCH   7  23
ATOM     23  C   UNL     1       5.156  -0.153  23.255  0.00  0.00    +0.068 C 
ATOM     26  C   UNL     1       4.832  -1.496  23.897  0.00  0.00    +0.027 C 
ATOM     27  C   UNL     1       6.539   0.337  23.670  0.00  0.00    +0.027 C 
ENDBRANCH   7  23
ENDBRANCH  15   4
ENDBRANCH  10  15
TORSDOF 5
ENDMDL
MODEL 3
REMARK VINA RESULT:       1.9      1.633      5.358
REMARK  Name = 40777131
REMARK  8 active torsions:
REMARK  status: ('A' for Active; 'I' for Inactive)
REMARK    1  A    between atoms: N_4  and  C_15
REMARK    2  A    between atoms: N_7  and  C_23
REMARK    3  A    between atoms: C_9  and  C_16
REMARK    4  A    between atoms: C_10  and  C_15
REMARK    5  A    between atoms: C_18  and  C_21
REMARK    6  A    between atoms: C_20  and  C_22
REMARK    7  A    between atoms: C_23  and  C_26
REMARK    8  A    between atoms: C_23  and  C_27
REMARK                            x       y       z     vdW  Elec       q    Type
REMARK                         _______ _______ _______ _____ _____    ______ ____
ROOT
ATOM      3  N   UNL     1      -1.147   4.932  25.712  0.00  0.00    -0.297 NA
ATOM      8  C   UNL     1      -2.601   4.088  23.723  0.00  0.00    +0.002 C 
ATOM      9  C   UNL     1      -3.362   3.913  25.067  0.00  0.00    +0.055 C 
ATOM     10  C   UNL     1      -0.354   4.008  24.858  0.00  0.00    +0.074 C 
ATOM     11  C   UNL     1      -1.254   3.339  23.798  0.00  0.00    +0.024 C 
ATOM     12  C   UNL     1      -2.277   5.592  23.589  0.00  0.00    +0.019 C 
ATOM     13  C   UNL     1      -2.363   4.244  26.212  0.00  0.00    +0.094 C 
ATOM     14  C   UNL     1      -1.574   6.075  24.870  0.00  0.00    +0.085 C 
ENDROOT
BRANCH   9  16
ATOM      5  N   UNL     1      -5.268   2.684  25.984  0.00  0.00    -0.237 NA
ATOM      6  N   UNL     1      -5.475   0.291  25.774  0.00  0.00    -0.232 NA
ATOM     16  C   UNL     1      -4.103   2.605  25.308  0.00  0.00    +0.050 A 
ATOM     17  C   UNL     1      -3.566   1.423  24.840  0.00  0.00    +0.052 A 
ATOM     18  C   UNL     1      -4.304   0.286  25.104  0.00  0.00    +0.076 A 
ATOM     20  C   UNL     1      -5.892   1.506  26.178  0.00  0.00    +0.127 A 
ATOM     22  C   UNL     1      -7.184   1.552  26.924  0.00  0.00    +0.088 C 
BRANCH  18  21
ATOM      1 BR   UNL     1      -1.417  -0.575  26.180  0.00  0.00    -0.050 Br
ATOM     21  C   UNL     1      -3.850  -1.013  24.669  0.00  0.00    +0.014 A 
ATOM     24  C   UNL     1      -2.613  -1.531  25.052  0.00  0.00    +0.027 A 
ATOM     25  C   UNL     1      -4.690  -1.755  23.839  0.00  0.00    +0.011 A 
ATOM     28  C   UNL     1      -2.216  -2.792  24.606  0.00  0.00    +0.016 A 
ATOM     29  C   UNL     1      -4.293  -3.015  23.392  0.00  0.00    +0.001 A 
ATOM     30  C   UNL     1      -3.056  -3.534  23.776  0.00  0.00    +0.001 A 
ENDBRANCH  18  21
ENDBRANCH   9  16
BRANCH  10  15
ATOM     15  C   UNL     1       0.422   2.977  25.680  0.00  0.00    +0.124 C 
BRANCH  15   4
ATOM      2  O   UNL     1       2.165   2.115  23.548  0.00  0.00    -0.253 OA
ATOM      4  N   UNL     1       0.424   1.703  25.030  0.00  0.00    -0.298 N 
ATOM      7  N   UNL     1       1.088   0.059  23.546  0.00  0.00    -0.297 N 
ATOM     19  C   UNL     1       1.305   1.358  23.998  0.00  0.00    +0.300 C 
ATOM     31  H   UNL     1      -0.256   1.010  25.329  0.00  0.00    +0.150 HD
ATOM     32  H   UNL     1       0.404  -0.513  24.033  0.00  0.00    +0.150 HD
BRANCH   7  23
ATOM     23  C   UNL     1       1.864  -0.541  22.487  0.00  0.00    +0.068 C 
ATOM     26  C   UNL     1       3.181   0.205  22.308  0.00  0.00    +0.027 C 
ATOM     27  C   UNL     1       1.066  -0.570  21.189  0.00  0.00    +0.027 C 
ENDBRANCH   7  23
ENDBRANCH  15   4
ENDBRANCH  10  15
TORSDOF 5
ENDMDL
