MODEL 1
REMARK VINA RESULT:      -4.9      0.000      0.000
REMARK  Name = 75536845
REMARK  7 active torsions:
REMARK  status: ('A' for Active; 'I' for Inactive)
REMARK    1  A    between atoms: O_2  and  C_8
REMARK    2  A    between atoms: O_3  and  C_11
REMARK    3  A    between atoms: N_5  and  C_7
REMARK    4  A    between atoms: N_6  and  C_13
REMARK    5  A    between atoms: C_9  and  C_11
REMARK    6  A    between atoms: C_13  and  C_14
REMARK    7  A    between atoms: C_13  and  C_15
REMARK                            x       y       z     vdW  Elec       q    Type
REMARK                         _______ _______ _______ _____ _____    ______ ____
ROOT
ATOM      1  O   UNL     1      -3.739   4.135  26.424  0.00  0.00    -0.370 OA
ATOM      7  C   UNL     1      -2.472   3.188  24.667  0.00  0.00    +0.131 C 
ATOM      8  C   UNL     1      -3.901   3.327  24.181  0.00  0.00    +0.168 C 
ATOM      9  C   UNL     1      -4.691   3.728  25.425  0.00  0.00    +0.174 C 
ATOM     10  C   UNL     1      -2.430   4.145  25.843  0.00  0.00    +0.185 C 
ENDROOT
BRANCH   7   5
ATOM      4  O   UNL     1      -3.152   0.755  23.274  0.00  0.00    -0.253 OA
ATOM      5  N   UNL     1      -2.167   1.840  25.074  0.00  0.00    -0.292 N 
ATOM      6  N   UNL     1      -2.116  -0.459  24.958  0.00  0.00    -0.297 N 
ATOM     12  C   UNL     1      -2.536   0.715  24.337  0.00  0.00    +0.300 C 
ATOM     16  H   UNL     1      -1.713   1.696  25.971  0.00  0.00    +0.151 HD
ATOM     18  H   UNL     1      -1.546  -0.384  25.795  0.00  0.00    +0.150 HD
BRANCH   6  13
ATOM     13  C   UNL     1      -2.368  -1.769  24.406  0.00  0.00    +0.068 C 
ATOM     14  C   UNL     1      -3.603  -2.386  25.050  0.00  0.00    +0.027 C 
ATOM     15  C   UNL     1      -1.149  -2.665  24.579  0.00  0.00    +0.027 C 
ENDBRANCH   6  13
ENDBRANCH   7   5
BRANCH   8   2
ATOM      2  O   UNL     1      -3.940   4.396  23.234  0.00  0.00    -0.387 OA
ATOM     17  H   UNL     1      -4.072   5.219  23.733  0.00  0.00    +0.210 HD
ENDBRANCH   8   2
BRANCH   9  11
ATOM     11  C   UNL     1      -5.519   2.590  26.004  0.00  0.00    +0.190 C 
BRANCH  11   3
ATOM      3  O   UNL     1      -5.531   1.518  25.075  0.00  0.00    -0.392 OA
ATOM     19  H   UNL     1      -5.348   1.897  24.198  0.00  0.00    +0.210 HD
ENDBRANCH  11   3
ENDBRANCH   9  11
TORSDOF 5
ENDMDL
MODEL 2
REMARK VINA RESULT:      -4.9      1.458      2.487
REMARK  Name = 75536845
REMARK  7 active torsions:
REMARK  status: ('A' for Active; 'I' for Inactive)
REMARK    1  A    between atoms: O_2  and  C_8
REMARK    2  A    between atoms: O_3  and  C_11
REMARK    3  A    between atoms: N_5  and  C_7
REMARK    4  A    between atoms: N_6  and  C_13
REMARK    5  A    between atoms: C_9  and  C_11
REMARK    6  A    between atoms: C_13  and  C_14
REMARK    7  A    between atoms: C_13  and  C_15
REMARK                            x       y       z     vdW  Elec       q    Type
REMARK                         _______ _______ _______ _____ _____    ______ ____
ROOT
ATOM      1  O   UNL     1      -3.192   4.445  24.348  0.00  0.00    -0.370 OA
ATOM      7  C   UNL     1      -4.572   2.532  24.195  0.00  0.00    +0.131 C 
ATOM      8  C   UNL     1      -4.577   2.988  25.640  0.00  0.00    +0.168 C 
ATOM      9  C   UNL     1      -3.504   4.073  25.703  0.00  0.00    +0.174 C 
ATOM     10  C   UNL     1      -4.090   3.769  23.461  0.00  0.00    +0.185 C 
ENDROOT
BRANCH   7   5
ATOM      4  O   UNL     1      -4.578   0.016  25.605  0.00  0.00    -0.253 OA
ATOM      5  N   UNL     1      -3.687   1.415  23.982  0.00  0.00    -0.292 N 
ATOM      6  N   UNL     1      -2.790  -0.680  24.302  0.00  0.00    -0.297 N 
ATOM     12  C   UNL     1      -3.760   0.230  24.713  0.00  0.00    +0.300 C 
ATOM     16  H   UNL     1      -2.935   1.515  23.307  0.00  0.00    +0.151 HD
ATOM     18  H   UNL     1      -2.209  -0.440  23.505  0.00  0.00    +0.150 HD
BRANCH   6  13
ATOM     13  C   UNL     1      -2.643  -1.989  24.896  0.00  0.00    +0.068 C 
ATOM     14  C   UNL     1      -1.212  -2.485  24.736  0.00  0.00    +0.027 C 
ATOM     15  C   UNL     1      -3.638  -2.966  24.285  0.00  0.00    +0.027 C 
ENDBRANCH   6  13
ENDBRANCH   7   5
BRANCH   8   2
ATOM      2  O   UNL     1      -5.852   3.572  25.911  0.00  0.00    -0.387 OA
ATOM     17  H   UNL     1      -6.046   3.418  26.851  0.00  0.00    +0.210 HD
ENDBRANCH   8   2
BRANCH   9  11
ATOM     11  C   UNL     1      -2.217   3.607  26.368  0.00  0.00    +0.190 C 
BRANCH  11   3
ATOM      3  O   UNL     1      -1.387   3.009  25.384  0.00  0.00    -0.392 OA
ATOM     19  H   UNL     1      -0.993   3.731  24.866  0.00  0.00    +0.210 HD
ENDBRANCH  11   3
ENDBRANCH   9  11
TORSDOF 5
ENDMDL
MODEL 3
REMARK VINA RESULT:      -4.9     17.210     18.372
REMARK  Name = 75536845
REMARK  7 active torsions:
REMARK  status: ('A' for Active; 'I' for Inactive)
REMARK    1  A    between atoms: O_2  and  C_8
REMARK    2  A    between atoms: O_3  and  C_11
REMARK    3  A    between atoms: N_5  and  C_7
REMARK    4  A    between atoms: N_6  and  C_13
REMARK    5  A    between atoms: C_9  and  C_11
REMARK    6  A    between atoms: C_13  and  C_14
REMARK    7  A    between atoms: C_13  and  C_15
REMARK                            x       y       z     vdW  Elec       q    Type
REMARK                         _______ _______ _______ _____ _____    ______ ____
ROOT
ATOM      1  O   UNL     1      10.381   7.808  22.614  0.00  0.00    -0.370 OA
ATOM      7  C   UNL     1      12.083   8.951  21.437  0.00  0.00    +0.131 C 
ATOM      8  C   UNL     1      11.433   7.977  20.475  0.00  0.00    +0.168 C 
ATOM      9  C   UNL     1      10.512   7.130  21.351  0.00  0.00    +0.174 C 
ATOM     10  C   UNL     1      11.042   9.076  22.533  0.00  0.00    +0.185 C 
ENDROOT
BRANCH   7   5
ATOM      4  O   UNL     1      14.611   8.827  20.052  0.00  0.00    -0.253 OA
ATOM      5  N   UNL     1      13.333   8.451  21.953  0.00  0.00    -0.292 N 
ATOM      6  N   UNL     1      15.566   7.895  21.950  0.00  0.00    -0.297 N 
ATOM     12  C   UNL     1      14.513   8.427  21.211  0.00  0.00    +0.300 C 
ATOM     16  H   UNL     1      13.344   8.040  22.882  0.00  0.00    +0.151 HD
ATOM     18  H   UNL     1      15.403   7.664  22.925  0.00  0.00    +0.150 HD
BRANCH   6  13
ATOM     13  C   UNL     1      16.902   7.755  21.419  0.00  0.00    +0.068 C 
ATOM     14  C   UNL     1      17.405   9.093  20.892  0.00  0.00    +0.027 C 
ATOM     15  C   UNL     1      16.936   6.686  20.335  0.00  0.00    +0.027 C 
ENDBRANCH   6  13
ENDBRANCH   7   5
BRANCH   8   2
ATOM      2  O   UNL     1      10.644   8.731  19.554  0.00  0.00    -0.387 OA
ATOM     17  H   UNL     1      11.182   9.487  19.263  0.00  0.00    +0.210 HD
ENDBRANCH   8   2
BRANCH   9  11
ATOM     11  C   UNL     1      11.057   5.736  21.623  0.00  0.00    +0.190 C 
BRANCH  11   3
ATOM      3  O   UNL     1      12.425   5.701  21.251  0.00  0.00    -0.392 OA
ATOM     19  H   UNL     1      12.806   4.893  21.634  0.00  0.00    +0.210 HD
ENDBRANCH  11   3
ENDBRANCH   9  11
TORSDOF 5
ENDMDL
MODEL 4
REMARK VINA RESULT:      -4.7      1.859      3.001
REMARK  Name = 75536845
REMARK  7 active torsions:
REMARK  status: ('A' for Active; 'I' for Inactive)
REMARK    1  A    between atoms: O_2  and  C_8
REMARK    2  A    between atoms: O_3  and  C_11
REMARK    3  A    between atoms: N_5  and  C_7
REMARK    4  A    between atoms: N_6  and  C_13
REMARK    5  A    between atoms: C_9  and  C_11
REMARK    6  A    between atoms: C_13  and  C_14
REMARK    7  A    between atoms: C_13  and  C_15
REMARK                            x       y       z     vdW  Elec       q    Type
REMARK                         _______ _______ _______ _____ _____    ______ ____
ROOT
ATOM      1  O   UNL     1      -0.805   2.766  24.028  0.00  0.00    -0.370 OA
ATOM      7  C   UNL     1      -3.009   2.790  24.882  0.00  0.00    +0.131 C 
ATOM      8  C   UNL     1      -2.159   3.664  25.781  0.00  0.00    +0.168 C 
ATOM      9  C   UNL     1      -0.727   3.423  25.306  0.00  0.00    +0.174 C 
ATOM     10  C   UNL     1      -2.176   2.708  23.618  0.00  0.00    +0.185 C 
ENDROOT
BRANCH   7   5
ATOM      4  O   UNL     1      -2.934   0.256  23.504  0.00  0.00    -0.253 OA
ATOM      5  N   UNL     1      -3.233   1.484  25.451  0.00  0.00    -0.292 N 
ATOM      6  N   UNL     1      -3.433  -0.808  25.504  0.00  0.00    -0.297 N 
ATOM     12  C   UNL     1      -3.178   0.306  24.708  0.00  0.00    +0.300 C 
ATOM     16  H   UNL     1      -3.503   1.422  26.428  0.00  0.00    +0.151 HD
ATOM     18  H   UNL     1      -3.548  -0.671  26.504  0.00  0.00    +0.150 HD
BRANCH   6  13
ATOM     13  C   UNL     1      -3.438  -2.156  24.985  0.00  0.00    +0.068 C 
ATOM     14  C   UNL     1      -2.027  -2.578  24.595  0.00  0.00    +0.027 C 
ATOM     15  C   UNL     1      -4.395  -2.270  23.806  0.00  0.00    +0.027 C 
ENDBRANCH   6  13
ENDBRANCH   7   5
BRANCH   8   2
ATOM      2  O   UNL     1      -2.514   5.025  25.532  0.00  0.00    -0.387 OA
ATOM     17  H   UNL     1      -1.975   5.332  24.784  0.00  0.00    +0.210 HD
ENDBRANCH   8   2
BRANCH   9  11
ATOM     11  C   UNL     1       0.074   2.530  26.243  0.00  0.00    +0.190 C 
BRANCH  11   3
ATOM      3  O   UNL     1      -0.074   1.183  25.824  0.00  0.00    -0.392 OA
ATOM     19  H   UNL     1      -0.588   0.725  26.510  0.00  0.00    +0.210 HD
ENDBRANCH  11   3
ENDBRANCH   9  11
TORSDOF 5
ENDMDL
MODEL 5
REMARK VINA RESULT:      -4.4      2.045      5.448
REMARK  Name = 75536845
REMARK  7 active torsions:
REMARK  status: ('A' for Active; 'I' for Inactive)
REMARK    1  A    between atoms: O_2  and  C_8
REMARK    2  A    between atoms: O_3  and  C_11
REMARK    3  A    between atoms: N_5  and  C_7
REMARK    4  A    between atoms: N_6  and  C_13
REMARK    5  A    between atoms: C_9  and  C_11
REMARK    6  A    between atoms: C_13  and  C_14
REMARK    7  A    between atoms: C_13  and  C_15
REMARK                            x       y       z     vdW  Elec       q    Type
REMARK                         _______ _______ _______ _____ _____    ______ ____
ROOT
ATOM      1  O   UNL     1      -2.982  -1.736  26.140  0.00  0.00    -0.370 OA
ATOM      7  C   UNL     1      -3.895  -0.328  24.475  0.00  0.00    +0.131 C 
ATOM      8  C   UNL     1      -3.355  -1.565  23.785  0.00  0.00    +0.168 C 
ATOM      9  C   UNL     1      -2.593  -2.311  24.879  0.00  0.00    +0.174 C 
ATOM     10  C   UNL     1      -4.029  -0.786  25.914  0.00  0.00    +0.185 C 
ENDROOT
BRANCH   7   5
ATOM      4  O   UNL     1      -4.371   2.380  25.346  0.00  0.00    -0.253 OA
ATOM      5  N   UNL     1      -2.996   0.792  24.359  0.00  0.00    -0.292 N 
ATOM      6  N   UNL     1      -2.262   2.963  24.574  0.00  0.00    -0.297 N 
ATOM     12  C   UNL     1      -3.308   2.074  24.809  0.00  0.00    +0.300 C 
ATOM     16  H   UNL     1      -2.114   0.657  23.874  0.00  0.00    +0.151 HD
ATOM     18  H   UNL     1      -1.395   2.598  24.194  0.00  0.00    +0.150 HD
BRANCH   6  13
ATOM     13  C   UNL     1      -2.324   4.359  24.942  0.00  0.00    +0.068 C 
ATOM     14  C   UNL     1      -0.941   4.991  24.853  0.00  0.00    +0.027 C 
ATOM     15  C   UNL     1      -2.915   4.517  26.336  0.00  0.00    +0.027 C 
ENDBRANCH   6  13
ENDBRANCH   7   5
BRANCH   8   2
ATOM      2  O   UNL     1      -4.469  -2.355  23.367  0.00  0.00    -0.387 OA
ATOM     17  H   UNL     1      -4.828  -1.945  22.561  0.00  0.00    +0.210 HD
ENDBRANCH   8   2
BRANCH   9  11
ATOM     11  C   UNL     1      -1.081  -2.181  24.753  0.00  0.00    +0.190 C 
BRANCH  11   3
ATOM      3  O   UNL     1      -0.651  -1.089  25.548  0.00  0.00    -0.392 OA
ATOM     19  H   UNL     1      -0.500  -0.339  24.948  0.00  0.00    +0.210 HD
ENDBRANCH  11   3
ENDBRANCH   9  11
TORSDOF 5
ENDMDL
MODEL 6
REMARK VINA RESULT:      -4.2      2.529      5.675
REMARK  Name = 75536845
REMARK  7 active torsions:
REMARK  status: ('A' for Active; 'I' for Inactive)
REMARK    1  A    between atoms: O_2  and  C_8
REMARK    2  A    between atoms: O_3  and  C_11
REMARK    3  A    between atoms: N_5  and  C_7
REMARK    4  A    between atoms: N_6  and  C_13
REMARK    5  A    between atoms: C_9  and  C_11
REMARK    6  A    between atoms: C_13  and  C_14
REMARK    7  A    between atoms: C_13  and  C_15
REMARK                            x       y       z     vdW  Elec       q    Type
REMARK                         _______ _______ _______ _____ _____    ______ ____
ROOT
ATOM      1  O   UNL     1      -1.326  -1.974  23.346  0.00  0.00    -0.370 OA
ATOM      7  C   UNL     1      -0.309  -0.274  24.636  0.00  0.00    +0.131 C 
ATOM      8  C   UNL     1      -0.796  -1.346  25.590  0.00  0.00    +0.168 C 
ATOM      9  C   UNL     1      -1.627  -2.286  24.718  0.00  0.00    +0.174 C 
ATOM     10  C   UNL     1      -0.271  -1.007  23.309  0.00  0.00    +0.185 C 
ENDROOT
BRANCH   7   5
ATOM      4  O   UNL     1      -0.195   2.105  26.263  0.00  0.00    -0.253 OA
ATOM      5  N   UNL     1      -1.204   0.855  24.588  0.00  0.00    -0.292 N 
ATOM      6  N   UNL     1      -2.070   2.909  25.160  0.00  0.00    -0.297 N 
ATOM     12  C   UNL     1      -1.076   1.969  25.416  0.00  0.00    +0.300 C 
ATOM     16  H   UNL     1      -2.004   0.813  23.963  0.00  0.00    +0.151 HD
ATOM     18  H   UNL     1      -2.707   2.740  24.387  0.00  0.00    +0.150 HD
BRANCH   6  13
ATOM     13  C   UNL     1      -2.170   4.158  25.877  0.00  0.00    +0.068 C 
ATOM     14  C   UNL     1      -3.626   4.467  26.204  0.00  0.00    +0.027 C 
ATOM     15  C   UNL     1      -1.533   5.287  25.077  0.00  0.00    +0.027 C 
ENDBRANCH   6  13
ENDBRANCH   7   5
BRANCH   8   2
ATOM      2  O   UNL     1       0.348  -2.048  26.080  0.00  0.00    -0.387 OA
ATOM     17  H   UNL     1       0.288  -2.962  25.754  0.00  0.00    +0.210 HD
ENDBRANCH   8   2
BRANCH   9  11
ATOM     11  C   UNL     1      -3.126  -2.121  24.918  0.00  0.00    +0.190 C 
BRANCH  11   3
ATOM      3  O   UNL     1      -3.347  -1.128  25.906  0.00  0.00    -0.392 OA
ATOM     19  H   UNL     1      -3.900  -0.439  25.501  0.00  0.00    +0.210 HD
ENDBRANCH  11   3
ENDBRANCH   9  11
TORSDOF 5
ENDMDL
MODEL 7
REMARK VINA RESULT:      -4.0      2.307      4.801
REMARK  Name = 75536845
REMARK  7 active torsions:
REMARK  status: ('A' for Active; 'I' for Inactive)
REMARK    1  A    between atoms: O_2  and  C_8
REMARK    2  A    between atoms: O_3  and  C_11
REMARK    3  A    between atoms: N_5  and  C_7
REMARK    4  A    between atoms: N_6  and  C_13
REMARK    5  A    between atoms: C_9  and  C_11
REMARK    6  A    between atoms: C_13  and  C_14
REMARK    7  A    between atoms: C_13  and  C_15
REMARK                            x       y       z     vdW  Elec       q    Type
REMARK                         _______ _______ _______ _____ _____    ______ ____
ROOT
ATOM      1  O   UNL     1      -0.272  -0.461  23.883  0.00  0.00    -0.370 OA
ATOM      7  C   UNL     1      -0.936   1.805  23.994  0.00  0.00    +0.131 C 
ATOM      8  C   UNL     1      -0.599   1.355  25.401  0.00  0.00    +0.168 C 
ATOM      9  C   UNL     1      -0.400  -0.154  25.283  0.00  0.00    +0.174 C 
ATOM     10  C   UNL     1      -0.240   0.763  23.139  0.00  0.00    +0.185 C 
ENDROOT
BRANCH   7   5
ATOM      4  O   UNL     1      -2.988   2.791  25.766  0.00  0.00    -0.253 OA
ATOM      5  N   UNL     1      -2.357   1.820  23.754  0.00  0.00    -0.292 N 
ATOM      6  N   UNL     1      -4.584   2.209  24.185  0.00  0.00    -0.297 N 
ATOM     12  C   UNL     1      -3.283   2.316  24.670  0.00  0.00    +0.300 C 
ATOM     16  H   UNL     1      -2.709   1.393  22.902  0.00  0.00    +0.151 HD
ATOM     18  H   UNL     1      -4.719   1.874  23.236  0.00  0.00    +0.150 HD
BRANCH   6  13
ATOM     13  C   UNL     1      -5.737   2.650  24.935  0.00  0.00    +0.068 C 
ATOM     14  C   UNL     1      -5.493   4.037  25.515  0.00  0.00    +0.027 C 
ATOM     15  C   UNL     1      -6.077   1.646  26.029  0.00  0.00    +0.027 C 
ENDBRANCH   6  13
ENDBRANCH   7   5
BRANCH   8   2
ATOM      2  O   UNL     1       0.638   1.965  25.772  0.00  0.00    -0.387 OA
ATOM     17  H   UNL     1       1.232   1.904  25.005  0.00  0.00    +0.210 HD
ENDBRANCH   8   2
BRANCH   9  11
ATOM     11  C   UNL     1      -1.569  -0.959  25.832  0.00  0.00    +0.190 C 
BRANCH  11   3
ATOM      3  O   UNL     1      -2.521  -1.143  24.797  0.00  0.00    -0.392 OA
ATOM     19  H   UNL     1      -2.649  -2.101  24.693  0.00  0.00    +0.210 HD
ENDBRANCH  11   3
ENDBRANCH   9  11
TORSDOF 5
ENDMDL
MODEL 8
REMARK VINA RESULT:      -3.7     15.483     17.395
REMARK  Name = 75536845
REMARK  7 active torsions:
REMARK  status: ('A' for Active; 'I' for Inactive)
REMARK    1  A    between atoms: O_2  and  C_8
REMARK    2  A    between atoms: O_3  and  C_11
REMARK    3  A    between atoms: N_5  and  C_7
REMARK    4  A    between atoms: N_6  and  C_13
REMARK    5  A    between atoms: C_9  and  C_11
REMARK    6  A    between atoms: C_13  and  C_14
REMARK    7  A    between atoms: C_13  and  C_15
REMARK                            x       y       z     vdW  Elec       q    Type
REMARK                         _______ _______ _______ _____ _____    ______ ____
ROOT
ATOM      1  O   UNL     1      -4.931 -10.648  10.000  0.00  0.00    -0.370 OA
ATOM      7  C   UNL     1      -6.279  -9.039  11.087  0.00  0.00    +0.131 C 
ATOM      8  C   UNL     1      -5.262  -8.294  10.245  0.00  0.00    +0.168 C 
ATOM      9  C   UNL     1      -4.301  -9.377   9.760  0.00  0.00    +0.174 C 
ATOM     10  C   UNL     1      -6.265 -10.424  10.471  0.00  0.00    +0.185 C 
ENDROOT
BRANCH   7   5
ATOM      4  O   UNL     1      -7.663 -10.401  13.221  0.00  0.00    -0.253 OA
ATOM      5  N   UNL     1      -5.907  -9.077  12.479  0.00  0.00    -0.292 N 
ATOM      6  N   UNL     1      -6.055  -9.635  14.707  0.00  0.00    -0.297 N 
ATOM     12  C   UNL     1      -6.637  -9.763  13.448  0.00  0.00    +0.300 C 
ATOM     16  H   UNL     1      -5.106  -8.529  12.781  0.00  0.00    +0.151 HD
ATOM     18  H   UNL     1      -5.165  -9.151  14.780  0.00  0.00    +0.150 HD
BRANCH   6  13
ATOM     13  C   UNL     1      -6.610 -10.247  15.891  0.00  0.00    +0.068 C 
ATOM     14  C   UNL     1      -7.575  -9.291  16.579  0.00  0.00    +0.027 C 
ATOM     15  C   UNL     1      -5.498 -10.684  16.837  0.00  0.00    +0.027 C 
ENDBRANCH   6  13
ENDBRANCH   7   5
BRANCH   8   2
ATOM      2  O   UNL     1      -5.947  -7.736   9.123  0.00  0.00    -0.387 OA
ATOM     17  H   UNL     1      -6.268  -6.857   9.388  0.00  0.00    +0.210 HD
ENDBRANCH   8   2
BRANCH   9  11
ATOM     11  C   UNL     1      -2.968  -9.370  10.494  0.00  0.00    +0.190 C 
BRANCH  11   3
ATOM      3  O   UNL     1      -3.105 -10.117  11.692  0.00  0.00    -0.392 OA
ATOM     19  H   UNL     1      -2.808 -11.023  11.500  0.00  0.00    +0.210 HD
ENDBRANCH  11   3
ENDBRANCH   9  11
TORSDOF 5
ENDMDL
MODEL 9
REMARK VINA RESULT:      -3.6      2.328      5.606
REMARK  Name = 75536845
REMARK  7 active torsions:
REMARK  status: ('A' for Active; 'I' for Inactive)
REMARK    1  A    between atoms: O_2  and  C_8
REMARK    2  A    between atoms: O_3  and  C_11
REMARK    3  A    between atoms: N_5  and  C_7
REMARK    4  A    between atoms: N_6  and  C_13
REMARK    5  A    between atoms: C_9  and  C_11
REMARK    6  A    between atoms: C_13  and  C_14
REMARK    7  A    between atoms: C_13  and  C_15
REMARK                            x       y       z     vdW  Elec       q    Type
REMARK                         _______ _______ _______ _____ _____    ______ ____
ROOT
ATOM      1  O   UNL     1      -1.071  -1.510  23.239  0.00  0.00    -0.370 OA
ATOM      7  C   UNL     1      -0.756  -0.178  25.166  0.00  0.00    +0.131 C 
ATOM      8  C   UNL     1      -0.893  -1.617  25.619  0.00  0.00    +0.168 C 
ATOM      9  C   UNL     1      -1.312  -2.376  24.362  0.00  0.00    +0.174 C 
ATOM     10  C   UNL     1      -0.407  -0.327  23.698  0.00  0.00    +0.185 C 
ENDROOT
BRANCH   7   5
ATOM      4  O   UNL     1      -1.183   2.625  24.630  0.00  0.00    -0.253 OA
ATOM      5  N   UNL     1      -1.978   0.565  25.344  0.00  0.00    -0.292 N 
ATOM      6  N   UNL     1      -3.384   2.387  25.322  0.00  0.00    -0.297 N 
ATOM     12  C   UNL     1      -2.097   1.924  25.060  0.00  0.00    +0.300 C 
ATOM     16  H   UNL     1      -2.778   0.090  25.754  0.00  0.00    +0.151 HD
ATOM     18  H   UNL     1      -4.091   1.714  25.602  0.00  0.00    +0.150 HD
BRANCH   6  13
ATOM     13  C   UNL     1      -3.779   3.761  25.114  0.00  0.00    +0.068 C 
ATOM     14  C   UNL     1      -2.980   4.685  26.025  0.00  0.00    +0.027 C 
ATOM     15  C   UNL     1      -5.276   3.925  25.338  0.00  0.00    +0.027 C 
ENDBRANCH   6  13
ENDBRANCH   7   5
BRANCH   8   2
ATOM      2  O   UNL     1       0.397  -2.070  26.034  0.00  0.00    -0.387 OA
ATOM     17  H   UNL     1       1.030  -1.360  25.836  0.00  0.00    +0.210 HD
ENDBRANCH   8   2
BRANCH   9  11
ATOM     11  C   UNL     1      -2.785  -2.756  24.352  0.00  0.00    +0.190 C 
BRANCH  11   3
ATOM      3  O   UNL     1      -3.418  -2.149  25.467  0.00  0.00    -0.392 OA
ATOM     19  H   UNL     1      -3.281  -2.738  26.229  0.00  0.00    +0.210 HD
ENDBRANCH  11   3
ENDBRANCH   9  11
TORSDOF 5
ENDMDL
MODEL 10
REMARK VINA RESULT:      -3.2     16.645     17.900
REMARK  Name = 75536845
REMARK  7 active torsions:
REMARK  status: ('A' for Active; 'I' for Inactive)
REMARK    1  A    between atoms: O_2  and  C_8
REMARK    2  A    between atoms: O_3  and  C_11
REMARK    3  A    between atoms: N_5  and  C_7
REMARK    4  A    between atoms: N_6  and  C_13
REMARK    5  A    between atoms: C_9  and  C_11
REMARK    6  A    between atoms: C_13  and  C_14
REMARK    7  A    between atoms: C_13  and  C_15
REMARK                            x       y       z     vdW  Elec       q    Type
REMARK                         _______ _______ _______ _____ _____    ______ ____
ROOT
ATOM      1  O   UNL     1      12.779   7.413  21.993  0.00  0.00    -0.370 OA
ATOM      7  C   UNL     1      11.278   9.018  21.122  0.00  0.00    +0.131 C 
ATOM      8  C   UNL     1      10.458   7.846  21.623  0.00  0.00    +0.168 C 
ATOM      9  C   UNL     1      11.491   6.772  21.959  0.00  0.00    +0.174 C 
ATOM     10  C   UNL     1      12.600   8.825  21.839  0.00  0.00    +0.185 C 
ENDROOT
BRANCH   7   5
ATOM      4  O   UNL     1      13.766   9.026  19.662  0.00  0.00    -0.253 OA
ATOM      5  N   UNL     1      11.446   8.989  19.691  0.00  0.00    -0.292 N 
ATOM      6  N   UNL     1      12.564   8.963  17.679  0.00  0.00    -0.297 N 
ATOM     12  C   UNL     1      12.692   8.996  19.065  0.00  0.00    +0.300 C 
ATOM     16  H   UNL     1      10.616   9.025  19.105  0.00  0.00    +0.151 HD
ATOM     18  H   UNL     1      11.635   8.862  17.283  0.00  0.00    +0.150 HD
BRANCH   6  13
ATOM     13  C   UNL     1      13.701   8.963  16.788  0.00  0.00    +0.068 C 
ATOM     14  C   UNL     1      13.240   9.092  15.342  0.00  0.00    +0.027 C 
ATOM     15  C   UNL     1      14.538   7.707  16.991  0.00  0.00    +0.027 C 
ENDBRANCH   6  13
ENDBRANCH   7   5
BRANCH   8   2
ATOM      2  O   UNL     1       9.798   8.254  22.822  0.00  0.00    -0.387 OA
ATOM     17  H   UNL     1       8.927   8.604  22.568  0.00  0.00    +0.210 HD
ENDBRANCH   8   2
BRANCH   9  11
ATOM     11  C   UNL     1      11.552   5.655  20.928  0.00  0.00    +0.190 C 
BRANCH  11   3
ATOM      3  O   UNL     1      10.651   4.630  21.314  0.00  0.00    -0.392 OA
ATOM     19  H   UNL     1      10.608   3.994  20.579  0.00  0.00    +0.210 HD
ENDBRANCH  11   3
ENDBRANCH   9  11
TORSDOF 5
ENDMDL
