MODEL 1
REMARK VINA RESULT:       6.8      0.000      0.000
REMARK  Name = 11911856
REMARK  8 active torsions:
REMARK  status: ('A' for Active; 'I' for Inactive)
REMARK    1  A    between atoms: S_1  and  N_6
REMARK    2  A    between atoms: S_1  and  C_18
REMARK    3  A    between atoms: N_6  and  C_13
REMARK    4  A    between atoms: N_7  and  C_14
REMARK    5  A    between atoms: N_10  and  C_36
REMARK    6  A    between atoms: N_10  and  C_37
REMARK    7  A    between atoms: N_10  and  C_38
REMARK    8  A    between atoms: C_22  and  C_27
REMARK                            x       y       z     vdW  Elec       q    Type
REMARK                         _______ _______ _______ _____ _____    ______ ____
ROOT
ATOM      2  O   UNL     1      -1.152   3.072  23.242  0.00  0.00    -0.370 OA
ATOM      3  O   UNL     1      -0.878   4.429  26.043  0.00  0.00    -0.370 OA
ATOM     11  C   UNL     1      -1.284   3.118  25.617  0.00  0.00    +0.170 C 
ATOM     12  C   UNL     1      -2.067   3.284  24.329  0.00  0.00    +0.171 C 
ATOM     13  C   UNL     1      -0.079   2.303  25.213  0.00  0.00    +0.133 C 
ATOM     14  C   UNL     1      -2.522   4.724  24.357  0.00  0.00    +0.130 C 
ATOM     15  C   UNL     1       0.133   2.711  23.769  0.00  0.00    +0.183 C 
ATOM     16  C   UNL     1      -1.419   5.407  25.144  0.00  0.00    +0.185 C 
ENDROOT
BRANCH  14   7
ATOM      7  N   UNL     1      -3.781   4.833  25.061  0.00  0.00    -0.306 N 
ATOM      8  N   UNL     1      -4.123   2.511  25.037  0.00  0.00    -0.214 NA
ATOM      9  N   UNL     1      -5.727   3.987  26.063  0.00  0.00    -0.223 NA
ATOM     17  C   UNL     1      -4.567   3.745  25.397  0.00  0.00    +0.216 A 
ATOM     22  C   UNL     1      -4.914   1.474  25.379  0.00  0.00    +0.076 A 
ATOM     25  C   UNL     1      -6.469   2.905  26.373  0.00  0.00    +0.116 A 
ATOM     26  C   UNL     1      -6.109   1.612  26.055  0.00  0.00    +0.048 A 
ATOM     40  H   UNL     1      -4.095   5.742  25.382  0.00  0.00    +0.149 HD
BRANCH  22  27
ATOM     27  C   UNL     1      -4.423   0.174  24.988  0.00  0.00    +0.001 A 
ATOM     32  C   UNL     1      -3.906  -0.698  25.948  0.00  0.00    +0.012 A 
ATOM     33  C   UNL     1      -4.460  -0.215  23.648  0.00  0.00    +0.012 A 
ATOM     34  C   UNL     1      -3.430  -1.953  25.571  0.00  0.00    +0.024 A 
ATOM     35  C   UNL     1      -3.984  -1.470  23.269  0.00  0.00    +0.024 A 
ATOM     36  C   UNL     1      -3.469  -2.339  24.230  0.00  0.00    +0.029 A 
BRANCH  36  10
ATOM     10  N   UNL     1      -2.987  -3.609  23.848  0.00  0.00    -0.336 N 
ATOM     37  C   UNL     1      -1.608  -3.777  23.436  0.00  0.00    +0.129 C 
ATOM     38  C   UNL     1      -3.870  -4.759  23.847  0.00  0.00    +0.129 C 
ENDBRANCH  36  10
ENDBRANCH  22  27
ENDBRANCH  14   7
BRANCH  13   6
ATOM      6  N   UNL     1      -0.410   0.858  25.278  0.00  0.00    -0.182 NA
ATOM     39  H   UNL     1      -0.380   0.425  26.209  0.00  0.00    +0.148 HD
BRANCH   6   1
ATOM      1  S   UNL     1      -0.195  -0.120  23.906  0.00  0.00    +0.059 S 
ATOM      4  O   UNL     1      -0.917   0.453  22.787  0.00  0.00    -0.153 OA
ATOM      5  O   UNL     1      -0.408  -1.504  24.283  0.00  0.00    -0.153 OA
BRANCH   1  18
ATOM     18  C   UNL     1       1.535   0.068  23.592  0.00  0.00    +0.106 A 
ATOM     19  C   UNL     1       2.397  -0.963  23.923  0.00  0.00    +0.037 A 
ATOM     20  C   UNL     1       1.993   1.240  23.024  0.00  0.00    +0.029 A 
ATOM     21  C   UNL     1       3.774  -0.828  23.682  0.00  0.00    -0.016 A 
ATOM     23  C   UNL     1       3.358   1.391  22.776  0.00  0.00    +0.010 A 
ATOM     24  C   UNL     1       4.262   0.365  23.099  0.00  0.00    -0.018 A 
ATOM     28  C   UNL     1       4.678  -1.854  24.004  0.00  0.00    +0.008 A 
ATOM     29  C   UNL     1       5.639   0.499  22.857  0.00  0.00    +0.008 A 
ATOM     30  C   UNL     1       6.043  -1.704  23.757  0.00  0.00    +0.001 A 
ATOM     31  C   UNL     1       6.522  -0.530  23.185  0.00  0.00    +0.001 A 
ENDBRANCH   1  18
ENDBRANCH   6   1
ENDBRANCH  13   6
TORSDOF 6
ENDMDL
MODEL 2
REMARK VINA RESULT:       7.5      2.114      4.968
REMARK  Name = 11911856
REMARK  8 active torsions:
REMARK  status: ('A' for Active; 'I' for Inactive)
REMARK    1  A    between atoms: S_1  and  N_6
REMARK    2  A    between atoms: S_1  and  C_18
REMARK    3  A    between atoms: N_6  and  C_13
REMARK    4  A    between atoms: N_7  and  C_14
REMARK    5  A    between atoms: N_10  and  C_36
REMARK    6  A    between atoms: N_10  and  C_37
REMARK    7  A    between atoms: N_10  and  C_38
REMARK    8  A    between atoms: C_22  and  C_27
REMARK                            x       y       z     vdW  Elec       q    Type
REMARK                         _______ _______ _______ _____ _____    ______ ____
ROOT
ATOM      2  O   UNL     1      -2.618  -1.480  25.987  0.00  0.00    -0.370 OA
ATOM      3  O   UNL     1      -3.868  -1.551  23.125  0.00  0.00    -0.370 OA
ATOM     11  C   UNL     1      -2.687  -0.943  23.671  0.00  0.00    +0.170 C 
ATOM     12  C   UNL     1      -3.032  -0.458  25.066  0.00  0.00    +0.171 C 
ATOM     13  C   UNL     1      -1.618  -1.985  23.896  0.00  0.00    +0.133 C 
ATOM     14  C   UNL     1      -4.538  -0.341  25.054  0.00  0.00    +0.130 C 
ATOM     15  C   UNL     1      -1.972  -2.536  25.263  0.00  0.00    +0.183 C 
ATOM     16  C   UNL     1      -4.947  -1.412  24.060  0.00  0.00    +0.185 C 
ENDROOT
BRANCH  14   7
ATOM      7  N   UNL     1      -4.930   0.965  24.572  0.00  0.00    -0.306 N 
ATOM      8  N   UNL     1      -3.095   2.015  25.591  0.00  0.00    -0.214 NA
ATOM      9  N   UNL     1      -4.698   3.287  24.319  0.00  0.00    -0.223 NA
ATOM     17  C   UNL     1      -4.220   2.123  24.835  0.00  0.00    +0.216 A 
ATOM     22  C   UNL     1      -2.428   3.163  25.828  0.00  0.00    +0.076 A 
ATOM     25  C   UNL     1      -3.982   4.396  24.595  0.00  0.00    +0.116 A 
ATOM     26  C   UNL     1      -2.828   4.394  25.351  0.00  0.00    +0.048 A 
ATOM     40  H   UNL     1      -5.736   1.050  23.963  0.00  0.00    +0.149 HD
BRANCH  22  27
ATOM     27  C   UNL     1      -1.237   3.025  26.632  0.00  0.00    +0.001 A 
ATOM     32  C   UNL     1       0.010   2.886  26.019  0.00  0.00    +0.012 A 
ATOM     33  C   UNL     1      -1.327   3.027  28.025  0.00  0.00    +0.012 A 
ATOM     34  C   UNL     1       1.161   2.750  26.795  0.00  0.00    +0.024 A 
ATOM     35  C   UNL     1      -0.176   2.891  28.802  0.00  0.00    +0.024 A 
ATOM     36  C   UNL     1       1.067   2.753  28.187  0.00  0.00    +0.029 A 
BRANCH  36  10
ATOM     10  N   UNL     1       2.232   2.616  28.972  0.00  0.00    -0.336 N 
ATOM     37  C   UNL     1       2.188   1.895  30.228  0.00  0.00    +0.129 C 
ATOM     38  C   UNL     1       3.482   3.207  28.540  0.00  0.00    +0.129 C 
ENDBRANCH  36  10
ENDBRANCH  22  27
ENDBRANCH  14   7
BRANCH  13   6
ATOM      6  N   UNL     1      -0.288  -1.332  23.952  0.00  0.00    -0.182 NA
ATOM     39  H   UNL     1       0.243  -1.451  24.823  0.00  0.00    +0.148 HD
BRANCH   6   1
ATOM      1  S   UNL     1       0.033   0.016  22.969  0.00  0.00    +0.059 S 
ATOM      4  O   UNL     1      -0.568   1.197  23.557  0.00  0.00    -0.153 OA
ATOM      5  O   UNL     1      -0.245  -0.336  21.590  0.00  0.00    -0.153 OA
BRANCH   1  18
ATOM     18  C   UNL     1       1.789   0.166  23.119  0.00  0.00    +0.106 A 
ATOM     19  C   UNL     1       2.533  -0.944  23.479  0.00  0.00    +0.037 A 
ATOM     20  C   UNL     1       2.383   1.388  22.874  0.00  0.00    +0.029 A 
ATOM     21  C   UNL     1       3.928  -0.840  23.604  0.00  0.00    -0.016 A 
ATOM     23  C   UNL     1       3.768   1.509  22.992  0.00  0.00    +0.010 A 
ATOM     24  C   UNL     1       4.555   0.404  23.356  0.00  0.00    -0.018 A 
ATOM     28  C   UNL     1       4.715  -1.945  23.967  0.00  0.00    +0.008 A 
ATOM     29  C   UNL     1       5.951   0.507  23.480  0.00  0.00    +0.008 A 
ATOM     30  C   UNL     1       6.100  -1.825  24.086  0.00  0.00    +0.001 A 
ATOM     31  C   UNL     1       6.716  -0.601  23.843  0.00  0.00    +0.001 A 
ENDBRANCH   1  18
ENDBRANCH   6   1
ENDBRANCH  13   6
TORSDOF 6
ENDMDL
MODEL 3
REMARK VINA RESULT:       8.8      2.205      5.149
REMARK  Name = 11911856
REMARK  8 active torsions:
REMARK  status: ('A' for Active; 'I' for Inactive)
REMARK    1  A    between atoms: S_1  and  N_6
REMARK    2  A    between atoms: S_1  and  C_18
REMARK    3  A    between atoms: N_6  and  C_13
REMARK    4  A    between atoms: N_7  and  C_14
REMARK    5  A    between atoms: N_10  and  C_36
REMARK    6  A    between atoms: N_10  and  C_37
REMARK    7  A    between atoms: N_10  and  C_38
REMARK    8  A    between atoms: C_22  and  C_27
REMARK                            x       y       z     vdW  Elec       q    Type
REMARK                         _______ _______ _______ _____ _____    ______ ____
ROOT
ATOM      2  O   UNL     1      -3.447  -1.145  26.114  0.00  0.00    -0.370 OA
ATOM      3  O   UNL     1      -5.180  -1.340  23.521  0.00  0.00    -0.370 OA
ATOM     11  C   UNL     1      -3.784  -1.099  23.759  0.00  0.00    +0.170 C 
ATOM     12  C   UNL     1      -3.679  -0.252  25.012  0.00  0.00    +0.171 C 
ATOM     13  C   UNL     1      -3.085  -2.386  24.124  0.00  0.00    +0.133 C 
ATOM     14  C   UNL     1      -5.040   0.392  25.137  0.00  0.00    +0.130 C 
ATOM     15  C   UNL     1      -3.327  -2.486  25.618  0.00  0.00    +0.183 C 
ATOM     16  C   UNL     1      -5.956  -0.638  24.503  0.00  0.00    +0.185 C 
ENDROOT
BRANCH  14   7
ATOM      7  N   UNL     1      -5.075   1.626  24.383  0.00  0.00    -0.306 N 
ATOM      8  N   UNL     1      -3.084   2.405  25.350  0.00  0.00    -0.214 NA
ATOM      9  N   UNL     1      -4.267   3.726  23.718  0.00  0.00    -0.223 NA
ATOM     17  C   UNL     1      -4.114   2.615  24.487  0.00  0.00    +0.216 A 
ATOM     22  C   UNL     1      -2.165   3.390  25.427  0.00  0.00    +0.076 A 
ATOM     25  C   UNL     1      -3.311   4.670  23.845  0.00  0.00    +0.116 A 
ATOM     26  C   UNL     1      -2.228   4.555  24.690  0.00  0.00    +0.048 A 
ATOM     40  H   UNL     1      -5.809   1.769  23.698  0.00  0.00    +0.149 HD
BRANCH  22  27
ATOM     27  C   UNL     1      -1.082   3.145  26.348  0.00  0.00    +0.001 A 
ATOM     32  C   UNL     1       0.214   2.937  25.868  0.00  0.00    +0.012 A 
ATOM     33  C   UNL     1      -1.323   3.114  27.723  0.00  0.00    +0.012 A 
ATOM     34  C   UNL     1       1.261   2.699  26.757  0.00  0.00    +0.024 A 
ATOM     35  C   UNL     1      -0.277   2.876  28.613  0.00  0.00    +0.024 A 
ATOM     36  C   UNL     1       1.015   2.669  28.131  0.00  0.00    +0.029 A 
BRANCH  36  10
ATOM     10  N   UNL     1       2.075   2.428  29.032  0.00  0.00    -0.336 N 
ATOM     37  C   UNL     1       1.807   1.903  30.355  0.00  0.00    +0.129 C 
ATOM     38  C   UNL     1       3.442   2.718  28.649  0.00  0.00    +0.129 C 
ENDBRANCH  36  10
ENDBRANCH  22  27
ENDBRANCH  14   7
BRANCH  13   6
ATOM      6  N   UNL     1      -1.631  -2.256  23.863  0.00  0.00    -0.182 NA
ATOM     39  H   UNL     1      -1.268  -2.755  23.041  0.00  0.00    +0.148 HD
BRANCH   6   1
ATOM      1  S   UNL     1      -0.573  -1.896  25.142  0.00  0.00    +0.059 S 
ATOM      4  O   UNL     1      -0.019  -3.127  25.673  0.00  0.00    -0.153 OA
ATOM      5  O   UNL     1      -1.217  -0.943  26.026  0.00  0.00    -0.153 OA
BRANCH   1  18
ATOM     18  C   UNL     1       0.724  -1.030  24.308  0.00  0.00    +0.106 A 
ATOM     19  C   UNL     1       2.027  -1.481  24.435  0.00  0.00    +0.037 A 
ATOM     20  C   UNL     1       0.413   0.079  23.548  0.00  0.00    +0.029 A 
ATOM     21  C   UNL     1       3.068  -0.803  23.780  0.00  0.00    -0.016 A 
ATOM     23  C   UNL     1       1.435   0.764  22.889  0.00  0.00    +0.010 A 
ATOM     24  C   UNL     1       2.768   0.336  22.995  0.00  0.00    -0.018 A 
ATOM     28  C   UNL     1       4.402  -1.232  23.886  0.00  0.00    +0.008 A 
ATOM     29  C   UNL     1       3.810   1.013  22.340  0.00  0.00    +0.008 A 
ATOM     30  C   UNL     1       5.424  -0.547  23.228  0.00  0.00    +0.001 A 
ATOM     31  C   UNL     1       5.129   0.573  22.457  0.00  0.00    +0.001 A 
ENDBRANCH   1  18
ENDBRANCH   6   1
ENDBRANCH  13   6
TORSDOF 6
ENDMDL
MODEL 4
REMARK VINA RESULT:      10.1      1.875      2.468
REMARK  Name = 11911856
REMARK  8 active torsions:
REMARK  status: ('A' for Active; 'I' for Inactive)
REMARK    1  A    between atoms: S_1  and  N_6
REMARK    2  A    between atoms: S_1  and  C_18
REMARK    3  A    between atoms: N_6  and  C_13
REMARK    4  A    between atoms: N_7  and  C_14
REMARK    5  A    between atoms: N_10  and  C_36
REMARK    6  A    between atoms: N_10  and  C_37
REMARK    7  A    between atoms: N_10  and  C_38
REMARK    8  A    between atoms: C_22  and  C_27
REMARK                            x       y       z     vdW  Elec       q    Type
REMARK                         _______ _______ _______ _____ _____    ______ ____
ROOT
ATOM      2  O   UNL     1      -1.548   3.754  23.427  0.00  0.00    -0.370 OA
ATOM      3  O   UNL     1      -2.326   6.496  24.706  0.00  0.00    -0.370 OA
ATOM     11  C   UNL     1      -1.859   5.251  25.250  0.00  0.00    +0.170 C 
ATOM     12  C   UNL     1      -2.493   4.138  24.438  0.00  0.00    +0.171 C 
ATOM     13  C   UNL     1      -0.379   5.093  24.999  0.00  0.00    +0.133 C 
ATOM     14  C   UNL     1      -3.703   4.786  23.806  0.00  0.00    +0.130 C 
ATOM     15  C   UNL     1      -0.337   4.504  23.602  0.00  0.00    +0.183 C 
ATOM     16  C   UNL     1      -3.266   6.231  23.656  0.00  0.00    +0.185 C 
ENDROOT
BRANCH  14   7
ATOM      7  N   UNL     1      -4.837   4.695  24.698  0.00  0.00    -0.306 N 
ATOM      8  N   UNL     1      -4.612   2.370  24.929  0.00  0.00    -0.214 NA
ATOM      9  N   UNL     1      -6.362   3.564  26.078  0.00  0.00    -0.223 NA
ATOM     17  C   UNL     1      -5.284   3.508  25.252  0.00  0.00    +0.216 A 
ATOM     22  C   UNL     1      -5.074   1.232  25.485  0.00  0.00    +0.076 A 
ATOM     25  C   UNL     1      -6.770   2.389  26.599  0.00  0.00    +0.116 A 
ATOM     26  C   UNL     1      -6.159   1.180  26.336  0.00  0.00    +0.048 A 
ATOM     40  H   UNL     1      -5.311   5.543  24.988  0.00  0.00    +0.149 HD
BRANCH  22  27
ATOM     27  C   UNL     1      -4.346   0.037  25.130  0.00  0.00    +0.001 A 
ATOM     32  C   UNL     1      -3.554  -0.610  26.080  0.00  0.00    +0.012 A 
ATOM     33  C   UNL     1      -4.429  -0.475  23.833  0.00  0.00    +0.012 A 
ATOM     34  C   UNL     1      -2.848  -1.763  25.737  0.00  0.00    +0.024 A 
ATOM     35  C   UNL     1      -3.724  -1.628  23.489  0.00  0.00    +0.024 A 
ATOM     36  C   UNL     1      -2.934  -2.272  24.440  0.00  0.00    +0.029 A 
BRANCH  36  10
ATOM     10  N   UNL     1      -2.221  -3.439  24.093  0.00  0.00    -0.336 N 
ATOM     37  C   UNL     1      -0.875  -3.650  24.586  0.00  0.00    +0.129 C 
ATOM     38  C   UNL     1      -2.820  -4.434  23.226  0.00  0.00    +0.129 C 
ENDBRANCH  36  10
ENDBRANCH  22  27
ENDBRANCH  14   7
BRANCH  13   6
ATOM      6  N   UNL     1       0.190   4.122  25.965  0.00  0.00    -0.182 NA
ATOM     39  H   UNL     1       1.200   4.192  26.142  0.00  0.00    +0.148 HD
BRANCH   6   1
ATOM      1  S   UNL     1      -0.591   2.637  26.229  0.00  0.00    +0.059 S 
ATOM      4  O   UNL     1      -2.020   2.804  26.046  0.00  0.00    -0.153 OA
ATOM      5  O   UNL     1      -0.075   2.050  27.451  0.00  0.00    -0.153 OA
BRANCH   1  18
ATOM     18  C   UNL     1       0.021   1.660  24.889  0.00  0.00    +0.106 A 
ATOM     19  C   UNL     1       1.330   1.829  24.472  0.00  0.00    +0.037 A 
ATOM     20  C   UNL     1      -0.819   0.747  24.283  0.00  0.00    +0.029 A 
ATOM     21  C   UNL     1       1.830   1.061  23.407  0.00  0.00    -0.016 A 
ATOM     23  C   UNL     1      -0.339  -0.025  23.224  0.00  0.00    +0.010 A 
ATOM     24  C   UNL     1       0.984   0.120  22.775  0.00  0.00    -0.018 A 
ATOM     28  C   UNL     1       3.153   1.206  22.959  0.00  0.00    +0.008 A 
ATOM     29  C   UNL     1       1.485  -0.648  21.711  0.00  0.00    +0.008 A 
ATOM     30  C   UNL     1       3.634   0.435  21.900  0.00  0.00    +0.001 A 
ATOM     31  C   UNL     1       2.801  -0.490  21.277  0.00  0.00    +0.001 A 
ENDBRANCH   1  18
ENDBRANCH   6   1
ENDBRANCH  13   6
TORSDOF 6
ENDMDL
