MODEL 1
REMARK VINA RESULT:      -4.0      0.000      0.000
REMARK  Name = 45784174
REMARK  3 active torsions:
REMARK  status: ('A' for Active; 'I' for Inactive)
REMARK    1  A    between atoms: N_4  and  C_10
REMARK    2  A    between atoms: C_6  and  C_11
REMARK    3  A    between atoms: C_10  and  C_12
REMARK                            x       y       z     vdW  Elec       q    Type
REMARK                         _______ _______ _______ _____ _____    ______ ____
ROOT
ATOM      4  N   UNL     1       0.856  -0.533  23.657  0.00  0.00    -0.297 NA
ATOM      6  C   UNL     1      -0.953   0.051  25.030  0.00  0.00    +0.090 C 
ATOM      7  C   UNL     1      -1.244  -1.293  24.339  0.00  0.00    +0.029 C 
ATOM      8  C   UNL     1       0.216   0.649  24.238  0.00  0.00    +0.097 C 
ATOM      9  C   UNL     1      -0.251  -1.368  23.188  0.00  0.00    +0.085 C 
ENDROOT
BRANCH   6  11
ATOM      1 CL   UNL     1      -6.391   5.326  25.534  0.00  0.00    -0.083 Cl
ATOM      3  O   UNL     1      -3.364   0.390  25.141  0.00  0.00    -0.439 OA
ATOM      5  N   UNL     1      -2.140   2.297  25.200  0.00  0.00    -0.213 NA
ATOM     11  C   UNL     1      -2.138   0.984  25.127  0.00  0.00    +0.201 A 
ATOM     13  C   UNL     1      -3.478   2.607  25.269  0.00  0.00    +0.111 A 
ATOM     14  C   UNL     1      -4.229   1.442  25.233  0.00  0.00    +0.155 A 
ATOM     17  C   UNL     1      -4.141   3.839  25.363  0.00  0.00    +0.051 A 
ATOM     18  C   UNL     1      -5.617   1.394  25.284  0.00  0.00    +0.050 A 
ATOM     21  C   UNL     1      -5.542   3.831  25.417  0.00  0.00    +0.043 A 
ATOM     22  C   UNL     1      -6.263   2.631  25.378  0.00  0.00    +0.024 A 
ENDBRANCH   6  11
BRANCH   4  10
ATOM     10  C   UNL     1       1.786  -0.195  22.590  0.00  0.00    +0.122 C 
BRANCH  10  12
ATOM      2  F   UNL     1       3.529   2.036  22.503  0.00  0.00    -0.205 F 
ATOM     12  C   UNL     1       3.217  -0.251  23.054  0.00  0.00    +0.002 A 
ATOM     15  C   UNL     1       4.021   0.886  22.982  0.00  0.00    +0.128 A 
ATOM     16  C   UNL     1       3.738  -1.444  23.556  0.00  0.00    +0.008 A 
ATOM     19  C   UNL     1       5.346   0.831  23.414  0.00  0.00    +0.038 A 
ATOM     20  C   UNL     1       5.064  -1.499  23.986  0.00  0.00    +0.000 A 
ATOM     23  C   UNL     1       5.868  -0.362  23.916  0.00  0.00    +0.003 A 
ENDBRANCH  10  12
ENDBRANCH   4  10
TORSDOF 3
ENDMDL
MODEL 2
REMARK VINA RESULT:      -2.5      3.883      7.510
REMARK  Name = 45784174
REMARK  3 active torsions:
REMARK  status: ('A' for Active; 'I' for Inactive)
REMARK    1  A    between atoms: N_4  and  C_10
REMARK    2  A    between atoms: C_6  and  C_11
REMARK    3  A    between atoms: C_10  and  C_12
REMARK                            x       y       z     vdW  Elec       q    Type
REMARK                         _______ _______ _______ _____ _____    ______ ____
ROOT
ATOM      4  N   UNL     1      -3.832   1.757  25.007  0.00  0.00    -0.297 NA
ATOM      6  C   UNL     1      -1.644   2.389  24.450  0.00  0.00    +0.090 C 
ATOM      7  C   UNL     1      -2.600   2.787  23.312  0.00  0.00    +0.029 C 
ATOM      8  C   UNL     1      -2.444   1.393  25.299  0.00  0.00    +0.097 C 
ATOM      9  C   UNL     1      -3.866   1.980  23.561  0.00  0.00    +0.085 C 
ENDROOT
BRANCH   6  11
ATOM      1 CL   UNL     1       5.384   0.162  22.633  0.00  0.00    -0.083 Cl
ATOM      3  O   UNL     1      -0.364   0.806  23.111  0.00  0.00    -0.439 OA
ATOM      5  N   UNL     1       0.895   2.228  24.348  0.00  0.00    -0.213 NA
ATOM     11  C   UNL     1      -0.311   1.839  23.998  0.00  0.00    +0.201 A 
ATOM     13  C   UNL     1       1.718   1.387  23.636  0.00  0.00    +0.111 A 
ATOM     14  C   UNL     1       0.950   0.516  22.878  0.00  0.00    +0.155 A 
ATOM     17  C   UNL     1       3.115   1.290  23.573  0.00  0.00    +0.051 A 
ATOM     18  C   UNL     1       1.463  -0.468  22.042  0.00  0.00    +0.050 A 
ATOM     21  C   UNL     1       3.670   0.310  22.738  0.00  0.00    +0.043 A 
ATOM     22  C   UNL     1       2.858  -0.551  21.989  0.00  0.00    +0.024 A 
ENDBRANCH   6  11
BRANCH   4  10
ATOM     10  C   UNL     1      -4.777   0.735  25.432  0.00  0.00    +0.122 C 
BRANCH  10  12
ATOM      2  F   UNL     1      -3.360  -0.983  27.183  0.00  0.00    -0.205 F 
ATOM     12  C   UNL     1      -4.323  -0.646  25.040  0.00  0.00    +0.002 A 
ATOM     15  C   UNL     1      -3.628  -1.440  25.952  0.00  0.00    +0.128 A 
ATOM     16  C   UNL     1      -4.598  -1.130  23.760  0.00  0.00    +0.008 A 
ATOM     19  C   UNL     1      -3.210  -2.719  25.586  0.00  0.00    +0.038 A 
ATOM     20  C   UNL     1      -4.179  -2.410  23.395  0.00  0.00    +0.000 A 
ATOM     23  C   UNL     1      -3.485  -3.204  24.306  0.00  0.00    +0.003 A 
ENDBRANCH  10  12
ENDBRANCH   4  10
TORSDOF 3
ENDMDL
MODEL 3
REMARK VINA RESULT:      -2.1      0.907      1.438
REMARK  Name = 45784174
REMARK  3 active torsions:
REMARK  status: ('A' for Active; 'I' for Inactive)
REMARK    1  A    between atoms: N_4  and  C_10
REMARK    2  A    between atoms: C_6  and  C_11
REMARK    3  A    between atoms: C_10  and  C_12
REMARK                            x       y       z     vdW  Elec       q    Type
REMARK                         _______ _______ _______ _____ _____    ______ ____
ROOT
ATOM      4  N   UNL     1       0.946  -0.606  23.437  0.00  0.00    -0.297 NA
ATOM      6  C   UNL     1      -0.815   0.043  24.843  0.00  0.00    +0.090 C 
ATOM      7  C   UNL     1      -1.257  -1.156  23.986  0.00  0.00    +0.029 C 
ATOM      8  C   UNL     1       0.448   0.571  24.150  0.00  0.00    +0.097 C 
ATOM      9  C   UNL     1      -0.245  -1.222  22.850  0.00  0.00    +0.085 C 
ENDROOT
BRANCH   6  11
ATOM      1 CL   UNL     1      -6.621   4.890  25.511  0.00  0.00    -0.083 Cl
ATOM      3  O   UNL     1      -1.439   2.278  25.586  0.00  0.00    -0.439 OA
ATOM      5  N   UNL     1      -3.150   1.052  24.746  0.00  0.00    -0.213 NA
ATOM     11  C   UNL     1      -1.870   1.108  25.038  0.00  0.00    +0.201 A 
ATOM     13  C   UNL     1      -3.615   2.288  25.130  0.00  0.00    +0.111 A 
ATOM     14  C   UNL     1      -2.570   3.040  25.644  0.00  0.00    +0.155 A 
ATOM     17  C   UNL     1      -4.897   2.853  25.081  0.00  0.00    +0.051 A 
ATOM     18  C   UNL     1      -2.691   4.338  26.126  0.00  0.00    +0.050 A 
ATOM     21  C   UNL     1      -5.060   4.162  25.557  0.00  0.00    +0.043 A 
ATOM     22  C   UNL     1      -3.977   4.888  26.069  0.00  0.00    +0.024 A 
ENDBRANCH   6  11
BRANCH   4  10
ATOM     10  C   UNL     1       1.946  -0.268  22.435  0.00  0.00    +0.122 C 
BRANCH  10  12
ATOM      2  F   UNL     1       3.649   1.994  22.457  0.00  0.00    -0.205 F 
ATOM     12  C   UNL     1       3.340  -0.295  23.002  0.00  0.00    +0.002 A 
ATOM     15  C   UNL     1       4.126   0.857  22.980  0.00  0.00    +0.128 A 
ATOM     16  C   UNL     1       3.844  -1.475  23.549  0.00  0.00    +0.008 A 
ATOM     19  C   UNL     1       5.417   0.829  23.507  0.00  0.00    +0.038 A 
ATOM     20  C   UNL     1       5.136  -1.502  24.075  0.00  0.00    +0.000 A 
ATOM     23  C   UNL     1       5.923  -0.351  24.054  0.00  0.00    +0.003 A 
ENDBRANCH  10  12
ENDBRANCH   4  10
TORSDOF 3
ENDMDL
MODEL 4
REMARK VINA RESULT:      -1.8     15.366     17.085
REMARK  Name = 45784174
REMARK  3 active torsions:
REMARK  status: ('A' for Active; 'I' for Inactive)
REMARK    1  A    between atoms: N_4  and  C_10
REMARK    2  A    between atoms: C_6  and  C_11
REMARK    3  A    between atoms: C_10  and  C_12
REMARK                            x       y       z     vdW  Elec       q    Type
REMARK                         _______ _______ _______ _____ _____    ______ ____
ROOT
ATOM      4  N   UNL     1      -4.004  -9.966  12.408  0.00  0.00    -0.297 NA
ATOM      6  C   UNL     1      -5.138  -9.295  14.348  0.00  0.00    +0.090 C 
ATOM      7  C   UNL     1      -3.847 -10.038  14.737  0.00  0.00    +0.029 C 
ATOM      8  C   UNL     1      -5.356  -9.644  12.870  0.00  0.00    +0.097 C 
ATOM      9  C   UNL     1      -3.425 -10.781  13.477  0.00  0.00    +0.085 C 
ENDROOT
BRANCH   6  11
ATOM      1 CL   UNL     1     -10.700 -10.781  19.298  0.00  0.00    -0.083 Cl
ATOM      3  O   UNL     1      -7.490  -9.901  14.544  0.00  0.00    -0.439 OA
ATOM      5  N   UNL     1      -6.415  -9.647  16.523  0.00  0.00    -0.213 NA
ATOM     11  C   UNL     1      -6.338  -9.612  15.211  0.00  0.00    +0.201 A 
ATOM     13  C   UNL     1      -7.727  -9.987  16.753  0.00  0.00    +0.111 A 
ATOM     14  C   UNL     1      -8.387 -10.144  15.544  0.00  0.00    +0.155 A 
ATOM     17  C   UNL     1      -8.438 -10.183  17.945  0.00  0.00    +0.051 A 
ATOM     18  C   UNL     1      -9.727 -10.487  15.413  0.00  0.00    +0.050 A 
ATOM     21  C   UNL     1      -9.793 -10.531  17.854  0.00  0.00    +0.043 A 
ATOM     22  C   UNL     1     -10.423 -10.679  16.612  0.00  0.00    +0.024 A 
ENDBRANCH   6  11
BRANCH   4  10
ATOM     10  C   UNL     1      -4.003 -10.654  11.125  0.00  0.00    +0.122 C 
BRANCH  10  12
ATOM      2  F   UNL     1      -3.610  -8.483   9.350  0.00  0.00    -0.205 F 
ATOM     12  C   UNL     1      -5.080 -10.136  10.210  0.00  0.00    +0.002 A 
ATOM     15  C   UNL     1      -4.818  -9.061   9.361  0.00  0.00    +0.128 A 
ATOM     16  C   UNL     1      -6.342 -10.732  10.214  0.00  0.00    +0.008 A 
ATOM     19  C   UNL     1      -5.818  -8.583   8.513  0.00  0.00    +0.038 A 
ATOM     20  C   UNL     1      -7.341 -10.253   9.366  0.00  0.00    +0.000 A 
ATOM     23  C   UNL     1      -7.080  -9.178   8.516  0.00  0.00    +0.003 A 
ENDBRANCH  10  12
ENDBRANCH   4  10
TORSDOF 3
ENDMDL
MODEL 5
REMARK VINA RESULT:      -1.5      3.847      7.759
REMARK  Name = 45784174
REMARK  3 active torsions:
REMARK  status: ('A' for Active; 'I' for Inactive)
REMARK    1  A    between atoms: N_4  and  C_10
REMARK    2  A    between atoms: C_6  and  C_11
REMARK    3  A    between atoms: C_10  and  C_12
REMARK                            x       y       z     vdW  Elec       q    Type
REMARK                         _______ _______ _______ _____ _____    ______ ____
ROOT
ATOM      4  N   UNL     1      -4.637  -0.554  24.716  0.00  0.00    -0.297 NA
ATOM      6  C   UNL     1      -2.455  -1.276  24.248  0.00  0.00    +0.090 C 
ATOM      7  C   UNL     1      -2.748  -1.462  25.747  0.00  0.00    +0.029 C 
ATOM      8  C   UNL     1      -3.558  -0.332  23.751  0.00  0.00    +0.097 C 
ATOM      9  C   UNL     1      -3.972  -0.599  26.019  0.00  0.00    +0.085 C 
ENDROOT
BRANCH   6  11
ATOM      1 CL   UNL     1       4.722   0.492  22.511  0.00  0.00    -0.083 Cl
ATOM      3  O   UNL     1      -0.875   0.568  24.042  0.00  0.00    -0.439 OA
ATOM      5  N   UNL     1      -0.012  -1.471  23.558  0.00  0.00    -0.213 NA
ATOM     11  C   UNL     1      -1.065  -0.777  23.929  0.00  0.00    +0.201 A 
ATOM     13  C   UNL     1       0.963  -0.513  23.410  0.00  0.00    +0.111 A 
ATOM     14  C   UNL     1       0.437   0.736  23.706  0.00  0.00    +0.155 A 
ATOM     17  C   UNL     1       2.309  -0.609  23.031  0.00  0.00    +0.051 A 
ATOM     18  C   UNL     1       1.151   1.927  23.657  0.00  0.00    +0.050 A 
ATOM     21  C   UNL     1       3.063   0.571  22.972  0.00  0.00    +0.043 A 
ATOM     22  C   UNL     1       2.493   1.814  23.278  0.00  0.00    +0.024 A 
ENDBRANCH   6  11
BRANCH   4  10
ATOM     10  C   UNL     1      -5.661   0.478  24.651  0.00  0.00    +0.122 C 
BRANCH  10  12
ATOM      2  F   UNL     1      -6.256   2.260  26.771  0.00  0.00    -0.205 F 
ATOM     12  C   UNL     1      -5.073   1.860  24.752  0.00  0.00    +0.002 A 
ATOM     15  C   UNL     1      -5.410   2.687  25.824  0.00  0.00    +0.128 A 
ATOM     16  C   UNL     1      -4.191   2.312  23.771  0.00  0.00    +0.008 A 
ATOM     19  C   UNL     1      -4.863   3.967  25.915  0.00  0.00    +0.038 A 
ATOM     20  C   UNL     1      -3.645   3.593  23.863  0.00  0.00    +0.000 A 
ATOM     23  C   UNL     1      -3.980   4.420  24.933  0.00  0.00    +0.003 A 
ENDBRANCH  10  12
ENDBRANCH   4  10
TORSDOF 3
ENDMDL
MODEL 6
REMARK VINA RESULT:      -1.4      3.899      7.588
REMARK  Name = 45784174
REMARK  3 active torsions:
REMARK  status: ('A' for Active; 'I' for Inactive)
REMARK    1  A    between atoms: N_4  and  C_10
REMARK    2  A    between atoms: C_6  and  C_11
REMARK    3  A    between atoms: C_10  and  C_12
REMARK                            x       y       z     vdW  Elec       q    Type
REMARK                         _______ _______ _______ _____ _____    ______ ____
ROOT
ATOM      4  N   UNL     1      -2.939   0.198  24.705  0.00  0.00    -0.297 NA
ATOM      6  C   UNL     1      -1.018  -0.757  23.757  0.00  0.00    +0.090 C 
ATOM      7  C   UNL     1      -1.450  -1.580  24.983  0.00  0.00    +0.029 C 
ATOM      8  C   UNL     1      -1.779   0.568  23.891  0.00  0.00    +0.097 C 
ATOM      9  C   UNL     1      -2.401  -0.673  25.751  0.00  0.00    +0.085 C 
ENDROOT
BRANCH   6  11
ATOM      1 CL   UNL     1       6.558  -0.525  23.311  0.00  0.00    -0.083 Cl
ATOM      3  O   UNL     1       0.877   0.644  23.133  0.00  0.00    -0.439 OA
ATOM      5  N   UNL     1       1.437  -1.417  23.891  0.00  0.00    -0.213 NA
ATOM     11  C   UNL     1       0.474  -0.567  23.613  0.00  0.00    +0.201 A 
ATOM     13  C   UNL     1       2.578  -0.719  23.571  0.00  0.00    +0.111 A 
ATOM     14  C   UNL     1       2.238   0.542  23.108  0.00  0.00    +0.155 A 
ATOM     17  C   UNL     1       3.932  -1.073  23.642  0.00  0.00    +0.051 A 
ATOM     18  C   UNL     1       3.150   1.507  22.697  0.00  0.00    +0.050 A 
ATOM     21  C   UNL     1       4.883  -0.126  23.237  0.00  0.00    +0.043 A 
ATOM     22  C   UNL     1       4.497   1.139  22.774  0.00  0.00    +0.024 A 
ENDBRANCH   6  11
BRANCH   4  10
ATOM     10  C   UNL     1      -3.629   1.357  25.250  0.00  0.00    +0.122 C 
BRANCH  10  12
ATOM      2  F   UNL     1      -4.607   3.897  24.466  0.00  0.00    -0.205 F 
ATOM     12  C   UNL     1      -2.770   2.592  25.211  0.00  0.00    +0.002 A 
ATOM     15  C   UNL     1      -3.316   3.812  24.814  0.00  0.00    +0.128 A 
ATOM     16  C   UNL     1      -1.424   2.514  25.572  0.00  0.00    +0.008 A 
ATOM     19  C   UNL     1      -2.517   4.955  24.779  0.00  0.00    +0.038 A 
ATOM     20  C   UNL     1      -0.626   3.657  25.537  0.00  0.00    +0.000 A 
ATOM     23  C   UNL     1      -1.171   4.877  25.140  0.00  0.00    +0.003 A 
ENDBRANCH  10  12
ENDBRANCH   4  10
TORSDOF 3
ENDMDL
