MODEL 1
REMARK VINA RESULT:      -0.3      0.000      0.000
REMARK  Name = 26745299
REMARK  7 active torsions:
REMARK  status: ('A' for Active; 'I' for Inactive)
REMARK    1  A    between atoms: O_3  and  C_28
REMARK    2  A    between atoms: O_3  and  C_29
REMARK    3  A    between atoms: N_4  and  C_13
REMARK    4  A    between atoms: N_7  and  C_17
REMARK    5  A    between atoms: C_8  and  C_14
REMARK    6  A    between atoms: C_13  and  C_15
REMARK    7  A    between atoms: C_17  and  C_20
REMARK                            x       y       z     vdW  Elec       q    Type
REMARK                         _______ _______ _______ _____ _____    ______ ____
ROOT
ATOM      4  N   UNL     1       1.102   0.440  23.463  0.00  0.00    -0.281 NA
ATOM      5  N   UNL     1       4.777   0.710  22.793  0.00  0.00    -0.347 N 
ATOM      6  N   UNL     1       4.912  -1.226  23.904  0.00  0.00    -0.240 NA
ATOM      8  C   UNL     1       1.127  -1.049  23.530  0.00  0.00    +0.150 C 
ATOM      9  C   UNL     1       2.421  -1.613  24.190  0.00  0.00    +0.085 C 
ATOM     10  C   UNL     1       2.235   0.981  22.658  0.00  0.00    +0.140 C 
ATOM     11  C   UNL     1       3.498   0.318  23.044  0.00  0.00    +0.053 A 
ATOM     12  C   UNL     1       3.606  -0.870  23.718  0.00  0.00    +0.065 A 
ATOM     16  C   UNL     1       5.594  -0.253  23.331  0.00  0.00    +0.197 A 
ATOM     30  H   UNL     1       5.074   1.544  22.304  0.00  0.00    +0.167 HD
ENDROOT
BRANCH   8  14
ATOM      2  O   UNL     1      -0.007  -1.447  25.592  0.00  0.00    -0.274 OA
ATOM      7  N   UNL     1      -1.053  -2.038  23.597  0.00  0.00    -0.310 N 
ATOM     14  C   UNL     1      -0.025  -1.518  24.366  0.00  0.00    +0.231 C 
ATOM     31  H   UNL     1      -0.972  -2.040  22.585  0.00  0.00    +0.149 HD
BRANCH   7  17
ATOM     17  C   UNL     1      -2.268  -2.578  24.164  0.00  0.00    +0.139 C 
BRANCH  17  20
ATOM     20  C   UNL     1      -3.205  -1.496  24.617  0.00  0.00    -0.030 A 
ATOM     24  C   UNL     1      -3.322  -1.197  25.974  0.00  0.00    +0.009 A 
ATOM     25  C   UNL     1      -3.960  -0.790  23.681  0.00  0.00    +0.009 A 
ATOM     26  C   UNL     1      -4.193  -0.192  26.395  0.00  0.00    +0.046 A 
ATOM     27  C   UNL     1      -4.832   0.215  24.100  0.00  0.00    +0.046 A 
ATOM     28  C   UNL     1      -4.948   0.515  25.458  0.00  0.00    +0.120 A 
BRANCH  28   3
ATOM      3  O   UNL     1      -5.797   1.495  25.868  0.00  0.00    -0.495 OA
ATOM     29  C   UNL     1      -5.812   2.701  25.105  0.00  0.00    +0.277 C 
ENDBRANCH  28   3
ENDBRANCH  17  20
ENDBRANCH   7  17
ENDBRANCH   8  14
BRANCH   4  13
ATOM     13  C   UNL     1      -0.154   0.955  22.905  0.00  0.00    +0.120 C 
BRANCH  13  15
ATOM      1 CL   UNL     1      -3.061   4.495  26.799  0.00  0.00    -0.084 Cl
ATOM     15  C   UNL     1      -0.880   1.839  23.878  0.00  0.00    -0.033 A 
ATOM     18  C   UNL     1      -2.073   2.457  23.502  0.00  0.00    +0.006 A 
ATOM     19  C   UNL     1      -0.360   2.044  25.155  0.00  0.00    +0.006 A 
ATOM     21  C   UNL     1      -2.747   3.279  24.406  0.00  0.00    +0.020 A 
ATOM     22  C   UNL     1      -1.034   2.866  26.059  0.00  0.00    +0.020 A 
ATOM     23  C   UNL     1      -2.227   3.483  25.684  0.00  0.00    +0.041 A 
ENDBRANCH  13  15
ENDBRANCH   4  13
TORSDOF 6
ENDMDL
MODEL 2
REMARK VINA RESULT:       0.5      2.441      4.252
REMARK  Name = 26745299
REMARK  7 active torsions:
REMARK  status: ('A' for Active; 'I' for Inactive)
REMARK    1  A    between atoms: O_3  and  C_28
REMARK    2  A    between atoms: O_3  and  C_29
REMARK    3  A    between atoms: N_4  and  C_13
REMARK    4  A    between atoms: N_7  and  C_17
REMARK    5  A    between atoms: C_8  and  C_14
REMARK    6  A    between atoms: C_13  and  C_15
REMARK    7  A    between atoms: C_17  and  C_20
REMARK                            x       y       z     vdW  Elec       q    Type
REMARK                         _______ _______ _______ _____ _____    ______ ____
ROOT
ATOM      4  N   UNL     1      -0.170   0.367  24.566  0.00  0.00    -0.281 NA
ATOM      5  N   UNL     1       2.812  -0.803  22.626  0.00  0.00    -0.347 N 
ATOM      6  N   UNL     1       3.262   1.376  22.403  0.00  0.00    -0.240 NA
ATOM      8  C   UNL     1       0.487   1.634  24.996  0.00  0.00    +0.150 C 
ATOM      9  C   UNL     1       1.412   2.249  23.902  0.00  0.00    +0.085 C 
ATOM     10  C   UNL     1       0.824  -0.693  24.237  0.00  0.00    +0.140 C 
ATOM     11  C   UNL     1       1.900  -0.139  23.387  0.00  0.00    +0.053 A 
ATOM     12  C   UNL     1       2.199   1.190  23.240  0.00  0.00    +0.065 A 
ATOM     16  C   UNL     1       3.612   0.153  22.051  0.00  0.00    +0.197 A 
ATOM     30  H   UNL     1       2.892  -1.804  22.506  0.00  0.00    +0.167 HD
ENDROOT
BRANCH   8  14
ATOM      2  O   UNL     1      -0.872   2.960  26.442  0.00  0.00    -0.274 OA
ATOM      7  N   UNL     1      -1.144   3.163  24.139  0.00  0.00    -0.310 N 
ATOM     14  C   UNL     1      -0.570   2.655  25.292  0.00  0.00    +0.231 C 
ATOM     31  H   UNL     1      -0.812   2.850  23.231  0.00  0.00    +0.149 HD
BRANCH   7  17
ATOM     17  C   UNL     1      -2.204   4.146  24.151  0.00  0.00    +0.139 C 
BRANCH  17  20
ATOM     20  C   UNL     1      -3.486   3.583  24.693  0.00  0.00    -0.030 A 
ATOM     24  C   UNL     1      -3.918   3.935  25.971  0.00  0.00    +0.009 A 
ATOM     25  C   UNL     1      -4.245   2.705  23.918  0.00  0.00    +0.009 A 
ATOM     26  C   UNL     1      -5.108   3.411  26.475  0.00  0.00    +0.046 A 
ATOM     27  C   UNL     1      -5.435   2.181  24.421  0.00  0.00    +0.046 A 
ATOM     28  C   UNL     1      -5.868   2.534  25.699  0.00  0.00    +0.120 A 
BRANCH  28   3
ATOM      3  O   UNL     1      -7.029   2.023  26.190  0.00  0.00    -0.495 OA
ATOM     29  C   UNL     1      -6.958   1.331  27.436  0.00  0.00    +0.277 C 
ENDBRANCH  28   3
ENDBRANCH  17  20
ENDBRANCH   7  17
ENDBRANCH   8  14
BRANCH   4  13
ATOM     13  C   UNL     1      -1.093  -0.158  25.580  0.00  0.00    +0.120 C 
BRANCH  13  15
ATOM      1 CL   UNL     1      -5.469  -3.476  23.134  0.00  0.00    -0.084 Cl
ATOM     15  C   UNL     1      -2.186  -0.987  24.970  0.00  0.00    -0.033 A 
ATOM     18  C   UNL     1      -3.294  -0.365  24.394  0.00  0.00    +0.006 A 
ATOM     19  C   UNL     1      -2.093  -2.378  24.980  0.00  0.00    +0.006 A 
ATOM     21  C   UNL     1      -4.309  -1.135  23.827  0.00  0.00    +0.020 A 
ATOM     22  C   UNL     1      -3.109  -3.148  24.412  0.00  0.00    +0.020 A 
ATOM     23  C   UNL     1      -4.217  -2.527  23.837  0.00  0.00    +0.041 A 
ENDBRANCH  13  15
ENDBRANCH   4  13
TORSDOF 6
ENDMDL
MODEL 3
REMARK VINA RESULT:       1.2     14.697     16.939
REMARK  Name = 26745299
REMARK  7 active torsions:
REMARK  status: ('A' for Active; 'I' for Inactive)
REMARK    1  A    between atoms: O_3  and  C_28
REMARK    2  A    between atoms: O_3  and  C_29
REMARK    3  A    between atoms: N_4  and  C_13
REMARK    4  A    between atoms: N_7  and  C_17
REMARK    5  A    between atoms: C_8  and  C_14
REMARK    6  A    between atoms: C_13  and  C_15
REMARK    7  A    between atoms: C_17  and  C_20
REMARK                            x       y       z     vdW  Elec       q    Type
REMARK                         _______ _______ _______ _____ _____    ______ ____
ROOT
ATOM      4  N   UNL     1      -5.989 -10.120  11.745  0.00  0.00    -0.281 NA
ATOM      5  N   UNL     1      -6.338  -8.343   8.466  0.00  0.00    -0.347 N 
ATOM      6  N   UNL     1      -8.426  -7.927   9.150  0.00  0.00    -0.240 NA
ATOM      8  C   UNL     1      -7.018  -9.278  12.419  0.00  0.00    +0.150 C 
ATOM      9  C   UNL     1      -8.206  -8.893  11.485  0.00  0.00    +0.085 C 
ATOM     10  C   UNL     1      -5.375  -9.422  10.579  0.00  0.00    +0.140 C 
ATOM     11  C   UNL     1      -6.425  -8.798   9.746  0.00  0.00    +0.053 A 
ATOM     12  C   UNL     1      -7.708  -8.527  10.144  0.00  0.00    +0.065 A 
ATOM     16  C   UNL     1      -7.571  -7.827   8.150  0.00  0.00    +0.197 A 
ATOM     30  H   UNL     1      -5.528  -8.373   7.862  0.00  0.00    +0.167 HD
ENDROOT
BRANCH   8  14
ATOM      2  O   UNL     1      -6.911 -10.764  14.284  0.00  0.00    -0.274 OA
ATOM      7  N   UNL     1      -8.970  -9.864  13.676  0.00  0.00    -0.310 N 
ATOM     14  C   UNL     1      -7.602 -10.048  13.564  0.00  0.00    +0.231 C 
ATOM     31  H   UNL     1      -9.448  -9.239  13.034  0.00  0.00    +0.149 HD
BRANCH   7  17
ATOM     17  C   UNL     1      -9.775 -10.514  14.686  0.00  0.00    +0.139 C 
BRANCH  17  20
ATOM     20  C   UNL     1      -9.157 -10.408  16.051  0.00  0.00    -0.030 A 
ATOM     24  C   UNL     1      -9.903 -10.737  17.182  0.00  0.00    +0.009 A 
ATOM     25  C   UNL     1      -7.836  -9.979  16.186  0.00  0.00    +0.009 A 
ATOM     26  C   UNL     1      -9.328 -10.638  18.449  0.00  0.00    +0.046 A 
ATOM     27  C   UNL     1      -7.261  -9.880  17.453  0.00  0.00    +0.046 A 
ATOM     28  C   UNL     1      -8.007 -10.210  18.585  0.00  0.00    +0.120 A 
BRANCH  28   3
ATOM      3  O   UNL     1      -7.446 -10.114  19.821  0.00  0.00    -0.495 OA
ATOM     29  C   UNL     1      -6.038 -10.325  19.912  0.00  0.00    +0.277 C 
ENDBRANCH  28   3
ENDBRANCH  17  20
ENDBRANCH   7  17
ENDBRANCH   8  14
BRANCH   4  13
ATOM     13  C   UNL     1      -4.917 -10.533  12.658  0.00  0.00    +0.120 C 
BRANCH  13  15
ATOM      1 CL   UNL     1       0.499  -8.815  10.695  0.00  0.00    -0.084 Cl
ATOM     15  C   UNL     1      -3.564 -10.104  12.167  0.00  0.00    -0.033 A 
ATOM     18  C   UNL     1      -2.432 -10.350  12.943  0.00  0.00    +0.006 A 
ATOM     19  C   UNL     1      -3.442  -9.458  10.938  0.00  0.00    +0.006 A 
ATOM     21  C   UNL     1      -1.175  -9.950  12.487  0.00  0.00    +0.020 A 
ATOM     22  C   UNL     1      -2.185  -9.059  10.482  0.00  0.00    +0.020 A 
ATOM     23  C   UNL     1      -1.052  -9.305  11.257  0.00  0.00    +0.041 A 
ENDBRANCH  13  15
ENDBRANCH   4  13
TORSDOF 6
ENDMDL
MODEL 4
REMARK VINA RESULT:       2.6      2.322      6.967
REMARK  Name = 26745299
REMARK  7 active torsions:
REMARK  status: ('A' for Active; 'I' for Inactive)
REMARK    1  A    between atoms: O_3  and  C_28
REMARK    2  A    between atoms: O_3  and  C_29
REMARK    3  A    between atoms: N_4  and  C_13
REMARK    4  A    between atoms: N_7  and  C_17
REMARK    5  A    between atoms: C_8  and  C_14
REMARK    6  A    between atoms: C_13  and  C_15
REMARK    7  A    between atoms: C_17  and  C_20
REMARK                            x       y       z     vdW  Elec       q    Type
REMARK                         _______ _______ _______ _____ _____    ______ ____
ROOT
ATOM      4  N   UNL     1      -1.676   0.860  24.316  0.00  0.00    -0.281 NA
ATOM      5  N   UNL     1      -4.200  -1.798  25.082  0.00  0.00    -0.347 N 
ATOM      6  N   UNL     1      -2.581  -3.218  24.478  0.00  0.00    -0.240 NA
ATOM      8  C   UNL     1      -0.513  -0.025  24.610  0.00  0.00    +0.150 C 
ATOM      9  C   UNL     1      -0.738  -1.503  24.170  0.00  0.00    +0.085 C 
ATOM     10  C   UNL     1      -2.910   0.413  25.022  0.00  0.00    +0.140 C 
ATOM     11  C   UNL     1      -3.085  -1.047  24.870  0.00  0.00    +0.053 A 
ATOM     12  C   UNL     1      -2.108  -1.937  24.508  0.00  0.00    +0.065 A 
ATOM     16  C   UNL     1      -3.847  -3.101  24.832  0.00  0.00    +0.197 A 
ATOM     30  H   UNL     1      -5.111  -1.468  25.371  0.00  0.00    +0.167 HD
ENDROOT
BRANCH   8  14
ATOM      2  O   UNL     1       1.309   1.466  24.216  0.00  0.00    -0.274 OA
ATOM      7  N   UNL     1       0.951  -0.293  22.734  0.00  0.00    -0.310 N 
ATOM     14  C   UNL     1       0.682   0.474  23.855  0.00  0.00    +0.231 C 
ATOM     31  H   UNL     1       0.374  -1.105  22.530  0.00  0.00    +0.149 HD
BRANCH   7  17
ATOM     17  C   UNL     1       2.037  -0.010  21.824  0.00  0.00    +0.139 C 
BRANCH  17  20
ATOM     20  C   UNL     1       3.374  -0.095  22.502  0.00  0.00    -0.030 A 
ATOM     24  C   UNL     1       3.739  -1.257  23.181  0.00  0.00    +0.009 A 
ATOM     25  C   UNL     1       4.251   0.989  22.453  0.00  0.00    +0.009 A 
ATOM     26  C   UNL     1       4.981  -1.335  23.812  0.00  0.00    +0.046 A 
ATOM     27  C   UNL     1       5.493   0.911  23.083  0.00  0.00    +0.046 A 
ATOM     28  C   UNL     1       5.858  -0.251  23.762  0.00  0.00    +0.120 A 
BRANCH  28   3
ATOM      3  O   UNL     1       7.070  -0.328  24.377  0.00  0.00    -0.495 OA
ATOM     29  C   UNL     1       8.224  -0.129  23.562  0.00  0.00    +0.277 C 
ENDBRANCH  28   3
ENDBRANCH  17  20
ENDBRANCH   7  17
ENDBRANCH   8  14
BRANCH   4  13
ATOM     13  C   UNL     1      -1.417   2.262  24.670  0.00  0.00    +0.120 C 
BRANCH  13  15
ATOM      1 CL   UNL     1      -6.506   5.307  25.654  0.00  0.00    -0.084 Cl
ATOM     15  C   UNL     1      -2.689   3.022  24.916  0.00  0.00    -0.033 A 
ATOM     18  C   UNL     1      -2.805   3.841  26.039  0.00  0.00    +0.006 A 
ATOM     19  C   UNL     1      -3.753   2.908  24.022  0.00  0.00    +0.006 A 
ATOM     21  C   UNL     1      -3.986   4.547  26.267  0.00  0.00    +0.020 A 
ATOM     22  C   UNL     1      -4.934   3.614  24.251  0.00  0.00    +0.020 A 
ATOM     23  C   UNL     1      -5.051   4.433  25.373  0.00  0.00    +0.041 A 
ENDBRANCH  13  15
ENDBRANCH   4  13
TORSDOF 6
ENDMDL
MODEL 5
REMARK VINA RESULT:       3.0     13.906     15.856
REMARK  Name = 26745299
REMARK  7 active torsions:
REMARK  status: ('A' for Active; 'I' for Inactive)
REMARK    1  A    between atoms: O_3  and  C_28
REMARK    2  A    between atoms: O_3  and  C_29
REMARK    3  A    between atoms: N_4  and  C_13
REMARK    4  A    between atoms: N_7  and  C_17
REMARK    5  A    between atoms: C_8  and  C_14
REMARK    6  A    between atoms: C_13  and  C_15
REMARK    7  A    between atoms: C_17  and  C_20
REMARK                            x       y       z     vdW  Elec       q    Type
REMARK                         _______ _______ _______ _____ _____    ______ ____
ROOT
ATOM      4  N   UNL     1      -3.934 -10.300  12.357  0.00  0.00    -0.281 NA
ATOM      5  N   UNL     1      -4.484  -9.141   8.838  0.00  0.00    -0.347 N 
ATOM      6  N   UNL     1      -6.570  -8.719   9.523  0.00  0.00    -0.240 NA
ATOM      8  C   UNL     1      -4.989  -9.408  12.917  0.00  0.00    +0.150 C 
ATOM      9  C   UNL     1      -6.224  -9.252  11.979  0.00  0.00    +0.085 C 
ATOM     10  C   UNL     1      -3.397  -9.785  11.066  0.00  0.00    +0.140 C 
ATOM     11  C   UNL     1      -4.505  -9.370  10.180  0.00  0.00    +0.053 A 
ATOM     12  C   UNL     1      -5.789  -9.100  10.577  0.00  0.00    +0.065 A 
ATOM     16  C   UNL     1      -5.753  -8.751   8.488  0.00  0.00    +0.197 A 
ATOM     30  H   UNL     1      -3.691  -9.234   8.217  0.00  0.00    +0.167 HD
ENDROOT
BRANCH   8  14
ATOM      2  O   UNL     1      -4.738 -10.265  15.130  0.00  0.00    -0.274 OA
ATOM      7  N   UNL     1      -6.862 -10.202  14.180  0.00  0.00    -0.310 N 
ATOM     14  C   UNL     1      -5.493  -9.995  14.200  0.00  0.00    +0.231 C 
ATOM     31  H   UNL     1      -7.400  -9.932  13.361  0.00  0.00    +0.149 HD
BRANCH   7  17
ATOM     17  C   UNL     1      -7.592 -10.779  15.287  0.00  0.00    +0.139 C 
BRANCH  17  20
ATOM     20  C   UNL     1      -8.412  -9.753  16.015  0.00  0.00    -0.030 A 
ATOM     24  C   UNL     1      -9.379  -9.019  15.329  0.00  0.00    +0.009 A 
ATOM     25  C   UNL     1      -8.205  -9.533  17.376  0.00  0.00    +0.009 A 
ATOM     26  C   UNL     1     -10.140  -8.065  16.005  0.00  0.00    +0.046 A 
ATOM     27  C   UNL     1      -8.966  -8.579  18.053  0.00  0.00    +0.046 A 
ATOM     28  C   UNL     1      -9.934  -7.846  17.367  0.00  0.00    +0.120 A 
BRANCH  28   3
ATOM      3  O   UNL     1     -10.677  -6.916  18.027  0.00  0.00    -0.495 OA
ATOM     29  C   UNL     1     -10.523  -5.557  17.621  0.00  0.00    +0.277 C 
ENDBRANCH  28   3
ENDBRANCH  17  20
ENDBRANCH   7  17
ENDBRANCH   8  14
BRANCH   4  13
ATOM     13  C   UNL     1      -2.813 -10.493  13.285  0.00  0.00    +0.120 C 
BRANCH  13  15
ATOM      1 CL   UNL     1       1.863  -6.970  11.921  0.00  0.00    -0.084 Cl
ATOM     15  C   UNL     1      -1.645  -9.613  12.945  0.00  0.00    -0.033 A 
ATOM     18  C   UNL     1      -1.162  -9.571  11.638  0.00  0.00    +0.006 A 
ATOM     19  C   UNL     1      -1.043  -8.840  13.937  0.00  0.00    +0.006 A 
ATOM     21  C   UNL     1      -0.076  -8.754  11.321  0.00  0.00    +0.020 A 
ATOM     22  C   UNL     1       0.043  -8.023  13.620  0.00  0.00    +0.020 A 
ATOM     23  C   UNL     1       0.526  -7.980  12.313  0.00  0.00    +0.041 A 
ENDBRANCH  13  15
ENDBRANCH   4  13
TORSDOF 6
ENDMDL
