MODEL 1
REMARK VINA RESULT:       3.1      0.000      0.000
REMARK  Name = 11941698
REMARK  5 active torsions:
REMARK  status: ('A' for Active; 'I' for Inactive)
REMARK    1  A    between atoms: O_3  and  C_18
REMARK    2  A    between atoms: O_3  and  C_25
REMARK    3  A    between atoms: C_15  and  C_18
REMARK    4  A    between atoms: C_16  and  C_19
REMARK    5  A    between atoms: C_20  and  C_23
REMARK                            x       y       z     vdW  Elec       q    Type
REMARK                         _______ _______ _______ _____ _____    ______ ____
ROOT
ATOM      1  O   UNL     1      -0.447   1.672  26.396  0.00  0.00    -0.267 OA
ATOM      2  O   UNL     1      -5.705   2.288  27.147  0.00  0.00    -0.272 OA
ATOM      4  N   UNL     1      -4.977   3.566  25.349  0.00  0.00    -0.298 N 
ATOM      5  N   UNL     1      -1.873   2.894  25.015  0.00  0.00    -0.311 N 
ATOM      6  C   UNL     1      -3.018   5.052  25.782  0.00  0.00    +0.027 C 
ATOM      7  C   UNL     1      -3.421   4.194  23.512  0.00  0.00    +0.054 C 
ATOM      8  C   UNL     1      -2.989   5.427  24.305  0.00  0.00    +0.018 C 
ATOM      9  C   UNL     1      -4.434   4.623  26.202  0.00  0.00    +0.113 C 
ATOM     10  C   UNL     1      -1.982   3.949  26.032  0.00  0.00    +0.130 C 
ATOM     11  C   UNL     1      -4.861   3.808  23.903  0.00  0.00    +0.117 C 
ATOM     12  C   UNL     1      -2.488   3.026  23.767  0.00  0.00    +0.027 A 
ATOM     13  C   UNL     1      -2.276   2.108  22.812  0.00  0.00    +0.022 A 
ATOM     14  C   UNL     1      -1.033   1.804  25.321  0.00  0.00    +0.259 A 
ATOM     15  C   UNL     1      -5.620   2.472  25.931  0.00  0.00    +0.253 C 
ATOM     16  C   UNL     1      -0.845   0.773  24.242  0.00  0.00    +0.047 A 
ATOM     17  C   UNL     1      -1.446   0.963  23.058  0.00  0.00    +0.015 A 
ENDROOT
BRANCH  16  19
ATOM     19  C   UNL     1      -0.026  -0.430  24.471  0.00  0.00    -0.010 A 
ATOM     20  C   UNL     1       1.200  -0.611  23.828  0.00  0.00    -0.043 A 
ATOM     21  C   UNL     1      -0.495  -1.406  25.354  0.00  0.00    +0.009 A 
ATOM     22  C   UNL     1       1.953  -1.760  24.065  0.00  0.00    +0.004 A 
ATOM     23  C   UNL     1       1.737   0.411  22.876  0.00  0.00    +0.044 C 
ATOM     24  C   UNL     1       0.258  -2.556  25.591  0.00  0.00    +0.001 A 
ATOM     26  C   UNL     1       1.482  -2.732  24.947  0.00  0.00    +0.000 A 
ENDBRANCH  16  19
BRANCH  15  18
ATOM     18  C   UNL     1      -6.230   1.468  24.988  0.00  0.00    +0.324 C 
BRANCH  18   3
ATOM      3  O   UNL     1      -5.185   0.992  24.175  0.00  0.00    -0.483 OA
BRANCH   3  25
ATOM     25  C   UNL     1      -4.582  -0.189  24.546  0.00  0.00    +0.121 A 
ATOM     27  C   UNL     1      -4.533  -1.243  23.647  0.00  0.00    +0.045 A 
ATOM     28  C   UNL     1      -4.033  -0.304  25.815  0.00  0.00    +0.045 A 
ATOM     29  C   UNL     1      -3.923  -2.439  24.023  0.00  0.00    +0.004 A 
ATOM     30  C   UNL     1      -3.423  -1.500  26.193  0.00  0.00    +0.004 A 
ATOM     31  C   UNL     1      -3.368  -2.568  25.296  0.00  0.00    +0.000 A 
ENDBRANCH   3  25
ENDBRANCH  18   3
ENDBRANCH  15  18
TORSDOF 4
ENDMDL
MODEL 2
REMARK VINA RESULT:       4.9      1.391      2.419
REMARK  Name = 11941698
REMARK  5 active torsions:
REMARK  status: ('A' for Active; 'I' for Inactive)
REMARK    1  A    between atoms: O_3  and  C_18
REMARK    2  A    between atoms: O_3  and  C_25
REMARK    3  A    between atoms: C_15  and  C_18
REMARK    4  A    between atoms: C_16  and  C_19
REMARK    5  A    between atoms: C_20  and  C_23
REMARK                            x       y       z     vdW  Elec       q    Type
REMARK                         _______ _______ _______ _____ _____    ______ ____
ROOT
ATOM      1  O   UNL     1       0.084   2.258  25.593  0.00  0.00    -0.267 OA
ATOM      2  O   UNL     1      -4.618  -0.031  26.709  0.00  0.00    -0.272 OA
ATOM      4  N   UNL     1      -4.909   1.811  25.324  0.00  0.00    -0.298 N 
ATOM      5  N   UNL     1      -1.969   2.880  24.681  0.00  0.00    -0.311 N 
ATOM      6  C   UNL     1      -3.836   3.934  26.082  0.00  0.00    +0.027 C 
ATOM      7  C   UNL     1      -4.187   3.534  23.680  0.00  0.00    +0.054 C 
ATOM      8  C   UNL     1      -4.251   4.598  24.774  0.00  0.00    +0.018 C 
ATOM      9  C   UNL     1      -4.784   2.771  26.421  0.00  0.00    +0.113 C 
ATOM     10  C   UNL     1      -2.378   3.474  25.962  0.00  0.00    +0.130 C 
ATOM     11  C   UNL     1      -5.181   2.401  24.004  0.00  0.00    +0.117 C 
ATOM     12  C   UNL     1      -2.786   2.966  23.551  0.00  0.00    +0.027 A 
ATOM     13  C   UNL     1      -2.342   2.524  22.364  0.00  0.00    +0.022 A 
ATOM     14  C   UNL     1      -0.677   2.321  24.627  0.00  0.00    +0.259 A 
ATOM     15  C   UNL     1      -4.847   0.443  25.594  0.00  0.00    +0.253 C 
ATOM     16  C   UNL     1      -0.222   1.800  23.291  0.00  0.00    +0.047 A 
ATOM     17  C   UNL     1      -1.042   1.928  22.237  0.00  0.00    +0.015 A 
ENDROOT
BRANCH  16  19
ATOM     19  C   UNL     1       1.092   1.153  23.131  0.00  0.00    -0.010 A 
ATOM     20  C   UNL     1       1.206  -0.166  22.689  0.00  0.00    -0.043 A 
ATOM     21  C   UNL     1       2.243   1.885  23.431  0.00  0.00    +0.009 A 
ATOM     22  C   UNL     1       2.464  -0.751  22.547  0.00  0.00    +0.004 A 
ATOM     23  C   UNL     1      -0.002  -0.983  22.357  0.00  0.00    +0.044 C 
ATOM     24  C   UNL     1       3.501   1.300  23.290  0.00  0.00    +0.001 A 
ATOM     26  C   UNL     1       3.612  -0.018  22.848  0.00  0.00    +0.000 A 
ENDBRANCH  16  19
BRANCH  15  18
ATOM     18  C   UNL     1      -5.072  -0.486  24.430  0.00  0.00    +0.324 C 
BRANCH  18   3
ATOM      3  O   UNL     1      -3.857  -0.545  23.722  0.00  0.00    -0.483 OA
BRANCH   3  25
ATOM     25  C   UNL     1      -2.801  -1.186  24.330  0.00  0.00    +0.121 A 
ATOM     27  C   UNL     1      -1.923  -0.458  25.118  0.00  0.00    +0.045 A 
ATOM     28  C   UNL     1      -2.633  -2.550  24.144  0.00  0.00    +0.045 A 
ATOM     29  C   UNL     1      -0.853  -1.106  25.733  0.00  0.00    +0.004 A 
ATOM     30  C   UNL     1      -1.564  -3.200  24.759  0.00  0.00    +0.004 A 
ATOM     31  C   UNL     1      -0.673  -2.478  25.554  0.00  0.00    +0.000 A 
ENDBRANCH   3  25
ENDBRANCH  18   3
ENDBRANCH  15  18
TORSDOF 4
ENDMDL
MODEL 3
REMARK VINA RESULT:       6.6      1.794      4.548
REMARK  Name = 11941698
REMARK  5 active torsions:
REMARK  status: ('A' for Active; 'I' for Inactive)
REMARK    1  A    between atoms: O_3  and  C_18
REMARK    2  A    between atoms: O_3  and  C_25
REMARK    3  A    between atoms: C_15  and  C_18
REMARK    4  A    between atoms: C_16  and  C_19
REMARK    5  A    between atoms: C_20  and  C_23
REMARK                            x       y       z     vdW  Elec       q    Type
REMARK                         _______ _______ _______ _____ _____    ______ ____
ROOT
ATOM      1  O   UNL     1      -3.716   0.648  22.479  0.00  0.00    -0.267 OA
ATOM      2  O   UNL     1      -0.057   4.090  24.310  0.00  0.00    -0.272 OA
ATOM      4  N   UNL     1      -2.170   4.640  25.103  0.00  0.00    -0.298 N 
ATOM      5  N   UNL     1      -4.120   2.358  24.012  0.00  0.00    -0.311 N 
ATOM      6  C   UNL     1      -3.970   4.835  23.384  0.00  0.00    +0.027 C 
ATOM      7  C   UNL     1      -4.547   4.191  25.686  0.00  0.00    +0.054 C 
ATOM      8  C   UNL     1      -4.995   5.035  24.494  0.00  0.00    +0.018 C 
ATOM      9  C   UNL     1      -2.574   5.281  23.851  0.00  0.00    +0.113 C 
ATOM     10  C   UNL     1      -3.992   3.364  22.949  0.00  0.00    +0.130 C 
ATOM     11  C   UNL     1      -3.172   4.683  26.179  0.00  0.00    +0.117 C 
ATOM     12  C   UNL     1      -4.465   2.722  25.316  0.00  0.00    +0.027 A 
ATOM     13  C   UNL     1      -4.694   1.777  26.241  0.00  0.00    +0.022 A 
ATOM     14  C   UNL     1      -3.985   1.009  23.626  0.00  0.00    +0.259 A 
ATOM     15  C   UNL     1      -0.882   4.117  25.226  0.00  0.00    +0.253 C 
ATOM     16  C   UNL     1      -4.212  -0.026  24.694  0.00  0.00    +0.047 A 
ATOM     17  C   UNL     1      -4.560   0.384  25.922  0.00  0.00    +0.015 A 
ENDROOT
BRANCH  16  19
ATOM     19  C   UNL     1      -4.052  -1.463  24.410  0.00  0.00    -0.010 A 
ATOM     20  C   UNL     1      -3.435  -2.321  25.323  0.00  0.00    -0.043 A 
ATOM     21  C   UNL     1      -4.530  -1.967  23.199  0.00  0.00    +0.009 A 
ATOM     22  C   UNL     1      -3.299  -3.676  25.027  0.00  0.00    +0.004 A 
ATOM     23  C   UNL     1      -2.911  -1.819  26.631  0.00  0.00    +0.044 C 
ATOM     24  C   UNL     1      -4.392  -3.323  22.903  0.00  0.00    +0.001 A 
ATOM     26  C   UNL     1      -3.777  -4.178  23.816  0.00  0.00    +0.000 A 
ENDBRANCH  16  19
BRANCH  15  18
ATOM     18  C   UNL     1      -0.508   3.551  26.572  0.00  0.00    +0.324 C 
BRANCH  18   3
ATOM      3  O   UNL     1       0.532   2.631  26.347  0.00  0.00    -0.483 OA
BRANCH   3  25
ATOM     25  C   UNL     1       0.288   1.605  25.461  0.00  0.00    +0.121 A 
ATOM     27  C   UNL     1       0.971   1.568  24.254  0.00  0.00    +0.045 A 
ATOM     28  C   UNL     1      -0.636   0.626  25.790  0.00  0.00    +0.045 A 
ATOM     29  C   UNL     1       0.724   0.531  23.357  0.00  0.00    +0.004 A 
ATOM     30  C   UNL     1      -0.884  -0.414  24.894  0.00  0.00    +0.004 A 
ATOM     31  C   UNL     1      -0.204  -0.461  23.676  0.00  0.00    +0.000 A 
ENDBRANCH   3  25
ENDBRANCH  18   3
ENDBRANCH  15  18
TORSDOF 4
ENDMDL
MODEL 4
REMARK VINA RESULT:       6.7      2.063      5.747
REMARK  Name = 11941698
REMARK  5 active torsions:
REMARK  status: ('A' for Active; 'I' for Inactive)
REMARK    1  A    between atoms: O_3  and  C_18
REMARK    2  A    between atoms: O_3  and  C_25
REMARK    3  A    between atoms: C_15  and  C_18
REMARK    4  A    between atoms: C_16  and  C_19
REMARK    5  A    between atoms: C_20  and  C_23
REMARK                            x       y       z     vdW  Elec       q    Type
REMARK                         _______ _______ _______ _____ _____    ______ ____
ROOT
ATOM      1  O   UNL     1      -0.165   1.425  22.947  0.00  0.00    -0.267 OA
ATOM      2  O   UNL     1      -4.355  -1.890  22.716  0.00  0.00    -0.272 OA
ATOM      4  N   UNL     1      -2.936  -2.479  24.460  0.00  0.00    -0.298 N 
ATOM      5  N   UNL     1      -0.633  -0.267  24.482  0.00  0.00    -0.311 N 
ATOM      6  C   UNL     1      -0.526  -2.751  23.868  0.00  0.00    +0.027 C 
ATOM      7  C   UNL     1      -1.155  -2.081  26.150  0.00  0.00    +0.054 C 
ATOM      8  C   UNL     1      -0.199  -2.957  25.342  0.00  0.00    +0.018 C 
ATOM      9  C   UNL     1      -1.982  -3.152  23.578  0.00  0.00    +0.113 C 
ATOM     10  C   UNL     1      -0.245  -1.289  23.499  0.00  0.00    +0.130 C 
ATOM     11  C   UNL     1      -2.607  -2.529  25.892  0.00  0.00    +0.117 C 
ATOM     12  C   UNL     1      -0.996  -0.618  25.785  0.00  0.00    +0.027 A 
ATOM     13  C   UNL     1      -1.229   0.337  26.698  0.00  0.00    +0.022 A 
ATOM     14  C   UNL     1      -0.515   1.077  24.077  0.00  0.00    +0.259 A 
ATOM     15  C   UNL     1      -4.098  -1.921  23.922  0.00  0.00    +0.253 C 
ATOM     16  C   UNL     1      -0.819   2.125  25.113  0.00  0.00    +0.047 A 
ATOM     17  C   UNL     1      -1.143   1.728  26.352  0.00  0.00    +0.015 A 
ENDROOT
BRANCH  16  19
ATOM     19  C   UNL     1      -0.772   3.560  24.784  0.00  0.00    -0.010 A 
ATOM     20  C   UNL     1      -1.599   4.483  25.428  0.00  0.00    -0.043 A 
ATOM     21  C   UNL     1       0.123   3.997  23.804  0.00  0.00    +0.009 A 
ATOM     22  C   UNL     1      -1.531   5.835  25.095  0.00  0.00    +0.004 A 
ATOM     23  C   UNL     1      -2.570   4.054  26.482  0.00  0.00    +0.044 C 
ATOM     24  C   UNL     1       0.189   5.350  23.472  0.00  0.00    +0.001 A 
ATOM     26  C   UNL     1      -0.637   6.269  24.117  0.00  0.00    +0.000 A 
ENDBRANCH  16  19
BRANCH  15  18
ATOM     18  C   UNL     1      -5.075  -1.323  24.900  0.00  0.00    +0.324 C 
BRANCH  18   3
ATOM      3  O   UNL     1      -4.395  -0.285  25.564  0.00  0.00    -0.483 OA
BRANCH   3  25
ATOM     25  C   UNL     1      -4.550   0.991  25.069  0.00  0.00    +0.121 A 
ATOM     27  C   UNL     1      -3.848   1.374  23.936  0.00  0.00    +0.045 A 
ATOM     28  C   UNL     1      -5.407   1.871  25.713  0.00  0.00    +0.045 A 
ATOM     29  C   UNL     1      -4.004   2.666  23.436  0.00  0.00    +0.004 A 
ATOM     30  C   UNL     1      -5.565   3.164  25.212  0.00  0.00    +0.004 A 
ATOM     31  C   UNL     1      -4.863   3.561  24.074  0.00  0.00    +0.000 A 
ENDBRANCH   3  25
ENDBRANCH  18   3
ENDBRANCH  15  18
TORSDOF 4
ENDMDL
