MODEL 1
REMARK VINA RESULT:      -5.0      0.000      0.000
REMARK  Name = 11882527
REMARK  9 active torsions:
REMARK  status: ('A' for Active; 'I' for Inactive)
REMARK    1  A    between atoms: S_1  and  N_9
REMARK    2  A    between atoms: S_1  and  C_19
REMARK    3  A    between atoms: O_3  and  C_12
REMARK    4  A    between atoms: O_4  and  C_14
REMARK    5  A    between atoms: N_9  and  C_13
REMARK    6  A    between atoms: N_10  and  C_20
REMARK    7  A    between atoms: C_16  and  C_18
REMARK    8  A    between atoms: C_20  and  C_22
REMARK    9  A    between atoms: C_22  and  C_25
REMARK                            x       y       z     vdW  Elec       q    Type
REMARK                         _______ _______ _______ _____ _____    ______ ____
ROOT
ATOM     12  C   UNL     1      -1.375  -1.913  25.089  0.00  0.00    +0.166 C 
ATOM     13  C   UNL     1      -0.770  -1.101  23.929  0.00  0.00    +0.131 C 
ATOM     14  C   UNL     1      -2.907  -1.828  25.092  0.00  0.00    +0.149 C 
ATOM     15  C   UNL     1      -3.406  -0.373  25.143  0.00  0.00    +0.074 C 
ATOM     16  C   UNL     1      -2.578   0.570  24.317  0.00  0.00    +0.014 C 
ATOM     17  C   UNL     1      -1.399   0.256  23.760  0.00  0.00    +0.004 C 
ENDROOT
BRANCH  16  18
ATOM      7  O   UNL     1      -3.190   2.377  22.944  0.00  0.00    -0.271 OA
ATOM     10  N   UNL     1      -3.446   2.576  25.252  0.00  0.00    -0.311 N 
ATOM     18  C   UNL     1      -3.097   1.922  24.083  0.00  0.00    +0.240 C 
ATOM     29  H   UNL     1      -3.311   2.138  26.156  0.00  0.00    +0.149 HD
BRANCH  10  20
ATOM     20  C   UNL     1      -3.978   3.919  25.277  0.00  0.00    +0.113 C 
BRANCH  20  22
ATOM     22  C   UNL     1      -5.488   3.935  25.475  0.00  0.00    +0.114 C 
BRANCH  22  25
ATOM      8  O   UNL     1      -6.334   1.796  24.695  0.00  0.00    -0.276 OA
ATOM     11  N   UNL     1      -6.346   2.239  26.951  0.00  0.00    -0.329 N 
ATOM     25  C   UNL     1      -6.090   2.551  25.633  0.00  0.00    +0.212 C 
ATOM     30  H   UNL     1      -6.752   1.345  27.207  0.00  0.00    +0.145 HD
ATOM     31  H   UNL     1      -6.139   2.881  27.710  0.00  0.00    +0.145 HD
ENDBRANCH  22  25
ENDBRANCH  20  22
ENDBRANCH  10  20
ENDBRANCH  16  18
BRANCH  12   3
ATOM      3  O   UNL     1      -0.887  -1.413  26.336  0.00  0.00    -0.387 OA
ATOM     27  H   UNL     1      -0.261  -2.069  26.689  0.00  0.00    +0.210 HD
ENDBRANCH  12   3
BRANCH  14   4
ATOM      4  O   UNL     1      -3.438  -2.487  23.944  0.00  0.00    -0.389 OA
ATOM     28  H   UNL     1      -2.687  -2.739  23.379  0.00  0.00    +0.210 HD
ENDBRANCH  14   4
BRANCH  13   9
ATOM      9  N   UNL     1       0.690  -0.942  24.136  0.00  0.00    -0.180 NA
ATOM     26  H   UNL     1       1.173  -1.766  24.515  0.00  0.00    +0.149 HD
BRANCH   9   1
ATOM      1  S   UNL     1       1.543   0.063  23.046  0.00  0.00    +0.065 S 
ATOM      5  O   UNL     1       1.344   1.451  23.413  0.00  0.00    -0.153 OA
ATOM      6  O   UNL     1       1.298  -0.402  21.694  0.00  0.00    -0.153 OA
BRANCH   1  19
ATOM      2  S   UNL     1       4.294   1.004  22.742  0.00  0.00    -0.077 S 
ATOM     19  C   UNL     1       3.290  -0.251  23.291  0.00  0.00    +0.142 A 
ATOM     21  C   UNL     1       3.958  -1.299  23.831  0.00  0.00    +0.036 A 
ATOM     23  C   UNL     1       5.365  -1.078  23.800  0.00  0.00    +0.010 A 
ATOM     24  C   UNL     1       5.685   0.136  23.234  0.00  0.00    +0.047 A 
ENDBRANCH   1  19
ENDBRANCH   9   1
ENDBRANCH  13   9
TORSDOF 9
ENDMDL
MODEL 2
REMARK VINA RESULT:      -5.0      2.976      7.648
REMARK  Name = 11882527
REMARK  9 active torsions:
REMARK  status: ('A' for Active; 'I' for Inactive)
REMARK    1  A    between atoms: S_1  and  N_9
REMARK    2  A    between atoms: S_1  and  C_19
REMARK    3  A    between atoms: O_3  and  C_12
REMARK    4  A    between atoms: O_4  and  C_14
REMARK    5  A    between atoms: N_9  and  C_13
REMARK    6  A    between atoms: N_10  and  C_20
REMARK    7  A    between atoms: C_16  and  C_18
REMARK    8  A    between atoms: C_20  and  C_22
REMARK    9  A    between atoms: C_22  and  C_25
REMARK                            x       y       z     vdW  Elec       q    Type
REMARK                         _______ _______ _______ _____ _____    ______ ____
ROOT
ATOM     12  C   UNL     1      -1.772   3.920  25.674  0.00  0.00    +0.166 C 
ATOM     13  C   UNL     1      -2.562   2.870  24.871  0.00  0.00    +0.131 C 
ATOM     14  C   UNL     1      -0.453   4.281  24.977  0.00  0.00    +0.149 C 
ATOM     15  C   UNL     1       0.421   3.042  24.715  0.00  0.00    +0.074 C 
ATOM     16  C   UNL     1      -0.368   1.832  24.303  0.00  0.00    +0.014 C 
ATOM     17  C   UNL     1      -1.705   1.743  24.360  0.00  0.00    +0.004 C 
ENDROOT
BRANCH  16  18
ATOM      7  O   UNL     1      -0.124  -0.456  23.824  0.00  0.00    -0.271 OA
ATOM     10  N   UNL     1       1.610   1.003  23.279  0.00  0.00    -0.311 N 
ATOM     18  C   UNL     1       0.365   0.673  23.785  0.00  0.00    +0.240 C 
ATOM     29  H   UNL     1       1.950   1.957  23.310  0.00  0.00    +0.149 HD
BRANCH  10  20
ATOM     20  C   UNL     1       2.517   0.030  22.715  0.00  0.00    +0.113 C 
BRANCH  20  22
ATOM     22  C   UNL     1       3.942   0.558  22.623  0.00  0.00    +0.114 C 
BRANCH  22  25
ATOM      8  O   UNL     1       6.100   0.098  23.639  0.00  0.00    -0.276 OA
ATOM     11  N   UNL     1       4.383  -1.397  23.956  0.00  0.00    -0.329 N 
ATOM     25  C   UNL     1       4.935  -0.240  23.449  0.00  0.00    +0.212 C 
ATOM     30  H   UNL     1       4.933  -2.032  24.525  0.00  0.00    +0.145 HD
ATOM     31  H   UNL     1       3.417  -1.659  23.783  0.00  0.00    +0.145 HD
ENDBRANCH  22  25
ENDBRANCH  20  22
ENDBRANCH  10  20
ENDBRANCH  16  18
BRANCH  12   3
ATOM      3  O   UNL     1      -1.476   3.412  26.977  0.00  0.00    -0.387 OA
ATOM     27  H   UNL     1      -2.088   2.677  27.150  0.00  0.00    +0.210 HD
ENDBRANCH  12   3
BRANCH  14   4
ATOM      4  O   UNL     1      -0.716   4.963  23.752  0.00  0.00    -0.389 OA
ATOM     28  H   UNL     1      -1.067   5.841  23.976  0.00  0.00    +0.210 HD
ENDBRANCH  14   4
BRANCH  13   9
ATOM      9  N   UNL     1      -3.653   2.315  25.709  0.00  0.00    -0.180 NA
ATOM     26  H   UNL     1      -3.896   2.870  26.539  0.00  0.00    +0.149 HD
BRANCH   9   1
ATOM      1  S   UNL     1      -4.902   1.455  24.919  0.00  0.00    +0.065 S 
ATOM      5  O   UNL     1      -5.072   1.975  23.576  0.00  0.00    -0.153 OA
ATOM      6  O   UNL     1      -6.026   1.326  25.826  0.00  0.00    -0.153 OA
BRANCH   1  19
ATOM      2  S   UNL     1      -3.460  -0.831  26.037  0.00  0.00    -0.077 S 
ATOM     19  C   UNL     1      -4.333  -0.232  24.709  0.00  0.00    +0.142 A 
ATOM     21  C   UNL     1      -4.469  -1.116  23.691  0.00  0.00    +0.036 A 
ATOM     23  C   UNL     1      -3.830  -2.351  24.000  0.00  0.00    +0.010 A 
ATOM     24  C   UNL     1      -3.243  -2.333  25.245  0.00  0.00    +0.047 A 
ENDBRANCH   1  19
ENDBRANCH   9   1
ENDBRANCH  13   9
TORSDOF 9
ENDMDL
MODEL 3
REMARK VINA RESULT:      -4.6      2.774      7.160
REMARK  Name = 11882527
REMARK  9 active torsions:
REMARK  status: ('A' for Active; 'I' for Inactive)
REMARK    1  A    between atoms: S_1  and  N_9
REMARK    2  A    between atoms: S_1  and  C_19
REMARK    3  A    between atoms: O_3  and  C_12
REMARK    4  A    between atoms: O_4  and  C_14
REMARK    5  A    between atoms: N_9  and  C_13
REMARK    6  A    between atoms: N_10  and  C_20
REMARK    7  A    between atoms: C_16  and  C_18
REMARK    8  A    between atoms: C_20  and  C_22
REMARK    9  A    between atoms: C_22  and  C_25
REMARK                            x       y       z     vdW  Elec       q    Type
REMARK                         _______ _______ _______ _____ _____    ______ ____
ROOT
ATOM     12  C   UNL     1      -2.457  -0.859  24.925  0.00  0.00    +0.166 C 
ATOM     13  C   UNL     1      -2.286   0.543  24.312  0.00  0.00    +0.131 C 
ATOM     14  C   UNL     1      -1.150  -1.357  25.557  0.00  0.00    +0.149 C 
ATOM     15  C   UNL     1       0.016  -1.352  24.553  0.00  0.00    +0.074 C 
ATOM     16  C   UNL     1       0.003  -0.168  23.629  0.00  0.00    +0.014 C 
ATOM     17  C   UNL     1      -1.018   0.695  23.516  0.00  0.00    +0.004 C 
ENDROOT
BRANCH  16  18
ATOM      7  O   UNL     1       1.338  -0.482  21.720  0.00  0.00    -0.271 OA
ATOM     10  N   UNL     1       2.072   0.976  23.384  0.00  0.00    -0.311 N 
ATOM     18  C   UNL     1       1.191   0.079  22.806  0.00  0.00    +0.240 C 
ATOM     29  H   UNL     1       1.889   1.373  24.298  0.00  0.00    +0.149 HD
BRANCH  10  20
ATOM     20  C   UNL     1       3.315   1.374  22.763  0.00  0.00    +0.113 C 
BRANCH  20  22
ATOM     22  C   UNL     1       4.284   0.209  22.614  0.00  0.00    +0.114 C 
BRANCH  22  25
ATOM      8  O   UNL     1       5.648   0.759  24.547  0.00  0.00    -0.276 OA
ATOM     11  N   UNL     1       5.055  -1.434  24.196  0.00  0.00    -0.329 N 
ATOM     25  C   UNL     1       5.064  -0.091  23.881  0.00  0.00    +0.212 C 
ATOM     30  H   UNL     1       5.540  -1.781  25.016  0.00  0.00    +0.145 HD
ATOM     31  H   UNL     1       4.568  -2.120  23.628  0.00  0.00    +0.145 HD
ENDBRANCH  22  25
ENDBRANCH  20  22
ENDBRANCH  10  20
ENDBRANCH  16  18
BRANCH  12   3
ATOM      3  O   UNL     1      -2.857  -1.785  23.911  0.00  0.00    -0.387 OA
ATOM     27  H   UNL     1      -2.698  -1.363  23.050  0.00  0.00    +0.210 HD
ENDBRANCH  12   3
BRANCH  14   4
ATOM      4  O   UNL     1      -0.821  -0.561  26.693  0.00  0.00    -0.389 OA
ATOM     28  H   UNL     1      -0.245   0.161  26.388  0.00  0.00    +0.210 HD
ENDBRANCH  14   4
BRANCH  13   9
ATOM      9  N   UNL     1      -3.449   0.858  23.446  0.00  0.00    -0.180 NA
ATOM     26  H   UNL     1      -4.059   0.061  23.221  0.00  0.00    +0.149 HD
BRANCH   9   1
ATOM      1  S   UNL     1      -4.165   2.402  23.606  0.00  0.00    +0.065 S 
ATOM      5  O   UNL     1      -5.359   2.298  24.421  0.00  0.00    -0.153 OA
ATOM      6  O   UNL     1      -4.194   3.041  22.305  0.00  0.00    -0.153 OA
BRANCH   1  19
ATOM      2  S   UNL     1      -3.586   3.799  26.109  0.00  0.00    -0.077 S 
ATOM     19  C   UNL     1      -3.029   3.417  24.550  0.00  0.00    +0.142 A 
ATOM     21  C   UNL     1      -1.813   3.936  24.254  0.00  0.00    +0.036 A 
ATOM     23  C   UNL     1      -1.299   4.688  25.349  0.00  0.00    +0.010 A 
ATOM     24  C   UNL     1      -2.161   4.694  26.423  0.00  0.00    +0.047 A 
ENDBRANCH   1  19
ENDBRANCH   9   1
ENDBRANCH  13   9
TORSDOF 9
ENDMDL
MODEL 4
REMARK VINA RESULT:      -4.5      1.427      2.189
REMARK  Name = 11882527
REMARK  9 active torsions:
REMARK  status: ('A' for Active; 'I' for Inactive)
REMARK    1  A    between atoms: S_1  and  N_9
REMARK    2  A    between atoms: S_1  and  C_19
REMARK    3  A    between atoms: O_3  and  C_12
REMARK    4  A    between atoms: O_4  and  C_14
REMARK    5  A    between atoms: N_9  and  C_13
REMARK    6  A    between atoms: N_10  and  C_20
REMARK    7  A    between atoms: C_16  and  C_18
REMARK    8  A    between atoms: C_20  and  C_22
REMARK    9  A    between atoms: C_22  and  C_25
REMARK                            x       y       z     vdW  Elec       q    Type
REMARK                         _______ _______ _______ _____ _____    ______ ____
ROOT
ATOM     12  C   UNL     1      -1.392  -2.258  25.011  0.00  0.00    +0.166 C 
ATOM     13  C   UNL     1      -0.965  -1.132  24.052  0.00  0.00    +0.131 C 
ATOM     14  C   UNL     1      -2.915  -2.449  25.008  0.00  0.00    +0.149 C 
ATOM     15  C   UNL     1      -3.662  -1.147  25.347  0.00  0.00    +0.074 C 
ATOM     16  C   UNL     1      -3.032   0.077  24.745  0.00  0.00    +0.014 C 
ATOM     17  C   UNL     1      -1.828   0.097  24.154  0.00  0.00    +0.004 C 
ENDROOT
BRANCH  16  18
ATOM      7  O   UNL     1      -4.871   1.402  25.363  0.00  0.00    -0.271 OA
ATOM     10  N   UNL     1      -3.152   2.366  24.120  0.00  0.00    -0.311 N 
ATOM     18  C   UNL     1      -3.788   1.333  24.785  0.00  0.00    +0.240 C 
ATOM     29  H   UNL     1      -2.270   2.217  23.643  0.00  0.00    +0.149 HD
BRANCH  10  20
ATOM     20  C   UNL     1      -3.703   3.698  24.020  0.00  0.00    +0.113 C 
BRANCH  20  22
ATOM     22  C   UNL     1      -3.123   4.641  25.066  0.00  0.00    +0.114 C 
BRANCH  22  25
ATOM      8  O   UNL     1      -1.363   3.388  26.178  0.00  0.00    -0.276 OA
ATOM     11  N   UNL     1      -0.787   5.187  24.868  0.00  0.00    -0.329 N 
ATOM     25  C   UNL     1      -1.688   4.315  25.440  0.00  0.00    +0.212 C 
ATOM     30  H   UNL     1       0.209   5.093  25.034  0.00  0.00    +0.145 HD
ATOM     31  H   UNL     1      -1.079   5.950  24.264  0.00  0.00    +0.145 HD
ENDBRANCH  22  25
ENDBRANCH  20  22
ENDBRANCH  10  20
ENDBRANCH  16  18
BRANCH  12   3
ATOM      3  O   UNL     1      -0.973  -1.944  26.342  0.00  0.00    -0.387 OA
ATOM     27  H   UNL     1      -1.648  -2.291  26.950  0.00  0.00    +0.210 HD
ENDBRANCH  12   3
BRANCH  14   4
ATOM      4  O   UNL     1      -3.344  -2.944  23.741  0.00  0.00    -0.389 OA
ATOM     28  H   UNL     1      -4.277  -2.694  23.631  0.00  0.00    +0.210 HD
ENDBRANCH  14   4
BRANCH  13   9
ATOM      9  N   UNL     1       0.448  -0.761  24.310  0.00  0.00    -0.180 NA
ATOM     26  H   UNL     1       0.988  -1.441  24.860  0.00  0.00    +0.149 HD
BRANCH   9   1
ATOM      1  S   UNL     1       1.266   0.136  23.106  0.00  0.00    +0.065 S 
ATOM      5  O   UNL     1       1.116   1.553  23.375  0.00  0.00    -0.153 OA
ATOM      6  O   UNL     1       0.945  -0.423  21.807  0.00  0.00    -0.153 OA
BRANCH   1  19
ATOM      2  S   UNL     1       4.018   1.060  22.755  0.00  0.00    -0.077 S 
ATOM     19  C   UNL     1       3.017  -0.202  23.291  0.00  0.00    +0.142 A 
ATOM     21  C   UNL     1       3.688  -1.274  23.776  0.00  0.00    +0.036 A 
ATOM     23  C   UNL     1       5.096  -1.066  23.712  0.00  0.00    +0.010 A 
ATOM     24  C   UNL     1       5.413   0.163  23.178  0.00  0.00    +0.047 A 
ENDBRANCH   1  19
ENDBRANCH   9   1
ENDBRANCH  13   9
TORSDOF 9
ENDMDL
MODEL 5
REMARK VINA RESULT:      -4.3      2.807      7.115
REMARK  Name = 11882527
REMARK  9 active torsions:
REMARK  status: ('A' for Active; 'I' for Inactive)
REMARK    1  A    between atoms: S_1  and  N_9
REMARK    2  A    between atoms: S_1  and  C_19
REMARK    3  A    between atoms: O_3  and  C_12
REMARK    4  A    between atoms: O_4  and  C_14
REMARK    5  A    between atoms: N_9  and  C_13
REMARK    6  A    between atoms: N_10  and  C_20
REMARK    7  A    between atoms: C_16  and  C_18
REMARK    8  A    between atoms: C_20  and  C_22
REMARK    9  A    between atoms: C_22  and  C_25
REMARK                            x       y       z     vdW  Elec       q    Type
REMARK                         _______ _______ _______ _____ _____    ______ ____
ROOT
ATOM     12  C   UNL     1      -4.033  -1.682  24.408  0.00  0.00    +0.166 C 
ATOM     13  C   UNL     1      -4.090  -0.313  25.109  0.00  0.00    +0.131 C 
ATOM     14  C   UNL     1      -2.742  -2.435  24.754  0.00  0.00    +0.149 C 
ATOM     15  C   UNL     1      -1.485  -1.612  24.420  0.00  0.00    +0.074 C 
ATOM     16  C   UNL     1      -1.633  -0.148  24.721  0.00  0.00    +0.014 C 
ATOM     17  C   UNL     1      -2.793   0.447  25.039  0.00  0.00    +0.004 C 
ENDROOT
BRANCH  16  18
ATOM      7  O   UNL     1      -0.279   1.615  25.482  0.00  0.00    -0.271 OA
ATOM     10  N   UNL     1       0.456   0.319  23.690  0.00  0.00    -0.311 N 
ATOM     18  C   UNL     1      -0.431   0.690  24.685  0.00  0.00    +0.240 C 
ATOM     29  H   UNL     1       0.242  -0.442  23.055  0.00  0.00    +0.149 HD
BRANCH  10  20
ATOM     20  C   UNL     1       1.711   0.997  23.457  0.00  0.00    +0.113 C 
BRANCH  20  22
ATOM     22  C   UNL     1       2.682   0.149  22.648  0.00  0.00    +0.114 C 
BRANCH  22  25
ATOM      8  O   UNL     1       4.870   0.855  23.431  0.00  0.00    -0.276 OA
ATOM     11  N   UNL     1       4.210  -1.317  23.793  0.00  0.00    -0.329 N 
ATOM     25  C   UNL     1       4.029  -0.034  23.323  0.00  0.00    +0.212 C 
ATOM     30  H   UNL     1       5.067  -1.585  24.265  0.00  0.00    +0.145 HD
ATOM     31  H   UNL     1       3.501  -2.037  23.689  0.00  0.00    +0.145 HD
ENDBRANCH  22  25
ENDBRANCH  20  22
ENDBRANCH  10  20
ENDBRANCH  16  18
BRANCH  12   3
ATOM      3  O   UNL     1      -4.092  -1.503  22.990  0.00  0.00    -0.387 OA
ATOM     27  H   UNL     1      -4.743  -0.804  22.811  0.00  0.00    +0.210 HD
ENDBRANCH  12   3
BRANCH  14   4
ATOM      4  O   UNL     1      -2.739  -2.795  26.134  0.00  0.00    -0.389 OA
ATOM     28  H   UNL     1      -1.811  -2.885  26.410  0.00  0.00    +0.210 HD
ENDBRANCH  14   4
BRANCH  13   9
ATOM      9  N   UNL     1      -5.173   0.510  24.517  0.00  0.00    -0.180 NA
ATOM     26  H   UNL     1      -5.894  -0.014  24.006  0.00  0.00    +0.149 HD
BRANCH   9   1
ATOM      1  S   UNL     1      -5.642   1.926  25.352  0.00  0.00    +0.065 S 
ATOM      5  O   UNL     1      -5.903   1.603  26.742  0.00  0.00    -0.153 OA
ATOM      6  O   UNL     1      -6.615   2.641  24.549  0.00  0.00    -0.153 OA
BRANCH   1  19
ATOM      2  S   UNL     1      -3.597   3.364  23.836  0.00  0.00    -0.077 S 
ATOM     19  C   UNL     1      -4.225   3.023  25.376  0.00  0.00    +0.142 A 
ATOM     21  C   UNL     1      -3.562   3.628  26.391  0.00  0.00    +0.036 A 
ATOM     23  C   UNL     1      -2.483   4.416  25.897  0.00  0.00    +0.010 A 
ATOM     24  C   UNL     1      -2.389   4.362  24.524  0.00  0.00    +0.047 A 
ENDBRANCH   1  19
ENDBRANCH   9   1
ENDBRANCH  13   9
TORSDOF 9
ENDMDL
MODEL 6
REMARK VINA RESULT:      -4.2      2.881      7.846
REMARK  Name = 11882527
REMARK  9 active torsions:
REMARK  status: ('A' for Active; 'I' for Inactive)
REMARK    1  A    between atoms: S_1  and  N_9
REMARK    2  A    between atoms: S_1  and  C_19
REMARK    3  A    between atoms: O_3  and  C_12
REMARK    4  A    between atoms: O_4  and  C_14
REMARK    5  A    between atoms: N_9  and  C_13
REMARK    6  A    between atoms: N_10  and  C_20
REMARK    7  A    between atoms: C_16  and  C_18
REMARK    8  A    between atoms: C_20  and  C_22
REMARK    9  A    between atoms: C_22  and  C_25
REMARK                            x       y       z     vdW  Elec       q    Type
REMARK                         _______ _______ _______ _____ _____    ______ ____
ROOT
ATOM     12  C   UNL     1      -1.804   0.497  24.684  0.00  0.00    +0.166 C 
ATOM     13  C   UNL     1      -0.867   1.719  24.693  0.00  0.00    +0.131 C 
ATOM     14  C   UNL     1      -1.016  -0.813  24.822  0.00  0.00    +0.149 C 
ATOM     15  C   UNL     1       0.061  -0.957  23.732  0.00  0.00    +0.074 C 
ATOM     16  C   UNL     1       0.754   0.334  23.403  0.00  0.00    +0.014 C 
ATOM     17  C   UNL     1       0.354   1.540  23.833  0.00  0.00    +0.004 C 
ENDROOT
BRANCH  16  18
ATOM      7  O   UNL     1       2.015  -0.451  21.582  0.00  0.00    -0.271 OA
ATOM     10  N   UNL     1       2.970   1.108  23.028  0.00  0.00    -0.311 N 
ATOM     18  C   UNL     1       1.961   0.278  22.572  0.00  0.00    +0.240 C 
ATOM     29  H   UNL     1       2.853   1.657  23.872  0.00  0.00    +0.149 HD
BRANCH  10  20
ATOM     20  C   UNL     1       4.254   1.222  22.376  0.00  0.00    +0.113 C 
BRANCH  20  22
ATOM     22  C   UNL     1       5.151   0.023  22.658  0.00  0.00    +0.114 C 
BRANCH  22  25
ATOM      8  O   UNL     1       5.454   0.288  25.053  0.00  0.00    -0.276 OA
ATOM     11  N   UNL     1       4.690  -1.725  24.247  0.00  0.00    -0.329 N 
ATOM     25  C   UNL     1       5.121  -0.423  24.108  0.00  0.00    +0.212 C 
ATOM     30  H   UNL     1       4.624  -2.159  25.161  0.00  0.00    +0.145 HD
ATOM     31  H   UNL     1       4.424  -2.296  23.450  0.00  0.00    +0.145 HD
ENDBRANCH  22  25
ENDBRANCH  20  22
ENDBRANCH  10  20
ENDBRANCH  16  18
BRANCH  12   3
ATOM      3  O   UNL     1      -2.541   0.461  23.460  0.00  0.00    -0.387 OA
ATOM     27  H   UNL     1      -3.477   0.333  23.686  0.00  0.00    +0.210 HD
ENDBRANCH  12   3
BRANCH  14   4
ATOM      4  O   UNL     1      -0.418  -0.892  26.114  0.00  0.00    -0.389 OA
ATOM     28  H   UNL     1       0.546  -0.919  25.989  0.00  0.00    +0.210 HD
ENDBRANCH  14   4
BRANCH  13   9
ATOM      9  N   UNL     1      -1.609   2.924  24.246  0.00  0.00    -0.180 NA
ATOM     26  H   UNL     1      -2.002   2.872  23.298  0.00  0.00    +0.149 HD
BRANCH   9   1
ATOM      1  S   UNL     1      -2.468   3.812  25.428  0.00  0.00    +0.065 S 
ATOM      5  O   UNL     1      -2.634   5.180  24.977  0.00  0.00    -0.153 OA
ATOM      6  O   UNL     1      -1.914   3.511  26.733  0.00  0.00    -0.153 OA
BRANCH   1  19
ATOM      2  S   UNL     1      -4.670   2.491  24.029  0.00  0.00    -0.077 S 
ATOM     19  C   UNL     1      -4.124   3.131  25.504  0.00  0.00    +0.142 A 
ATOM     21  C   UNL     1      -5.019   3.031  26.517  0.00  0.00    +0.036 A 
ATOM     23  C   UNL     1      -6.219   2.401  26.077  0.00  0.00    +0.010 A 
ATOM     24  C   UNL     1      -6.163   2.056  24.744  0.00  0.00    +0.047 A 
ENDBRANCH   1  19
ENDBRANCH   9   1
ENDBRANCH  13   9
TORSDOF 9
ENDMDL
MODEL 7
REMARK VINA RESULT:      -3.9      2.313      4.378
REMARK  Name = 11882527
REMARK  9 active torsions:
REMARK  status: ('A' for Active; 'I' for Inactive)
REMARK    1  A    between atoms: S_1  and  N_9
REMARK    2  A    between atoms: S_1  and  C_19
REMARK    3  A    between atoms: O_3  and  C_12
REMARK    4  A    between atoms: O_4  and  C_14
REMARK    5  A    between atoms: N_9  and  C_13
REMARK    6  A    between atoms: N_10  and  C_20
REMARK    7  A    between atoms: C_16  and  C_18
REMARK    8  A    between atoms: C_20  and  C_22
REMARK    9  A    between atoms: C_22  and  C_25
REMARK                            x       y       z     vdW  Elec       q    Type
REMARK                         _______ _______ _______ _____ _____    ______ ____
ROOT
ATOM     12  C   UNL     1      -1.127   3.861  25.269  0.00  0.00    +0.166 C 
ATOM     13  C   UNL     1      -1.025   2.422  25.807  0.00  0.00    +0.131 C 
ATOM     14  C   UNL     1      -2.541   4.428  25.452  0.00  0.00    +0.149 C 
ATOM     15  C   UNL     1      -3.611   3.537  24.798  0.00  0.00    +0.074 C 
ATOM     16  C   UNL     1      -3.339   2.067  24.951  0.00  0.00    +0.014 C 
ATOM     17  C   UNL     1      -2.187   1.554  25.409  0.00  0.00    +0.004 C 
ENDROOT
BRANCH  16  18
ATOM      7  O   UNL     1      -5.587   1.403  24.796  0.00  0.00    -0.271 OA
ATOM     10  N   UNL     1      -3.927  -0.046  24.037  0.00  0.00    -0.311 N 
ATOM     18  C   UNL     1      -4.405   1.126  24.595  0.00  0.00    +0.240 C 
ATOM     29  H   UNL     1      -2.932  -0.207  23.932  0.00  0.00    +0.149 HD
BRANCH  10  20
ATOM     20  C   UNL     1      -4.787  -1.126  23.609  0.00  0.00    +0.113 C 
BRANCH  20  22
ATOM     22  C   UNL     1      -4.196  -2.493  23.927  0.00  0.00    +0.114 C 
BRANCH  22  25
ATOM      8  O   UNL     1      -3.219  -2.065  26.108  0.00  0.00    -0.276 OA
ATOM     11  N   UNL     1      -1.869  -2.855  24.423  0.00  0.00    -0.329 N 
ATOM     25  C   UNL     1      -3.075  -2.441  24.949  0.00  0.00    +0.212 C 
ATOM     30  H   UNL     1      -1.029  -2.869  24.992  0.00  0.00    +0.145 HD
ATOM     31  H   UNL     1      -1.773  -3.159  23.459  0.00  0.00    +0.145 HD
ENDBRANCH  22  25
ENDBRANCH  20  22
ENDBRANCH  10  20
ENDBRANCH  16  18
BRANCH  12   3
ATOM      3  O   UNL     1      -0.803   3.882  23.876  0.00  0.00    -0.387 OA
ATOM     27  H   UNL     1      -0.090   3.239  23.732  0.00  0.00    +0.210 HD
ENDBRANCH  12   3
BRANCH  14   4
ATOM      4  O   UNL     1      -2.826   4.596  26.840  0.00  0.00    -0.389 OA
ATOM     28  H   UNL     1      -3.550   3.988  27.065  0.00  0.00    +0.210 HD
ENDBRANCH  14   4
BRANCH  13   9
ATOM      9  N   UNL     1       0.237   1.799  25.336  0.00  0.00    -0.180 NA
ATOM     26  H   UNL     1       0.968   1.694  26.050  0.00  0.00    +0.149 HD
BRANCH   9   1
ATOM      1  S   UNL     1       0.127   0.612  24.111  0.00  0.00    +0.065 S 
ATOM      5  O   UNL     1      -0.846   1.029  23.120  0.00  0.00    -0.153 OA
ATOM      6  O   UNL     1       0.057  -0.696  24.732  0.00  0.00    -0.153 OA
BRANCH   1  19
ATOM      2  S   UNL     1       1.709  -0.388  21.864  0.00  0.00    -0.077 S 
ATOM     19  C   UNL     1       1.701   0.588  23.253  0.00  0.00    +0.142 A 
ATOM     21  C   UNL     1       2.882   1.202  23.506  0.00  0.00    +0.036 A 
ATOM     23  C   UNL     1       3.853   0.865  22.520  0.00  0.00    +0.010 A 
ATOM     24  C   UNL     1       3.348   0.008  21.567  0.00  0.00    +0.047 A 
ENDBRANCH   1  19
ENDBRANCH   9   1
ENDBRANCH  13   9
TORSDOF 9
ENDMDL
MODEL 8
REMARK VINA RESULT:      -2.7      1.936      3.014
REMARK  Name = 11882527
REMARK  9 active torsions:
REMARK  status: ('A' for Active; 'I' for Inactive)
REMARK    1  A    between atoms: S_1  and  N_9
REMARK    2  A    between atoms: S_1  and  C_19
REMARK    3  A    between atoms: O_3  and  C_12
REMARK    4  A    between atoms: O_4  and  C_14
REMARK    5  A    between atoms: N_9  and  C_13
REMARK    6  A    between atoms: N_10  and  C_20
REMARK    7  A    between atoms: C_16  and  C_18
REMARK    8  A    between atoms: C_20  and  C_22
REMARK    9  A    between atoms: C_22  and  C_25
REMARK                            x       y       z     vdW  Elec       q    Type
REMARK                         _______ _______ _______ _____ _____    ______ ____
ROOT
ATOM     12  C   UNL     1       0.436   2.829  24.799  0.00  0.00    +0.166 C 
ATOM     13  C   UNL     1       0.461   1.349  24.374  0.00  0.00    +0.131 C 
ATOM     14  C   UNL     1      -0.397   3.032  26.071  0.00  0.00    +0.149 C 
ATOM     15  C   UNL     1      -1.832   2.498  25.916  0.00  0.00    +0.074 C 
ATOM     16  C   UNL     1      -1.910   1.218  25.134  0.00  0.00    +0.014 C 
ATOM     17  C   UNL     1      -0.889   0.686  24.445  0.00  0.00    +0.004 C 
ENDROOT
BRANCH  16  18
ATOM      7  O   UNL     1      -3.286  -0.597  25.714  0.00  0.00    -0.271 OA
ATOM     10  N   UNL     1      -4.180   1.134  24.435  0.00  0.00    -0.311 N 
ATOM     18  C   UNL     1      -3.179   0.484  25.135  0.00  0.00    +0.240 C 
ATOM     29  H   UNL     1      -4.000   2.012  23.961  0.00  0.00    +0.149 HD
BRANCH  10  20
ATOM     20  C   UNL     1      -5.517   0.606  24.294  0.00  0.00    +0.113 C 
BRANCH  20  22
ATOM     22  C   UNL     1      -6.574   1.564  24.826  0.00  0.00    +0.114 C 
BRANCH  22  25
ATOM      8  O   UNL     1      -5.343   3.568  25.432  0.00  0.00    -0.276 OA
ATOM     11  N   UNL     1      -6.344   2.336  27.094  0.00  0.00    -0.329 N 
ATOM     25  C   UNL     1      -6.017   2.604  25.782  0.00  0.00    +0.212 C 
ATOM     30  H   UNL     1      -6.036   2.946  27.844  0.00  0.00    +0.145 HD
ATOM     31  H   UNL     1      -6.901   1.530  27.361  0.00  0.00    +0.145 HD
ENDBRANCH  22  25
ENDBRANCH  20  22
ENDBRANCH  10  20
ENDBRANCH  16  18
BRANCH  12   3
ATOM      3  O   UNL     1      -0.127   3.624  23.752  0.00  0.00    -0.387 OA
ATOM     27  H   UNL     1      -1.041   3.322  23.615  0.00  0.00    +0.210 HD
ENDBRANCH  12   3
BRANCH  14   4
ATOM      4  O   UNL     1       0.242   2.404  27.181  0.00  0.00    -0.389 OA
ATOM     28  H   UNL     1       0.989   1.887  26.834  0.00  0.00    +0.210 HD
ENDBRANCH  14   4
BRANCH  13   9
ATOM      9  N   UNL     1       0.993   1.232  22.994  0.00  0.00    -0.180 NA
ATOM     26  H   UNL     1       1.436   2.080  22.620  0.00  0.00    +0.149 HD
BRANCH   9   1
ATOM      1  S   UNL     1       1.615  -0.285  22.509  0.00  0.00    +0.065 S 
ATOM      5  O   UNL     1       1.700  -0.332  21.062  0.00  0.00    -0.153 OA
ATOM      6  O   UNL     1       0.941  -1.328  23.258  0.00  0.00    -0.153 OA
BRANCH   1  19
ATOM      2  S   UNL     1       4.227   1.010  22.738  0.00  0.00    -0.077 S 
ATOM     19  C   UNL     1       3.308  -0.374  23.089  0.00  0.00    +0.142 A 
ATOM     21  C   UNL     1       3.991  -1.338  23.754  0.00  0.00    +0.036 A 
ATOM     23  C   UNL     1       5.336  -0.936  23.995  0.00  0.00    +0.010 A 
ATOM     24  C   UNL     1       5.598   0.320  23.495  0.00  0.00    +0.047 A 
ENDBRANCH   1  19
ENDBRANCH   9   1
ENDBRANCH  13   9
TORSDOF 9
ENDMDL
MODEL 9
REMARK VINA RESULT:      -2.0      3.130      7.235
REMARK  Name = 11882527
REMARK  9 active torsions:
REMARK  status: ('A' for Active; 'I' for Inactive)
REMARK    1  A    between atoms: S_1  and  N_9
REMARK    2  A    between atoms: S_1  and  C_19
REMARK    3  A    between atoms: O_3  and  C_12
REMARK    4  A    between atoms: O_4  and  C_14
REMARK    5  A    between atoms: N_9  and  C_13
REMARK    6  A    between atoms: N_10  and  C_20
REMARK    7  A    between atoms: C_16  and  C_18
REMARK    8  A    between atoms: C_20  and  C_22
REMARK    9  A    between atoms: C_22  and  C_25
REMARK                            x       y       z     vdW  Elec       q    Type
REMARK                         _______ _______ _______ _____ _____    ______ ____
ROOT
ATOM     12  C   UNL     1      -2.831   4.611  25.900  0.00  0.00    +0.166 C 
ATOM     13  C   UNL     1      -3.324   3.418  25.062  0.00  0.00    +0.131 C 
ATOM     14  C   UNL     1      -1.556   5.225  25.306  0.00  0.00    +0.149 C 
ATOM     15  C   UNL     1      -0.433   4.184  25.146  0.00  0.00    +0.074 C 
ATOM     16  C   UNL     1      -0.927   2.837  24.701  0.00  0.00    +0.014 C 
ATOM     17  C   UNL     1      -2.220   2.482  24.650  0.00  0.00    +0.004 C 
ENDROOT
BRANCH  16  18
ATOM      7  O   UNL     1       1.258   2.135  24.195  0.00  0.00    -0.271 OA
ATOM     10  N   UNL     1      -0.495   0.612  23.987  0.00  0.00    -0.311 N 
ATOM     18  C   UNL     1       0.064   1.845  24.274  0.00  0.00    +0.240 C 
ATOM     29  H   UNL     1      -1.496   0.464  24.051  0.00  0.00    +0.149 HD
BRANCH  10  20
ATOM     20  C   UNL     1       0.281  -0.523  23.544  0.00  0.00    +0.113 C 
BRANCH  20  22
ATOM     22  C   UNL     1       1.777  -0.238  23.555  0.00  0.00    +0.114 C 
BRANCH  22  25
ATOM      8  O   UNL     1       3.482   0.420  21.955  0.00  0.00    -0.276 OA
ATOM     11  N   UNL     1       1.490  -0.419  21.172  0.00  0.00    -0.329 N 
ATOM     25  C   UNL     1       2.363  -0.038  22.169  0.00  0.00    +0.212 C 
ATOM     30  H   UNL     1       1.747  -0.338  20.194  0.00  0.00    +0.145 HD
ATOM     31  H   UNL     1       0.567  -0.792  21.373  0.00  0.00    +0.145 HD
ENDBRANCH  22  25
ENDBRANCH  20  22
ENDBRANCH  10  20
ENDBRANCH  16  18
BRANCH  12   3
ATOM      3  O   UNL     1      -2.552   4.183  27.236  0.00  0.00    -0.387 OA
ATOM     27  H   UNL     1      -2.055   3.350  27.177  0.00  0.00    +0.210 HD
ENDBRANCH  12   3
BRANCH  14   4
ATOM      4  O   UNL     1      -1.843   5.830  24.047  0.00  0.00    -0.389 OA
ATOM     28  H   UNL     1      -1.300   6.633  23.978  0.00  0.00    +0.210 HD
ENDBRANCH  14   4
BRANCH  13   9
ATOM      9  N   UNL     1      -4.350   2.662  25.820  0.00  0.00    -0.180 NA
ATOM     26  H   UNL     1      -4.848   3.198  26.541  0.00  0.00    +0.149 HD
BRANCH   9   1
ATOM      1  S   UNL     1      -5.205   1.434  24.993  0.00  0.00    +0.065 S 
ATOM      5  O   UNL     1      -5.241   1.741  23.576  0.00  0.00    -0.153 OA
ATOM      6  O   UNL     1      -6.417   1.131  25.729  0.00  0.00    -0.153 OA
BRANCH   1  19
ATOM      2  S   UNL     1      -4.340  -1.076  23.767  0.00  0.00    -0.077 S 
ATOM     19  C   UNL     1      -4.239  -0.070  25.131  0.00  0.00    +0.142 A 
ATOM     21  C   UNL     1      -3.445  -0.552  26.118  0.00  0.00    +0.036 A 
ATOM     23  C   UNL     1      -2.885  -1.810  25.752  0.00  0.00    +0.010 A 
ATOM     24  C   UNL     1      -3.289  -2.211  24.498  0.00  0.00    +0.047 A 
ENDBRANCH   1  19
ENDBRANCH   9   1
ENDBRANCH  13   9
TORSDOF 9
ENDMDL
MODEL 10
REMARK VINA RESULT:      -1.5      2.915      5.002
REMARK  Name = 11882527
REMARK  9 active torsions:
REMARK  status: ('A' for Active; 'I' for Inactive)
REMARK    1  A    between atoms: S_1  and  N_9
REMARK    2  A    between atoms: S_1  and  C_19
REMARK    3  A    between atoms: O_3  and  C_12
REMARK    4  A    between atoms: O_4  and  C_14
REMARK    5  A    between atoms: N_9  and  C_13
REMARK    6  A    between atoms: N_10  and  C_20
REMARK    7  A    between atoms: C_16  and  C_18
REMARK    8  A    between atoms: C_20  and  C_22
REMARK    9  A    between atoms: C_22  and  C_25
REMARK                            x       y       z     vdW  Elec       q    Type
REMARK                         _______ _______ _______ _____ _____    ______ ____
ROOT
ATOM     12  C   UNL     1       0.627   2.024  24.863  0.00  0.00    +0.166 C 
ATOM     13  C   UNL     1      -0.535   1.111  25.295  0.00  0.00    +0.131 C 
ATOM     14  C   UNL     1       0.364   3.486  25.248  0.00  0.00    +0.149 C 
ATOM     15  C   UNL     1      -0.965   4.005  24.672  0.00  0.00    +0.074 C 
ATOM     16  C   UNL     1      -2.067   2.985  24.701  0.00  0.00    +0.014 C 
ATOM     17  C   UNL     1      -1.891   1.686  24.986  0.00  0.00    +0.004 C 
ENDROOT
BRANCH  16  18
ATOM      7  O   UNL     1      -3.854   3.497  23.263  0.00  0.00    -0.271 OA
ATOM     10  N   UNL     1      -4.142   3.764  25.560  0.00  0.00    -0.311 N 
ATOM     18  C   UNL     1      -3.433   3.436  24.418  0.00  0.00    +0.240 C 
ATOM     29  H   UNL     1      -3.710   3.712  26.476  0.00  0.00    +0.149 HD
BRANCH  10  20
ATOM     20  C   UNL     1      -5.507   4.237  25.535  0.00  0.00    +0.113 C 
BRANCH  20  22
ATOM     22  C   UNL     1      -6.505   3.101  25.350  0.00  0.00    +0.114 C 
BRANCH  22  25
ATOM      8  O   UNL     1      -5.297   1.015  25.645  0.00  0.00    -0.276 OA
ATOM     11  N   UNL     1      -6.777   1.679  27.273  0.00  0.00    -0.329 N 
ATOM     25  C   UNL     1      -6.110   1.828  26.076  0.00  0.00    +0.212 C 
ATOM     30  H   UNL     1      -6.615   0.871  27.864  0.00  0.00    +0.145 HD
ATOM     31  H   UNL     1      -7.449   2.363  27.608  0.00  0.00    +0.145 HD
ENDBRANCH  22  25
ENDBRANCH  20  22
ENDBRANCH  10  20
ENDBRANCH  16  18
BRANCH  12   3
ATOM      3  O   UNL     1       0.801   1.949  23.446  0.00  0.00    -0.387 OA
ATOM     27  H   UNL     1      -0.038   2.216  23.034  0.00  0.00    +0.210 HD
ENDBRANCH  12   3
BRANCH  14   4
ATOM      4  O   UNL     1       0.371   3.628  26.667  0.00  0.00    -0.389 OA
ATOM     28  H   UNL     1      -0.530   3.869  26.942  0.00  0.00    +0.210 HD
ENDBRANCH  14   4
BRANCH  13   9
ATOM      9  N   UNL     1      -0.403  -0.214  24.640  0.00  0.00    -0.180 NA
ATOM     26  H   UNL     1       0.420  -0.325  24.035  0.00  0.00    +0.149 HD
BRANCH   9   1
ATOM      1  S   UNL     1      -0.970  -1.582  25.494  0.00  0.00    +0.065 S 
ATOM      5  O   UNL     1      -1.326  -1.195  26.845  0.00  0.00    -0.153 OA
ATOM      6  O   UNL     1      -0.074  -2.694  25.240  0.00  0.00    -0.153 OA
BRANCH   1  19
ATOM      2  S   UNL     1      -3.379  -0.811  24.028  0.00  0.00    -0.077 S 
ATOM     19  C   UNL     1      -2.505  -2.091  24.723  0.00  0.00    +0.142 A 
ATOM     21  C   UNL     1      -3.098  -3.302  24.592  0.00  0.00    +0.036 A 
ATOM     23  C   UNL     1      -4.332  -3.193  23.888  0.00  0.00    +0.010 A 
ATOM     24  C   UNL     1      -4.606  -1.893  23.523  0.00  0.00    +0.047 A 
ENDBRANCH   1  19
ENDBRANCH   9   1
ENDBRANCH  13   9
TORSDOF 9
ENDMDL
