MODEL 1
REMARK VINA RESULT:       2.2      0.000      0.000
REMARK  Name = 38027937
REMARK  12 active torsions:
REMARK  status: ('A' for Active; 'I' for Inactive)
REMARK    1  A    between atoms: O_3  and  C_30
REMARK    2  A    between atoms: O_3  and  C_33
REMARK    3  A    between atoms: N_5  and  C_16
REMARK    4  A    between atoms: N_6  and  C_26
REMARK    5  A    between atoms: N_7  and  C_27
REMARK    6  A    between atoms: C_8  and  C_12
REMARK    7  A    between atoms: C_9  and  C_16
REMARK    8  A    between atoms: C_11  and  C_15
REMARK    9  A    between atoms: C_12  and  C_17
REMARK   10  A    between atoms: C_12  and  C_18
REMARK   11  A    between atoms: C_13  and  C_19
REMARK   12  A    between atoms: C_15  and  C_20
REMARK                            x       y       z     vdW  Elec       q    Type
REMARK                         _______ _______ _______ _____ _____    ______ ____
ROOT
ATOM      8  C   UNL     1      -3.351   2.325  24.024  0.00  0.00    +0.000 C 
ATOM      9  C   UNL     1      -3.356   3.683  24.770  0.00  0.00    +0.032 C 
ATOM     10  C   UNL     1      -4.789   1.846  23.774  0.00  0.00    +0.012 C 
ATOM     11  C   UNL     1      -5.584   1.680  25.083  0.00  0.00    +0.023 C 
ATOM     13  C   UNL     1      -5.419   2.877  25.997  0.00  0.00    -0.073 C 
ATOM     14  C   UNL     1      -4.426   3.768  25.834  0.00  0.00    -0.022 C 
ATOM     19  C   UNL     1      -6.451   3.052  27.077  0.00  0.00    +0.039 C 
ENDROOT
BRANCH   8  12
ATOM     12  C   UNL     1      -2.594   2.409  22.695  0.00  0.00    -0.013 C 
ATOM     17  C   UNL     1      -2.364   1.014  22.123  0.00  0.00    +0.007 C 
ATOM     18  C   UNL     1      -3.357   3.282  21.703  0.00  0.00    +0.007 C 
ENDBRANCH   8  12
BRANCH  11  15
ATOM     15  C   UNL     1      -5.199   0.383  25.803  0.00  0.00    +0.103 C 
BRANCH  15  20
ATOM      1  O   UNL     1      -5.340  -0.800  23.754  0.00  0.00    -0.276 OA
ATOM      4  N   UNL     1      -3.551  -1.331  25.137  0.00  0.00    -0.299 N 
ATOM      6  N   UNL     1      -0.835  -2.212  25.374  0.00  0.00    -0.302 NA
ATOM     20  C   UNL     1      -4.711  -0.635  24.802  0.00  0.00    +0.216 C 
ATOM     21  C   UNL     1      -3.011  -2.332  24.217  0.00  0.00    +0.123 C 
ATOM     22  C   UNL     1      -2.857  -1.254  26.426  0.00  0.00    +0.123 C 
ATOM     23  C   UNL     1      -1.498  -2.184  24.062  0.00  0.00    +0.103 C 
ATOM     24  C   UNL     1      -1.345  -1.132  26.231  0.00  0.00    +0.103 C 
ATOM     26  C   UNL     1       0.615  -2.104  25.219  0.00  0.00    +0.105 C 
ENDBRANCH  15  20
ENDBRANCH  11  15
BRANCH   9  16
ATOM     16  C   UNL     1      -1.988   3.973  25.398  0.00  0.00    +0.113 C 
BRANCH  16   5
ATOM      2  O   UNL     1      -0.086   3.474  23.314  0.00  0.00    -0.253 OA
ATOM      5  N   UNL     1      -1.125   2.841  25.282  0.00  0.00    -0.299 N 
ATOM      7  N   UNL     1       0.494   1.464  24.379  0.00  0.00    -0.269 N 
ATOM     25  C   UNL     1      -0.212   2.661  24.226  0.00  0.00    +0.304 C 
ATOM     34  H   UNL     1      -1.118   2.158  26.033  0.00  0.00    +0.150 HD
ATOM     35  H   UNL     1       0.266   0.901  25.194  0.00  0.00    +0.156 HD
BRANCH   7  27
ATOM     27  C   UNL     1       1.493   0.931  23.530  0.00  0.00    +0.038 A 
ATOM     28  C   UNL     1       2.838   1.211  23.775  0.00  0.00    +0.069 A 
ATOM     29  C   UNL     1       1.133   0.130  22.447  0.00  0.00    +0.023 A 
ATOM     30  C   UNL     1       3.822   0.687  22.939  0.00  0.00    +0.122 A 
ATOM     31  C   UNL     1       2.119  -0.393  21.609  0.00  0.00    +0.005 A 
ATOM     32  C   UNL     1       3.463  -0.115  21.855  0.00  0.00    +0.046 A 
BRANCH  30   3
ATOM      3  O   UNL     1       5.134   0.959  23.178  0.00  0.00    -0.495 OA
ATOM     33  C   UNL     1       5.938  -0.110  23.677  0.00  0.00    +0.277 C 
ENDBRANCH  30   3
ENDBRANCH   7  27
ENDBRANCH  16   5
ENDBRANCH   9  16
TORSDOF 7
ENDMDL
MODEL 2
REMARK VINA RESULT:       3.3      1.521      2.576
REMARK  Name = 38027937
REMARK  12 active torsions:
REMARK  status: ('A' for Active; 'I' for Inactive)
REMARK    1  A    between atoms: O_3  and  C_30
REMARK    2  A    between atoms: O_3  and  C_33
REMARK    3  A    between atoms: N_5  and  C_16
REMARK    4  A    between atoms: N_6  and  C_26
REMARK    5  A    between atoms: N_7  and  C_27
REMARK    6  A    between atoms: C_8  and  C_12
REMARK    7  A    between atoms: C_9  and  C_16
REMARK    8  A    between atoms: C_11  and  C_15
REMARK    9  A    between atoms: C_12  and  C_17
REMARK   10  A    between atoms: C_12  and  C_18
REMARK   11  A    between atoms: C_13  and  C_19
REMARK   12  A    between atoms: C_15  and  C_20
REMARK                            x       y       z     vdW  Elec       q    Type
REMARK                         _______ _______ _______ _____ _____    ______ ____
ROOT
ATOM      8  C   UNL     1      -2.232   4.138  24.909  0.00  0.00    +0.000 C 
ATOM      9  C   UNL     1      -2.538   3.571  26.318  0.00  0.00    +0.032 C 
ATOM     10  C   UNL     1      -3.530   4.577  24.215  0.00  0.00    +0.012 C 
ATOM     11  C   UNL     1      -4.532   3.418  24.066  0.00  0.00    +0.023 C 
ATOM     13  C   UNL     1      -4.686   2.637  25.357  0.00  0.00    -0.073 C 
ATOM     14  C   UNL     1      -3.792   2.729  26.357  0.00  0.00    -0.022 C 
ATOM     19  C   UNL     1      -5.916   1.784  25.490  0.00  0.00    +0.039 C 
ENDROOT
BRANCH   8  12
ATOM     12  C   UNL     1      -1.252   5.314  24.970  0.00  0.00    -0.013 C 
ATOM     17  C   UNL     1      -0.230   5.215  23.842  0.00  0.00    +0.007 C 
ATOM     18  C   UNL     1      -2.006   6.639  24.901  0.00  0.00    +0.007 C 
ENDBRANCH   8  12
BRANCH  11  15
ATOM     15  C   UNL     1      -4.141   2.493  22.909  0.00  0.00    +0.103 C 
BRANCH  15  20
ATOM      1  O   UNL     1      -1.808   2.402  23.316  0.00  0.00    -0.276 OA
ATOM      4  N   UNL     1      -2.964   0.392  23.455  0.00  0.00    -0.299 N 
ATOM      6  N   UNL     1      -3.198  -2.204  24.644  0.00  0.00    -0.302 NA
ATOM     20  C   UNL     1      -2.862   1.766  23.243  0.00  0.00    +0.216 C 
ATOM     21  C   UNL     1      -1.770  -0.384  23.788  0.00  0.00    +0.123 C 
ATOM     22  C   UNL     1      -4.171  -0.411  23.247  0.00  0.00    +0.123 C 
ATOM     23  C   UNL     1      -2.039  -1.350  24.941  0.00  0.00    +0.103 C 
ATOM     24  C   UNL     1      -4.394  -1.383  24.408  0.00  0.00    +0.103 C 
ATOM     26  C   UNL     1      -3.432  -3.149  25.735  0.00  0.00    +0.105 C 
ENDBRANCH  15  20
ENDBRANCH  11  15
BRANCH   9  16
ATOM     16  C   UNL     1      -1.356   2.753  26.852  0.00  0.00    +0.113 C 
BRANCH  16   5
ATOM      2  O   UNL     1       1.028   2.828  25.267  0.00  0.00    -0.253 OA
ATOM      5  N   UNL     1      -0.937   1.780  25.894  0.00  0.00    -0.299 N 
ATOM      7  N   UNL     1       0.398   0.787  24.292  0.00  0.00    -0.269 N 
ATOM     25  C   UNL     1       0.252   1.883  25.148  0.00  0.00    +0.304 C 
ATOM     34  H   UNL     1      -1.489   0.934  25.788  0.00  0.00    +0.150 HD
ATOM     35  H   UNL     1      -0.341   0.089  24.315  0.00  0.00    +0.156 HD
BRANCH   7  27
ATOM     27  C   UNL     1       1.454   0.527  23.388  0.00  0.00    +0.038 A 
ATOM     28  C   UNL     1       2.764   0.862  23.731  0.00  0.00    +0.069 A 
ATOM     29  C   UNL     1       1.185  -0.060  22.151  0.00  0.00    +0.023 A 
ATOM     30  C   UNL     1       3.805   0.607  22.839  0.00  0.00    +0.122 A 
ATOM     31  C   UNL     1       2.227  -0.314  21.259  0.00  0.00    +0.005 A 
ATOM     32  C   UNL     1       3.537   0.020  21.603  0.00  0.00    +0.046 A 
BRANCH  30   3
ATOM      3  O   UNL     1       5.084   0.932  23.175  0.00  0.00    -0.495 OA
ATOM     33  C   UNL     1       5.729   0.108  24.145  0.00  0.00    +0.277 C 
ENDBRANCH  30   3
ENDBRANCH   7  27
ENDBRANCH  16   5
ENDBRANCH   9  16
TORSDOF 7
ENDMDL
MODEL 3
REMARK VINA RESULT:       4.0      2.736      3.616
REMARK  Name = 38027937
REMARK  12 active torsions:
REMARK  status: ('A' for Active; 'I' for Inactive)
REMARK    1  A    between atoms: O_3  and  C_30
REMARK    2  A    between atoms: O_3  and  C_33
REMARK    3  A    between atoms: N_5  and  C_16
REMARK    4  A    between atoms: N_6  and  C_26
REMARK    5  A    between atoms: N_7  and  C_27
REMARK    6  A    between atoms: C_8  and  C_12
REMARK    7  A    between atoms: C_9  and  C_16
REMARK    8  A    between atoms: C_11  and  C_15
REMARK    9  A    between atoms: C_12  and  C_17
REMARK   10  A    between atoms: C_12  and  C_18
REMARK   11  A    between atoms: C_13  and  C_19
REMARK   12  A    between atoms: C_15  and  C_20
REMARK                            x       y       z     vdW  Elec       q    Type
REMARK                         _______ _______ _______ _____ _____    ______ ____
ROOT
ATOM      8  C   UNL     1      -3.330   1.982  23.668  0.00  0.00    +0.000 C 
ATOM      9  C   UNL     1      -4.150   3.234  24.067  0.00  0.00    +0.032 C 
ATOM     10  C   UNL     1      -4.236   0.743  23.613  0.00  0.00    +0.012 C 
ATOM     11  C   UNL     1      -4.925   0.464  24.961  0.00  0.00    +0.023 C 
ATOM     13  C   UNL     1      -5.532   1.721  25.553  0.00  0.00    -0.073 C 
ATOM     14  C   UNL     1      -5.183   2.949  25.132  0.00  0.00    -0.022 C 
ATOM     19  C   UNL     1      -6.584   1.530  26.610  0.00  0.00    +0.039 C 
ENDROOT
BRANCH   8  12
ATOM     12  C   UNL     1      -2.625   2.170  22.321  0.00  0.00    -0.013 C 
ATOM     17  C   UNL     1      -2.317   0.818  21.687  0.00  0.00    +0.007 C 
ATOM     18  C   UNL     1      -3.480   3.022  21.388  0.00  0.00    +0.007 C 
ENDBRANCH   8  12
BRANCH  11  15
ATOM     15  C   UNL     1      -3.958  -0.196  25.950  0.00  0.00    +0.103 C 
BRANCH  15  20
ATOM      1  O   UNL     1      -3.839  -2.348  24.965  0.00  0.00    -0.276 OA
ATOM      4  N   UNL     1      -1.864  -1.128  25.030  0.00  0.00    -0.299 N 
ATOM      6  N   UNL     1       0.661  -0.516  23.823  0.00  0.00    -0.302 NA
ATOM     20  C   UNL     1      -3.223  -1.325  25.272  0.00  0.00    +0.216 C 
ATOM     21  C   UNL     1      -1.082  -2.174  24.373  0.00  0.00    +0.123 C 
ATOM     22  C   UNL     1      -1.076   0.015  25.500  0.00  0.00    +0.123 C 
ATOM     23  C   UNL     1      -0.182  -1.592  23.283  0.00  0.00    +0.103 C 
ATOM     24  C   UNL     1      -0.172   0.554  24.391  0.00  0.00    +0.103 C 
ATOM     26  C   UNL     1       1.543   0.015  22.785  0.00  0.00    +0.105 C 
ENDBRANCH  15  20
ENDBRANCH  11  15
BRANCH   9  16
ATOM     16  C   UNL     1      -3.233   4.369  24.537  0.00  0.00    +0.113 C 
BRANCH  16   5
ATOM      2  O   UNL     1      -2.272   4.029  27.214  0.00  0.00    -0.253 OA
ATOM      5  N   UNL     1      -1.956   3.862  24.928  0.00  0.00    -0.299 N 
ATOM      7  N   UNL     1      -0.255   3.202  26.343  0.00  0.00    -0.269 N 
ATOM     25  C   UNL     1      -1.550   3.722  26.268  0.00  0.00    +0.304 C 
ATOM     34  H   UNL     1      -1.329   3.521  24.206  0.00  0.00    +0.150 HD
ATOM     35  H   UNL     1       0.208   3.003  25.459  0.00  0.00    +0.156 HD
BRANCH   7  27
ATOM     27  C   UNL     1       0.501   2.919  27.504  0.00  0.00    +0.038 A 
ATOM     28  C   UNL     1       1.888   3.068  27.487  0.00  0.00    +0.069 A 
ATOM     29  C   UNL     1      -0.140   2.487  28.666  0.00  0.00    +0.023 A 
ATOM     30  C   UNL     1       2.633   2.788  28.632  0.00  0.00    +0.122 A 
ATOM     31  C   UNL     1       0.607   2.207  29.810  0.00  0.00    +0.005 A 
ATOM     32  C   UNL     1       1.993   2.357  29.793  0.00  0.00    +0.046 A 
BRANCH  30   3
ATOM      3  O   UNL     1       3.987   2.935  28.615  0.00  0.00    -0.495 OA
ATOM     33  C   UNL     1       4.734   1.976  27.866  0.00  0.00    +0.277 C 
ENDBRANCH  30   3
ENDBRANCH   7  27
ENDBRANCH  16   5
ENDBRANCH   9  16
TORSDOF 7
ENDMDL
MODEL 4
REMARK VINA RESULT:       5.0      2.056      4.904
REMARK  Name = 38027937
REMARK  12 active torsions:
REMARK  status: ('A' for Active; 'I' for Inactive)
REMARK    1  A    between atoms: O_3  and  C_30
REMARK    2  A    between atoms: O_3  and  C_33
REMARK    3  A    between atoms: N_5  and  C_16
REMARK    4  A    between atoms: N_6  and  C_26
REMARK    5  A    between atoms: N_7  and  C_27
REMARK    6  A    between atoms: C_8  and  C_12
REMARK    7  A    between atoms: C_9  and  C_16
REMARK    8  A    between atoms: C_11  and  C_15
REMARK    9  A    between atoms: C_12  and  C_17
REMARK   10  A    between atoms: C_12  and  C_18
REMARK   11  A    between atoms: C_13  and  C_19
REMARK   12  A    between atoms: C_15  and  C_20
REMARK                            x       y       z     vdW  Elec       q    Type
REMARK                         _______ _______ _______ _____ _____    ______ ____
ROOT
ATOM      8  C   UNL     1      -1.322   0.440  24.815  0.00  0.00    +0.000 C 
ATOM      9  C   UNL     1      -0.673  -0.845  24.242  0.00  0.00    +0.032 C 
ATOM     10  C   UNL     1      -2.396   0.080  25.853  0.00  0.00    +0.012 C 
ATOM     11  C   UNL     1      -3.508  -0.804  25.259  0.00  0.00    +0.023 C 
ATOM     13  C   UNL     1      -2.941  -1.951  24.446  0.00  0.00    -0.073 C 
ATOM     14  C   UNL     1      -1.669  -1.958  24.012  0.00  0.00    -0.022 C 
ATOM     19  C   UNL     1      -3.858  -3.113  24.184  0.00  0.00    +0.039 C 
ENDROOT
BRANCH   8  12
ATOM     12  C   UNL     1      -0.281   1.369  25.446  0.00  0.00    -0.013 C 
ATOM     17  C   UNL     1       0.143   2.447  24.453  0.00  0.00    +0.007 C 
ATOM     18  C   UNL     1      -0.833   1.998  26.722  0.00  0.00    +0.007 C 
ENDBRANCH   8  12
BRANCH  11  15
ATOM     15  C   UNL     1      -4.488   0.027  24.424  0.00  0.00    +0.103 C 
BRANCH  15  20
ATOM      1  O   UNL     1      -5.772   1.052  26.132  0.00  0.00    -0.276 OA
ATOM      4  N   UNL     1      -4.425   2.456  24.865  0.00  0.00    -0.299 N 
ATOM      6  N   UNL     1      -2.839   4.838  24.729  0.00  0.00    -0.302 NA
ATOM     20  C   UNL     1      -4.959   1.218  25.220  0.00  0.00    +0.216 C 
ATOM     21  C   UNL     1      -4.827   3.659  25.592  0.00  0.00    +0.123 C 
ATOM     22  C   UNL     1      -3.562   2.706  23.707  0.00  0.00    +0.123 C 
ATOM     23  C   UNL     1      -3.618   4.529  25.936  0.00  0.00    +0.103 C 
ATOM     24  C   UNL     1      -2.379   3.599  24.084  0.00  0.00    +0.103 C 
ATOM     26  C   UNL     1      -1.703   5.698  25.057  0.00  0.00    +0.105 C 
ENDBRANCH  15  20
ENDBRANCH  11  15
BRANCH   9  16
ATOM     16  C   UNL     1       0.074  -0.551  22.936  0.00  0.00    +0.113 C 
BRANCH  16   5
ATOM      2  O   UNL     1       2.353   1.143  23.317  0.00  0.00    -0.253 OA
ATOM      5  N   UNL     1       1.439  -0.963  23.028  0.00  0.00    -0.299 N 
ATOM      7  N   UNL     1       3.727  -0.760  23.267  0.00  0.00    -0.269 N 
ATOM     25  C   UNL     1       2.512  -0.071  23.216  0.00  0.00    +0.304 C 
ATOM     34  H   UNL     1       1.647  -1.957  23.024  0.00  0.00    +0.150 HD
ATOM     35  H   UNL     1       3.683  -1.771  23.163  0.00  0.00    +0.156 HD
BRANCH   7  27
ATOM     27  C   UNL     1       5.023  -0.221  23.442  0.00  0.00    +0.038 A 
ATOM     28  C   UNL     1       6.121  -0.835  22.838  0.00  0.00    +0.069 A 
ATOM     29  C   UNL     1       5.204   0.922  24.222  0.00  0.00    +0.023 A 
ATOM     30  C   UNL     1       7.398  -0.304  23.011  0.00  0.00    +0.122 A 
ATOM     31  C   UNL     1       6.483   1.451  24.395  0.00  0.00    +0.005 A 
ATOM     32  C   UNL     1       7.580   0.839  23.791  0.00  0.00    +0.046 A 
BRANCH  30   3
ATOM      3  O   UNL     1       8.469  -0.902  22.421  0.00  0.00    -0.495 OA
ATOM     33  C   UNL     1       9.760  -0.383  22.741  0.00  0.00    +0.277 C 
ENDBRANCH  30   3
ENDBRANCH   7  27
ENDBRANCH  16   5
ENDBRANCH   9  16
TORSDOF 7
ENDMDL
