MODEL 1
REMARK VINA RESULT:      10.2      0.000      0.000
REMARK  Name = 7051260
REMARK  8 active torsions:
REMARK  status: ('A' for Active; 'I' for Inactive)
REMARK    1  A    between atoms: S_1  and  N_10
REMARK    2  A    between atoms: S_1  and  C_28
REMARK    3  A    between atoms: O_6  and  C_29
REMARK    4  A    between atoms: O_6  and  C_35
REMARK    5  A    between atoms: O_7  and  C_34
REMARK    6  A    between atoms: O_7  and  C_36
REMARK    7  A    between atoms: N_10  and  C_21
REMARK    8  A    between atoms: C_20  and  C_23
REMARK                            x       y       z     vdW  Elec       q    Type
REMARK                         _______ _______ _______ _____ _____    ______ ____
ROOT
ATOM      2  O   UNL     1      -4.117   2.479  26.040  0.00  0.00    -0.266 OA
ATOM      3  O   UNL     1      -0.579  -1.252  26.684  0.00  0.00    -0.270 OA
ATOM      8  N   UNL     1      -1.930  -1.861  24.874  0.00  0.00    -0.297 N 
ATOM      9  N   UNL     1      -3.859   0.643  24.607  0.00  0.00    -0.310 N 
ATOM     11  C   UNL     1      -4.379  -1.763  25.315  0.00  0.00    +0.027 C 
ATOM     12  C   UNL     1      -3.523  -1.310  23.050  0.00  0.00    +0.054 C 
ATOM     13  C   UNL     1      -4.646  -1.991  23.831  0.00  0.00    +0.018 C 
ATOM     14  C   UNL     1      -3.018  -2.363  25.714  0.00  0.00    +0.113 C 
ATOM     15  C   UNL     1      -4.453  -0.259  25.604  0.00  0.00    +0.130 C 
ATOM     16  C   UNL     1      -2.172  -1.952  23.426  0.00  0.00    +0.117 C 
ATOM     17  C   UNL     1      -3.479   0.178  23.341  0.00  0.00    +0.027 A 
ATOM     18  C   UNL     1      -3.044   1.038  22.402  0.00  0.00    +0.024 A 
ATOM     19  C   UNL     1      -3.785   2.009  24.952  0.00  0.00    +0.274 A 
ATOM     20  C   UNL     1      -0.787  -1.329  25.475  0.00  0.00    +0.247 C 
ATOM     21  C   UNL     1      -3.274   2.903  23.884  0.00  0.00    +0.112 A 
ATOM     22  C   UNL     1      -2.935   2.445  22.679  0.00  0.00    +0.031 A 
ENDROOT
BRANCH  20  23
ATOM     23  C   UNL     1       0.263  -0.795  24.601  0.00  0.00    +0.037 A 
ATOM     24  C   UNL     1       1.418  -1.538  24.370  0.00  0.00    +0.016 A 
ATOM     25  C   UNL     1       0.099   0.454  24.007  0.00  0.00    +0.016 A 
ATOM     26  C   UNL     1       2.416  -1.028  23.539  0.00  0.00    +0.046 A 
ATOM     27  C   UNL     1       1.097   0.963  23.176  0.00  0.00    +0.046 A 
ATOM     29  C   UNL     1       2.255   0.222  22.942  0.00  0.00    +0.120 A 
BRANCH  29   6
ATOM      6  O   UNL     1       3.230   0.719  22.133  0.00  0.00    -0.495 OA
ATOM     35  C   UNL     1       4.548   0.797  22.677  0.00  0.00    +0.277 C 
ENDBRANCH  29   6
ENDBRANCH  20  23
BRANCH  21  10
ATOM     10  N   UNL     1      -3.142   4.284  24.119  0.00  0.00    -0.211 N 
ATOM     37  H   UNL     1      -3.789   4.849  23.550  0.00  0.00    +0.174 HD
BRANCH  10   1
ATOM      1  S   UNL     1      -1.570   4.900  24.221  0.00  0.00    +0.073 S 
ATOM      4  O   UNL     1      -0.821   4.525  23.036  0.00  0.00    -0.150 OA
ATOM      5  O   UNL     1      -1.614   6.285  24.650  0.00  0.00    -0.150 OA
BRANCH   1  28
ATOM     28  C   UNL     1      -0.931   3.952  25.571  0.00  0.00    +0.109 A 
ATOM     30  C   UNL     1       0.325   3.383  25.461  0.00  0.00    +0.032 A 
ATOM     31  C   UNL     1      -1.700   3.796  26.711  0.00  0.00    +0.032 A 
ATOM     32  C   UNL     1       0.829   2.636  26.525  0.00  0.00    +0.047 A 
ATOM     33  C   UNL     1      -1.197   3.048  27.774  0.00  0.00    +0.047 A 
ATOM     34  C   UNL     1       0.069   2.467  27.681  0.00  0.00    +0.120 A 
BRANCH  34   7
ATOM      7  O   UNL     1       0.561   1.738  28.721  0.00  0.00    -0.495 OA
ATOM     36  C   UNL     1       1.551   2.360  29.538  0.00  0.00    +0.277 C 
ENDBRANCH  34   7
ENDBRANCH   1  28
ENDBRANCH  10   1
ENDBRANCH  21  10
TORSDOF 6
ENDMDL
MODEL 2
REMARK VINA RESULT:      10.9      2.506      5.972
REMARK  Name = 7051260
REMARK  8 active torsions:
REMARK  status: ('A' for Active; 'I' for Inactive)
REMARK    1  A    between atoms: S_1  and  N_10
REMARK    2  A    between atoms: S_1  and  C_28
REMARK    3  A    between atoms: O_6  and  C_29
REMARK    4  A    between atoms: O_6  and  C_35
REMARK    5  A    between atoms: O_7  and  C_34
REMARK    6  A    between atoms: O_7  and  C_36
REMARK    7  A    between atoms: N_10  and  C_21
REMARK    8  A    between atoms: C_20  and  C_23
REMARK                            x       y       z     vdW  Elec       q    Type
REMARK                         _______ _______ _______ _____ _____    ______ ____
ROOT
ATOM      2  O   UNL     1       0.029   3.007  25.628  0.00  0.00    -0.266 OA
ATOM      3  O   UNL     1      -4.209   0.519  27.269  0.00  0.00    -0.270 OA
ATOM      8  N   UNL     1      -4.803   1.759  25.376  0.00  0.00    -0.297 N 
ATOM      9  N   UNL     1      -2.025   3.017  24.503  0.00  0.00    -0.310 N 
ATOM     11  C   UNL     1      -4.122   4.153  25.436  0.00  0.00    +0.027 C 
ATOM     12  C   UNL     1      -4.230   2.964  23.282  0.00  0.00    +0.054 C 
ATOM     13  C   UNL     1      -4.525   4.295  23.971  0.00  0.00    +0.018 C 
ATOM     14  C   UNL     1      -4.923   3.022  26.106  0.00  0.00    +0.113 C 
ATOM     15  C   UNL     1      -2.610   3.912  25.511  0.00  0.00    +0.130 C 
ATOM     16  C   UNL     1      -5.073   1.849  23.932  0.00  0.00    +0.117 C 
ATOM     17  C   UNL     1      -2.757   2.612  23.378  0.00  0.00    +0.027 A 
ATOM     18  C   UNL     1      -2.170   1.888  22.408  0.00  0.00    +0.024 A 
ATOM     19  C   UNL     1      -0.668   2.671  24.672  0.00  0.00    +0.274 A 
ATOM     20  C   UNL     1      -4.434   0.600  26.063  0.00  0.00    +0.247 C 
ATOM     21  C   UNL     1      -0.085   1.850  23.583  0.00  0.00    +0.112 A 
ATOM     22  C   UNL     1      -0.792   1.490  22.511  0.00  0.00    +0.031 A 
ENDROOT
BRANCH  20  23
ATOM     23  C   UNL     1      -4.280  -0.637  25.290  0.00  0.00    +0.037 A 
ATOM     24  C   UNL     1      -3.550  -1.699  25.819  0.00  0.00    +0.016 A 
ATOM     25  C   UNL     1      -4.864  -0.742  24.030  0.00  0.00    +0.016 A 
ATOM     26  C   UNL     1      -3.404  -2.874  25.081  0.00  0.00    +0.046 A 
ATOM     27  C   UNL     1      -4.718  -1.918  23.294  0.00  0.00    +0.046 A 
ATOM     29  C   UNL     1      -3.988  -2.984  23.819  0.00  0.00    +0.120 A 
BRANCH  29   6
ATOM      6  O   UNL     1      -3.843  -4.131  23.100  0.00  0.00    -0.495 OA
ATOM     35  C   UNL     1      -2.510  -4.574  22.848  0.00  0.00    +0.277 C 
ENDBRANCH  29   6
ENDBRANCH  20  23
BRANCH  21  10
ATOM     10  N   UNL     1       1.256   1.432  23.651  0.00  0.00    -0.211 N 
ATOM     37  H   UNL     1       1.917   2.160  23.344  0.00  0.00    +0.174 HD
BRANCH  10   1
ATOM      1  S   UNL     1       1.608  -0.124  23.087  0.00  0.00    +0.073 S 
ATOM      4  O   UNL     1       1.010  -1.109  23.968  0.00  0.00    -0.150 OA
ATOM      5  O   UNL     1       1.379  -0.188  21.656  0.00  0.00    -0.150 OA
BRANCH   1  28
ATOM     28  C   UNL     1       3.357  -0.180  23.344  0.00  0.00    +0.109 A 
ATOM     30  C   UNL     1       4.110   0.956  23.108  0.00  0.00    +0.032 A 
ATOM     31  C   UNL     1       3.939  -1.359  23.776  0.00  0.00    +0.032 A 
ATOM     32  C   UNL     1       5.489   0.913  23.312  0.00  0.00    +0.047 A 
ATOM     33  C   UNL     1       5.318  -1.403  23.979  0.00  0.00    +0.047 A 
ATOM     34  C   UNL     1       6.093  -0.266  23.747  0.00  0.00    +0.120 A 
BRANCH  34   7
ATOM      7  O   UNL     1       7.439  -0.309  23.946  0.00  0.00    -0.495 OA
ATOM     36  C   UNL     1       8.258  -0.538  22.800  0.00  0.00    +0.277 C 
ENDBRANCH  34   7
ENDBRANCH   1  28
ENDBRANCH  10   1
ENDBRANCH  21  10
TORSDOF 6
ENDMDL
MODEL 3
REMARK VINA RESULT:      11.4      2.013      5.774
REMARK  Name = 7051260
REMARK  8 active torsions:
REMARK  status: ('A' for Active; 'I' for Inactive)
REMARK    1  A    between atoms: S_1  and  N_10
REMARK    2  A    between atoms: S_1  and  C_28
REMARK    3  A    between atoms: O_6  and  C_29
REMARK    4  A    between atoms: O_6  and  C_35
REMARK    5  A    between atoms: O_7  and  C_34
REMARK    6  A    between atoms: O_7  and  C_36
REMARK    7  A    between atoms: N_10  and  C_21
REMARK    8  A    between atoms: C_20  and  C_23
REMARK                            x       y       z     vdW  Elec       q    Type
REMARK                         _______ _______ _______ _____ _____    ______ ____
ROOT
ATOM      2  O   UNL     1      -3.216   0.886  22.019  0.00  0.00    -0.266 OA
ATOM      3  O   UNL     1      -0.131   4.529  24.034  0.00  0.00    -0.270 OA
ATOM      8  N   UNL     1      -2.225   4.728  25.057  0.00  0.00    -0.297 N 
ATOM      9  N   UNL     1      -3.826   2.307  23.779  0.00  0.00    -0.310 N 
ATOM     11  C   UNL     1      -4.154   4.830  23.486  0.00  0.00    +0.027 C 
ATOM     12  C   UNL     1      -4.438   3.808  25.709  0.00  0.00    +0.054 C 
ATOM     13  C   UNL     1      -5.111   4.699  24.666  0.00  0.00    +0.018 C 
ATOM     14  C   UNL     1      -2.824   5.459  23.940  0.00  0.00    +0.113 C 
ATOM     15  C   UNL     1      -3.952   3.445  22.858  0.00  0.00    +0.130 C 
ATOM     16  C   UNL     1      -3.131   4.472  26.188  0.00  0.00    +0.117 C 
ATOM     17  C   UNL     1      -4.134   2.435  25.140  0.00  0.00    +0.027 A 
ATOM     18  C   UNL     1      -4.124   1.357  25.945  0.00  0.00    +0.024 A 
ATOM     19  C   UNL     1      -3.481   1.064  23.207  0.00  0.00    +0.274 A 
ATOM     20  C   UNL     1      -0.892   4.317  24.975  0.00  0.00    +0.247 C 
ATOM     21  C   UNL     1      -3.462  -0.081  24.150  0.00  0.00    +0.112 A 
ATOM     22  C   UNL     1      -3.776   0.057  25.438  0.00  0.00    +0.031 A 
ENDROOT
BRANCH  20  23
ATOM     23  C   UNL     1      -0.341   3.548  26.096  0.00  0.00    +0.037 A 
ATOM     24  C   UNL     1      -1.131   2.599  26.741  0.00  0.00    +0.016 A 
ATOM     25  C   UNL     1       0.970   3.772  26.509  0.00  0.00    +0.016 A 
ATOM     26  C   UNL     1      -0.605   1.870  27.807  0.00  0.00    +0.046 A 
ATOM     27  C   UNL     1       1.495   3.041  27.575  0.00  0.00    +0.046 A 
ATOM     29  C   UNL     1       0.708   2.090  28.224  0.00  0.00    +0.120 A 
BRANCH  29   6
ATOM      6  O   UNL     1       1.219   1.378  29.266  0.00  0.00    -0.495 OA
ATOM     35  C   UNL     1       2.042   2.085  30.193  0.00  0.00    +0.277 C 
ENDBRANCH  29   6
ENDBRANCH  20  23
BRANCH  21  10
ATOM     10  N   UNL     1      -3.117  -1.367  23.695  0.00  0.00    -0.211 N 
ATOM     37  H   UNL     1      -3.936  -1.976  23.561  0.00  0.00    +0.174 HD
BRANCH  10   1
ATOM      1  S   UNL     1      -1.794  -2.116  24.439  0.00  0.00    +0.073 S 
ATOM      4  O   UNL     1      -1.931  -2.028  25.881  0.00  0.00    -0.150 OA
ATOM      5  O   UNL     1      -1.538  -3.395  23.806  0.00  0.00    -0.150 OA
BRANCH   1  28
ATOM     28  C   UNL     1      -0.487  -1.022  23.966  0.00  0.00    +0.109 A 
ATOM     30  C   UNL     1       0.261  -1.313  22.839  0.00  0.00    +0.032 A 
ATOM     31  C   UNL     1      -0.238   0.103  24.731  0.00  0.00    +0.032 A 
ATOM     32  C   UNL     1       1.291  -0.450  22.465  0.00  0.00    +0.047 A 
ATOM     33  C   UNL     1       0.793   0.965  24.358  0.00  0.00    +0.047 A 
ATOM     34  C   UNL     1       1.557   0.688  23.224  0.00  0.00    +0.120 A 
BRANCH  34   7
ATOM      7  O   UNL     1       2.563   1.531  22.859  0.00  0.00    -0.495 OA
ATOM     36  C   UNL     1       3.876   0.979  22.781  0.00  0.00    +0.277 C 
ENDBRANCH  34   7
ENDBRANCH   1  28
ENDBRANCH  10   1
ENDBRANCH  21  10
TORSDOF 6
ENDMDL
