MODEL 1
REMARK VINA RESULT:       2.0      0.000      0.000
REMARK  Name = 51138043
REMARK  12 active torsions:
REMARK  status: ('A' for Active; 'I' for Inactive)
REMARK    1  A    between atoms: N_3  and  C_20
REMARK    2  A    between atoms: N_4  and  C_25
REMARK    3  A    between atoms: N_5  and  C_26
REMARK    4  A    between atoms: N_5  and  C_31
REMARK    5  A    between atoms: N_5  and  C_32
REMARK    6  A    between atoms: C_7  and  C_11
REMARK    7  A    between atoms: C_10  and  C_18
REMARK    8  A    between atoms: C_11  and  C_15
REMARK    9  A    between atoms: C_15  and  C_22
REMARK   10  A    between atoms: C_15  and  C_23
REMARK   11  A    between atoms: C_20  and  C_24
REMARK   12  A    between atoms: C_25  and  C_26
REMARK                            x       y       z     vdW  Elec       q    Type
REMARK                         _______ _______ _______ _____ _____    ______ ____
ROOT
ATOM      2  N   UNL     1      -2.807   1.333  25.283  0.00  0.00    -0.299 NA
ATOM      3  N   UNL     1       1.483   0.094  22.926  0.00  0.00    -0.342 N 
ATOM      7  C   UNL     1      -2.352   0.088  25.915  0.00  0.00    +0.085 C 
ATOM      8  C   UNL     1      -1.155  -0.600  25.252  0.00  0.00    -0.021 A 
ATOM      9  C   UNL     1      -0.266   0.015  24.322  0.00  0.00    +0.008 A 
ATOM     10  C   UNL     1      -1.840   2.420  25.313  0.00  0.00    +0.145 C 
ATOM     12  C   UNL     1      -0.170   1.332  23.753  0.00  0.00    -0.020 A 
ATOM     13  C   UNL     1      -1.054   2.508  24.007  0.00  0.00    +0.065 C 
ATOM     14  C   UNL     1       0.802  -0.722  23.798  0.00  0.00    +0.050 A 
ATOM     16  C   UNL     1       0.912   1.331  22.896  0.00  0.00    +0.091 A 
ATOM     17  C   UNL     1      -0.838  -1.929  25.633  0.00  0.00    +0.006 A 
ATOM     19  C   UNL     1       1.069  -2.046  24.151  0.00  0.00    +0.026 A 
ATOM     21  C   UNL     1       0.234  -2.635  25.091  0.00  0.00    +0.002 A 
ATOM     33  H   UNL     1      -3.138   1.161  24.335  0.00  0.00    +0.123 HD
ENDROOT
BRANCH  10  18
ATOM      1  O   UNL     1      -2.141   4.740  25.783  0.00  0.00    -0.274 OA
ATOM      4  N   UNL     1      -4.006   3.441  25.275  0.00  0.00    -0.313 N 
ATOM     18  C   UNL     1      -2.655   3.667  25.480  0.00  0.00    +0.230 C 
ATOM     34  H   UNL     1      -4.322   2.513  25.011  0.00  0.00    +0.149 HD
BRANCH   4  25
ATOM     25  C   UNL     1      -5.006   4.476  25.398  0.00  0.00    +0.119 C 
BRANCH  25  26
ATOM     26  C   UNL     1      -6.366   3.889  25.748  0.00  0.00    +0.102 C 
BRANCH  26   5
ATOM      5  N   UNL     1      -6.288   2.436  25.819  0.00  0.00    -0.307 NA
ATOM     31  C   UNL     1      -6.927   1.943  27.040  0.00  0.00    +0.104 C 
ATOM     32  C   UNL     1      -6.910   1.829  24.640  0.00  0.00    +0.104 C 
ENDBRANCH  26   5
ENDBRANCH  25  26
ENDBRANCH   4  25
ENDBRANCH  10  18
BRANCH   7  11
ATOM     11  C   UNL     1      -3.602  -0.810  25.952  0.00  0.00    +0.026 C 
BRANCH  11  15
ATOM     15  C   UNL     1      -4.231  -1.018  24.571  0.00  0.00    -0.015 C 
ATOM     22  C   UNL     1      -3.957  -2.449  24.102  0.00  0.00    +0.007 C 
ATOM     23  C   UNL     1      -3.709  -0.024  23.531  0.00  0.00    +0.007 C 
ENDBRANCH  11  15
ENDBRANCH   7  11
BRANCH   3  20
ATOM     20  C   UNL     1       2.651  -0.282  22.158  0.00  0.00    +0.157 C 
BRANCH  20  24
ATOM      6  N   UNL     1       6.290  -0.239  24.456  0.00  0.00    -0.263 NA
ATOM     24  C   UNL     1       3.926  -0.267  22.964  0.00  0.00    -0.025 A 
ATOM     27  C   UNL     1       4.358  -1.421  23.610  0.00  0.00    +0.025 A 
ATOM     28  C   UNL     1       4.676   0.899  23.062  0.00  0.00    +0.025 A 
ATOM     29  C   UNL     1       5.536  -1.355  24.337  0.00  0.00    +0.111 A 
ATOM     30  C   UNL     1       5.840   0.862  23.813  0.00  0.00    +0.111 A 
ENDBRANCH  20  24
ENDBRANCH   3  20
TORSDOF 8
ENDMDL
MODEL 2
REMARK VINA RESULT:       5.3      2.078      8.209
REMARK  Name = 51138043
REMARK  12 active torsions:
REMARK  status: ('A' for Active; 'I' for Inactive)
REMARK    1  A    between atoms: N_3  and  C_20
REMARK    2  A    between atoms: N_4  and  C_25
REMARK    3  A    between atoms: N_5  and  C_26
REMARK    4  A    between atoms: N_5  and  C_31
REMARK    5  A    between atoms: N_5  and  C_32
REMARK    6  A    between atoms: C_7  and  C_11
REMARK    7  A    between atoms: C_10  and  C_18
REMARK    8  A    between atoms: C_11  and  C_15
REMARK    9  A    between atoms: C_15  and  C_22
REMARK   10  A    between atoms: C_15  and  C_23
REMARK   11  A    between atoms: C_20  and  C_24
REMARK   12  A    between atoms: C_25  and  C_26
REMARK                            x       y       z     vdW  Elec       q    Type
REMARK                         _______ _______ _______ _____ _____    ______ ____
ROOT
ATOM      2  N   UNL     1       0.404  -0.781  23.860  0.00  0.00    -0.299 NA
ATOM      3  N   UNL     1      -2.064   3.540  24.714  0.00  0.00    -0.342 N 
ATOM      7  C   UNL     1      -0.998  -1.050  23.518  0.00  0.00    +0.085 C 
ATOM      8  C   UNL     1      -1.997   0.059  23.865  0.00  0.00    -0.021 A 
ATOM      9  C   UNL     1      -1.652   1.409  24.162  0.00  0.00    +0.008 A 
ATOM     10  C   UNL     1       1.002   0.335  23.142  0.00  0.00    +0.145 C 
ATOM     12  C   UNL     1      -0.412   2.134  24.223  0.00  0.00    -0.020 A 
ATOM     13  C   UNL     1       0.966   1.619  23.969  0.00  0.00    +0.065 C 
ATOM     14  C   UNL     1      -2.664   2.332  24.451  0.00  0.00    +0.050 A 
ATOM     16  C   UNL     1      -0.712   3.435  24.574  0.00  0.00    +0.091 A 
ATOM     17  C   UNL     1      -3.383  -0.237  23.820  0.00  0.00    +0.006 A 
ATOM     19  C   UNL     1      -4.022   2.009  24.448  0.00  0.00    +0.026 A 
ATOM     21  C   UNL     1      -4.366   0.706  24.113  0.00  0.00    +0.002 A 
ATOM     33  H   UNL     1       0.520  -0.676  24.866  0.00  0.00    +0.123 HD
ENDROOT
BRANCH  10  18
ATOM      1  O   UNL     1       2.757  -1.233  22.744  0.00  0.00    -0.274 OA
ATOM      4  N   UNL     1       3.288   1.024  22.953  0.00  0.00    -0.313 N 
ATOM     18  C   UNL     1       2.430  -0.062  22.916  0.00  0.00    +0.230 C 
ATOM     34  H   UNL     1       2.907   1.956  23.087  0.00  0.00    +0.149 HD
BRANCH   4  25
ATOM     25  C   UNL     1       4.718   0.907  22.785  0.00  0.00    +0.119 C 
BRANCH  25  26
ATOM     26  C   UNL     1       5.407   0.624  24.112  0.00  0.00    +0.102 C 
BRANCH  26   5
ATOM      5  N   UNL     1       6.139  -0.634  24.045  0.00  0.00    -0.307 NA
ATOM     31  C   UNL     1       5.220  -1.771  24.119  0.00  0.00    +0.104 C 
ATOM     32  C   UNL     1       6.934  -0.703  22.817  0.00  0.00    +0.104 C 
ENDBRANCH  26   5
ENDBRANCH  25  26
ENDBRANCH   4  25
ENDBRANCH  10  18
BRANCH   7  11
ATOM     11  C   UNL     1      -1.324  -2.379  24.223  0.00  0.00    +0.026 C 
BRANCH  11  15
ATOM     15  C   UNL     1      -2.790  -2.484  24.654  0.00  0.00    -0.015 C 
ATOM     22  C   UNL     1      -2.861  -2.596  26.179  0.00  0.00    +0.007 C 
ATOM     23  C   UNL     1      -3.509  -3.673  24.014  0.00  0.00    +0.007 C 
ENDBRANCH  11  15
ENDBRANCH   7  11
BRANCH   3  20
ATOM     20  C   UNL     1      -2.752   4.763  25.069  0.00  0.00    +0.157 C 
BRANCH  20  24
ATOM      6  N   UNL     1      -6.882   4.154  26.117  0.00  0.00    -0.263 NA
ATOM     24  C   UNL     1      -4.200   4.550  25.436  0.00  0.00    -0.025 A 
ATOM     27  C   UNL     1      -5.188   5.355  24.879  0.00  0.00    +0.025 A 
ATOM     28  C   UNL     1      -4.552   3.547  26.332  0.00  0.00    +0.025 A 
ATOM     29  C   UNL     1      -6.502   5.118  25.249  0.00  0.00    +0.111 A 
ATOM     30  C   UNL     1      -5.895   3.391  26.637  0.00  0.00    +0.111 A 
ENDBRANCH  20  24
ENDBRANCH   3  20
TORSDOF 8
ENDMDL
MODEL 3
REMARK VINA RESULT:       5.6      0.915      1.758
REMARK  Name = 51138043
REMARK  12 active torsions:
REMARK  status: ('A' for Active; 'I' for Inactive)
REMARK    1  A    between atoms: N_3  and  C_20
REMARK    2  A    between atoms: N_4  and  C_25
REMARK    3  A    between atoms: N_5  and  C_26
REMARK    4  A    between atoms: N_5  and  C_31
REMARK    5  A    between atoms: N_5  and  C_32
REMARK    6  A    between atoms: C_7  and  C_11
REMARK    7  A    between atoms: C_10  and  C_18
REMARK    8  A    between atoms: C_11  and  C_15
REMARK    9  A    between atoms: C_15  and  C_22
REMARK   10  A    between atoms: C_15  and  C_23
REMARK   11  A    between atoms: C_20  and  C_24
REMARK   12  A    between atoms: C_25  and  C_26
REMARK                            x       y       z     vdW  Elec       q    Type
REMARK                         _______ _______ _______ _____ _____    ______ ____
ROOT
ATOM      2  N   UNL     1      -3.039   0.971  25.536  0.00  0.00    -0.299 NA
ATOM      3  N   UNL     1       1.236   0.117  22.989  0.00  0.00    -0.342 N 
ATOM      7  C   UNL     1      -2.510  -0.294  26.061  0.00  0.00    +0.085 C 
ATOM      8  C   UNL     1      -1.301  -0.873  25.319  0.00  0.00    -0.021 A 
ATOM      9  C   UNL     1      -0.468  -0.149  24.417  0.00  0.00    +0.008 A 
ATOM     10  C   UNL     1      -2.122   2.098  25.625  0.00  0.00    +0.145 C 
ATOM     12  C   UNL     1      -0.448   1.210  23.947  0.00  0.00    -0.020 A 
ATOM     13  C   UNL     1      -1.377   2.320  24.310  0.00  0.00    +0.065 C 
ATOM     14  C   UNL     1       0.618  -0.793  23.813  0.00  0.00    +0.050 A 
ATOM     16  C   UNL     1       0.609   1.325  23.066  0.00  0.00    +0.091 A 
ATOM     17  C   UNL     1      -0.914  -2.210  25.590  0.00  0.00    +0.006 A 
ATOM     19  C   UNL     1       0.955  -2.125  24.058  0.00  0.00    +0.026 A 
ATOM     21  C   UNL     1       0.174  -2.822  24.971  0.00  0.00    +0.002 A 
ATOM     33  H   UNL     1      -3.388   0.854  24.586  0.00  0.00    +0.123 HD
ENDROOT
BRANCH  10  18
ATOM      1  O   UNL     1      -2.521   4.346  26.318  0.00  0.00    -0.274 OA
ATOM      4  N   UNL     1      -4.328   3.030  25.667  0.00  0.00    -0.313 N 
ATOM     18  C   UNL     1      -2.988   3.288  25.905  0.00  0.00    +0.230 C 
ATOM     34  H   UNL     1      -4.604   2.120  25.310  0.00  0.00    +0.149 HD
BRANCH   4  25
ATOM     25  C   UNL     1      -5.370   4.006  25.881  0.00  0.00    +0.119 C 
BRANCH  25  26
ATOM     26  C   UNL     1      -5.472   4.971  24.709  0.00  0.00    +0.102 C 
BRANCH  26   5
ATOM      5  N   UNL     1      -4.285   4.875  23.869  0.00  0.00    -0.307 NA
ATOM     31  C   UNL     1      -4.391   3.739  22.952  0.00  0.00    +0.104 C 
ATOM     32  C   UNL     1      -4.083   6.116  23.119  0.00  0.00    +0.104 C 
ENDBRANCH  26   5
ENDBRANCH  25  26
ENDBRANCH   4  25
ENDBRANCH  10  18
BRANCH   7  11
ATOM     11  C   UNL     1      -3.716  -1.251  26.061  0.00  0.00    +0.026 C 
BRANCH  11  15
ATOM     15  C   UNL     1      -4.313  -1.461  24.665  0.00  0.00    -0.015 C 
ATOM     22  C   UNL     1      -3.863  -2.819  24.122  0.00  0.00    +0.007 C 
ATOM     23  C   UNL     1      -3.918  -0.356  23.684  0.00  0.00    +0.007 C 
ENDBRANCH  11  15
ENDBRANCH   7  11
BRANCH   3  20
ATOM     20  C   UNL     1       2.398  -0.144  22.166  0.00  0.00    +0.157 C 
BRANCH  20  24
ATOM      6  N   UNL     1       6.078  -0.255  24.397  0.00  0.00    -0.263 NA
ATOM     24  C   UNL     1       3.688  -0.183  22.948  0.00  0.00    -0.025 A 
ATOM     27  C   UNL     1       4.472   0.960  23.059  0.00  0.00    +0.025 A 
ATOM     28  C   UNL     1       4.097  -1.362  23.562  0.00  0.00    +0.025 A 
ATOM     29  C   UNL     1       5.647   0.872  23.787  0.00  0.00    +0.111 A 
ATOM     30  C   UNL     1       5.289  -1.346  24.268  0.00  0.00    +0.111 A 
ENDBRANCH  20  24
ENDBRANCH   3  20
TORSDOF 8
ENDMDL
