MODEL 1
REMARK VINA RESULT:      -1.7      0.000      0.000
REMARK  Name = 56775759
REMARK  8 active torsions:
REMARK  status: ('A' for Active; 'I' for Inactive)
REMARK    1  A    between atoms: O_3  and  C_25
REMARK    2  A    between atoms: O_3  and  C_26
REMARK    3  A    between atoms: N_4  and  C_7
REMARK    4  A    between atoms: N_4  and  C_8
REMARK    5  A    between atoms: N_5  and  C_17
REMARK    6  A    between atoms: C_7  and  C_11
REMARK    7  A    between atoms: C_11  and  C_16
REMARK    8  A    between atoms: C_19  and  C_20
REMARK                            x       y       z     vdW  Elec       q    Type
REMARK                         _______ _______ _______ _____ _____    ______ ____
ROOT
ATOM     11  C   UNL     1      -3.755   2.857  23.606  0.00  0.00    +0.085 C 
ENDROOT
BRANCH  11  16
ATOM      2  O   UNL     1      -0.255   2.828  24.505  0.00  0.00    -0.354 OA
ATOM      6  N   UNL     1      -1.549   3.322  24.614  0.00  0.00    -0.083 NA
ATOM     16  C   UNL     1      -2.271   2.594  23.758  0.00  0.00    +0.086 A 
ATOM     18  C   UNL     1      -1.494   1.635  23.087  0.00  0.00    +0.076 A 
ATOM     19  C   UNL     1      -0.235   1.823  23.592  0.00  0.00    +0.167 A 
BRANCH  19  20
ATOM     20  C   UNL     1       1.042   1.208  23.370  0.00  0.00    +0.020 A 
ATOM     21  C   UNL     1       2.188   1.997  23.280  0.00  0.00    +0.015 A 
ATOM     22  C   UNL     1       1.136  -0.178  23.246  0.00  0.00    +0.015 A 
ATOM     23  C   UNL     1       3.431   1.399  23.065  0.00  0.00    +0.046 A 
ATOM     24  C   UNL     1       2.378  -0.776  23.032  0.00  0.00    +0.046 A 
ATOM     25  C   UNL     1       3.525   0.013  22.940  0.00  0.00    +0.120 A 
BRANCH  25   3
ATOM      3  O   UNL     1       4.737  -0.571  22.734  0.00  0.00    -0.495 OA
ATOM     26  C   UNL     1       5.812  -0.149  23.572  0.00  0.00    +0.277 C 
ENDBRANCH  25   3
ENDBRANCH  19  20
ENDBRANCH  11  16
BRANCH  11   7
ATOM      1  O   UNL     1      -6.269   3.382  25.754  0.00  0.00    -0.376 OA
ATOM      7  C   UNL     1      -4.473   2.609  24.897  0.00  0.00    +0.072 C 
ATOM      9  C   UNL     1      -4.885   3.800  25.754  0.00  0.00    +0.184 C 
ATOM     10  C   UNL     1      -5.963   2.284  24.864  0.00  0.00    +0.184 C 
BRANCH   7   4
ATOM      4  N   UNL     1      -3.795   1.626  25.748  0.00  0.00    -0.304 NA
ATOM     27  H   UNL     1      -4.289   1.353  26.597  0.00  0.00    +0.123 HD
BRANCH   4   8
ATOM      5  N   UNL     1      -3.320  -2.453  24.652  0.00  0.00    -0.305 NA
ATOM      8  C   UNL     1      -3.441   0.456  24.948  0.00  0.00    +0.057 C 
ATOM     12  C   UNL     1      -4.686  -0.388  24.664  0.00  0.00    +0.034 C 
ATOM     13  C   UNL     1      -2.384  -0.394  25.659  0.00  0.00    +0.034 C 
ATOM     14  C   UNL     1      -4.320  -1.670  23.911  0.00  0.00    +0.085 C 
ATOM     15  C   UNL     1      -2.093  -1.676  24.873  0.00  0.00    +0.085 C 
ATOM     17  C   UNL     1      -3.018  -3.697  23.946  0.00  0.00    +0.104 C 
ENDBRANCH   4   8
ENDBRANCH   7   4
ENDBRANCH  11   7
TORSDOF 6
ENDMDL
MODEL 2
REMARK VINA RESULT:      -0.7      1.755      3.842
REMARK  Name = 56775759
REMARK  8 active torsions:
REMARK  status: ('A' for Active; 'I' for Inactive)
REMARK    1  A    between atoms: O_3  and  C_25
REMARK    2  A    between atoms: O_3  and  C_26
REMARK    3  A    between atoms: N_4  and  C_7
REMARK    4  A    between atoms: N_4  and  C_8
REMARK    5  A    between atoms: N_5  and  C_17
REMARK    6  A    between atoms: C_7  and  C_11
REMARK    7  A    between atoms: C_11  and  C_16
REMARK    8  A    between atoms: C_19  and  C_20
REMARK                            x       y       z     vdW  Elec       q    Type
REMARK                         _______ _______ _______ _____ _____    ______ ____
ROOT
ATOM     11  C   UNL     1      -4.514  -0.271  24.581  0.00  0.00    +0.085 C 
ENDROOT
BRANCH  11  16
ATOM      2  O   UNL     1      -1.012  -1.047  25.021  0.00  0.00    -0.354 OA
ATOM      6  N   UNL     1      -2.354  -1.183  25.356  0.00  0.00    -0.083 NA
ATOM     16  C   UNL     1      -3.005  -0.380  24.510  0.00  0.00    +0.086 A 
ATOM     18  C   UNL     1      -2.135   0.281  23.627  0.00  0.00    +0.076 A 
ATOM     19  C   UNL     1      -0.894  -0.172  23.990  0.00  0.00    +0.167 A 
BRANCH  19  20
ATOM     20  C   UNL     1       0.442   0.071  23.529  0.00  0.00    +0.020 A 
ATOM     21  C   UNL     1       1.152   1.175  23.999  0.00  0.00    +0.015 A 
ATOM     22  C   UNL     1       1.032  -0.798  22.611  0.00  0.00    +0.015 A 
ATOM     23  C   UNL     1       2.452   1.411  23.551  0.00  0.00    +0.046 A 
ATOM     24  C   UNL     1       2.332  -0.564  22.164  0.00  0.00    +0.046 A 
ATOM     25  C   UNL     1       3.042   0.542  22.633  0.00  0.00    +0.120 A 
BRANCH  25   3
ATOM      3  O   UNL     1       4.311   0.769  22.198  0.00  0.00    -0.495 OA
ATOM     26  C   UNL     1       5.374   0.300  23.025  0.00  0.00    +0.277 C 
ENDBRANCH  25   3
ENDBRANCH  19  20
ENDBRANCH  11  16
BRANCH  11   7
ATOM      1  O   UNL     1      -6.648   2.294  24.850  0.00  0.00    -0.376 OA
ATOM      7  C   UNL     1      -4.925   1.065  25.121  0.00  0.00    +0.072 C 
ATOM      9  C   UNL     1      -5.393   2.142  24.150  0.00  0.00    +0.184 C 
ATOM     10  C   UNL     1      -6.306   1.215  25.749  0.00  0.00    +0.184 C 
BRANCH   7   4
ATOM      4  N   UNL     1      -3.929   1.646  26.026  0.00  0.00    -0.304 NA
ATOM     27  H   UNL     1      -3.331   0.983  26.519  0.00  0.00    +0.123 HD
BRANCH   4   8
ATOM      5  N   UNL     1      -1.439   5.019  25.325  0.00  0.00    -0.305 NA
ATOM      8  C   UNL     1      -3.131   2.631  25.299  0.00  0.00    +0.057 C 
ATOM     12  C   UNL     1      -1.679   2.598  25.782  0.00  0.00    +0.034 C 
ATOM     13  C   UNL     1      -3.708   4.039  25.474  0.00  0.00    +0.034 C 
ATOM     14  C   UNL     1      -0.849   3.690  25.103  0.00  0.00    +0.085 C 
ATOM     15  C   UNL     1      -2.811   5.085  24.804  0.00  0.00    +0.085 C 
ATOM     17  C   UNL     1      -0.609   6.056  24.713  0.00  0.00    +0.104 C 
ENDBRANCH   4   8
ENDBRANCH   7   4
ENDBRANCH  11   7
TORSDOF 6
ENDMDL
MODEL 3
REMARK VINA RESULT:      -0.7      1.955      4.081
REMARK  Name = 56775759
REMARK  8 active torsions:
REMARK  status: ('A' for Active; 'I' for Inactive)
REMARK    1  A    between atoms: O_3  and  C_25
REMARK    2  A    between atoms: O_3  and  C_26
REMARK    3  A    between atoms: N_4  and  C_7
REMARK    4  A    between atoms: N_4  and  C_8
REMARK    5  A    between atoms: N_5  and  C_17
REMARK    6  A    between atoms: C_7  and  C_11
REMARK    7  A    between atoms: C_11  and  C_16
REMARK    8  A    between atoms: C_19  and  C_20
REMARK                            x       y       z     vdW  Elec       q    Type
REMARK                         _______ _______ _______ _____ _____    ______ ____
ROOT
ATOM     11  C   UNL     1      -2.699   0.176  23.156  0.00  0.00    +0.085 C 
ENDROOT
BRANCH  11  16
ATOM      2  O   UNL     1       0.570   1.514  23.922  0.00  0.00    -0.354 OA
ATOM      6  N   UNL     1      -0.818   1.583  23.921  0.00  0.00    -0.083 NA
ATOM     16  C   UNL     1      -1.220   0.452  23.334  0.00  0.00    +0.086 A 
ATOM     18  C   UNL     1      -0.141  -0.361  22.947  0.00  0.00    +0.076 A 
ATOM     19  C   UNL     1       0.962   0.352  23.338  0.00  0.00    +0.167 A 
BRANCH  19  20
ATOM     20  C   UNL     1       2.378   0.138  23.266  0.00  0.00    +0.020 A 
ATOM     21  C   UNL     1       2.918  -1.088  23.654  0.00  0.00    +0.015 A 
ATOM     22  C   UNL     1       3.214   1.156  22.808  0.00  0.00    +0.015 A 
ATOM     23  C   UNL     1       4.296  -1.296  23.584  0.00  0.00    +0.046 A 
ATOM     24  C   UNL     1       4.592   0.947  22.737  0.00  0.00    +0.046 A 
ATOM     25  C   UNL     1       5.133  -0.278  23.126  0.00  0.00    +0.120 A 
BRANCH  25   3
ATOM      3  O   UNL     1       6.476  -0.482  23.054  0.00  0.00    -0.495 OA
ATOM     26  C   UNL     1       7.309   0.414  23.787  0.00  0.00    +0.277 C 
ENDBRANCH  25   3
ENDBRANCH  19  20
ENDBRANCH  11  16
BRANCH  11   7
ATOM      1  O   UNL     1      -3.490  -2.813  24.442  0.00  0.00    -0.376 OA
ATOM      7  C   UNL     1      -3.210  -0.705  24.255  0.00  0.00    +0.072 C 
ATOM      9  C   UNL     1      -4.297  -1.724  23.938  0.00  0.00    +0.184 C 
ATOM     10  C   UNL     1      -2.383  -1.913  24.679  0.00  0.00    +0.184 C 
BRANCH   7   4
ATOM      4  N   UNL     1      -3.600   0.045  25.453  0.00  0.00    -0.304 NA
ATOM     27  H   UNL     1      -2.858   0.231  26.126  0.00  0.00    +0.123 HD
BRANCH   4   8
ATOM      5  N   UNL     1      -5.483   3.841  25.787  0.00  0.00    -0.305 NA
ATOM      8  C   UNL     1      -4.267   1.282  25.054  0.00  0.00    +0.057 C 
ATOM     12  C   UNL     1      -3.430   2.494  25.470  0.00  0.00    +0.034 C 
ATOM     13  C   UNL     1      -5.665   1.374  25.673  0.00  0.00    +0.034 C 
ATOM     14  C   UNL     1      -4.159   3.801  25.148  0.00  0.00    +0.085 C 
ATOM     15  C   UNL     1      -6.322   2.719  25.344  0.00  0.00    +0.085 C 
ATOM     17  C   UNL     1      -6.146   5.115  25.513  0.00  0.00    +0.104 C 
ENDBRANCH   4   8
ENDBRANCH   7   4
ENDBRANCH  11   7
TORSDOF 6
ENDMDL
MODEL 4
REMARK VINA RESULT:       0.4      2.030      3.874
REMARK  Name = 56775759
REMARK  8 active torsions:
REMARK  status: ('A' for Active; 'I' for Inactive)
REMARK    1  A    between atoms: O_3  and  C_25
REMARK    2  A    between atoms: O_3  and  C_26
REMARK    3  A    between atoms: N_4  and  C_7
REMARK    4  A    between atoms: N_4  and  C_8
REMARK    5  A    between atoms: N_5  and  C_17
REMARK    6  A    between atoms: C_7  and  C_11
REMARK    7  A    between atoms: C_11  and  C_16
REMARK    8  A    between atoms: C_19  and  C_20
REMARK                            x       y       z     vdW  Elec       q    Type
REMARK                         _______ _______ _______ _____ _____    ______ ____
ROOT
ATOM     11  C   UNL     1      -2.792   0.575  23.401  0.00  0.00    +0.085 C 
ENDROOT
BRANCH  11  16
ATOM      2  O   UNL     1       0.306  -1.181  24.021  0.00  0.00    -0.354 OA
ATOM      6  N   UNL     1      -1.080  -1.082  24.053  0.00  0.00    -0.083 NA
ATOM     16  C   UNL     1      -1.353   0.116  23.529  0.00  0.00    +0.086 A 
ATOM     18  C   UNL     1      -0.192   0.811  23.152  0.00  0.00    +0.076 A 
ATOM     19  C   UNL     1       0.823  -0.046  23.483  0.00  0.00    +0.167 A 
BRANCH  19  20
ATOM     20  C   UNL     1       2.254  -0.001  23.382  0.00  0.00    +0.020 A 
ATOM     21  C   UNL     1       2.884   1.156  22.927  0.00  0.00    +0.015 A 
ATOM     22  C   UNL     1       3.013  -1.115  23.740  0.00  0.00    +0.015 A 
ATOM     23  C   UNL     1       4.276   1.200  22.829  0.00  0.00    +0.046 A 
ATOM     24  C   UNL     1       4.404  -1.072  23.643  0.00  0.00    +0.046 A 
ATOM     25  C   UNL     1       5.035   0.086  23.187  0.00  0.00    +0.120 A 
BRANCH  25   3
ATOM      3  O   UNL     1       6.392   0.129  23.095  0.00  0.00    -0.495 OA
ATOM     26  C   UNL     1       7.051  -1.054  22.646  0.00  0.00    +0.277 C 
ENDBRANCH  25   3
ENDBRANCH  19  20
ENDBRANCH  11  16
BRANCH  11   7
ATOM      1  O   UNL     1      -3.710  -2.101  25.191  0.00  0.00    -0.376 OA
ATOM      7  C   UNL     1      -3.661  -0.117  24.406  0.00  0.00    +0.072 C 
ATOM      9  C   UNL     1      -4.294  -1.453  24.038  0.00  0.00    +0.184 C 
ATOM     10  C   UNL     1      -3.005  -0.889  25.545  0.00  0.00    +0.184 C 
BRANCH   7   4
ATOM      4  N   UNL     1      -4.696   0.758  24.964  0.00  0.00    -0.304 NA
ATOM     27  H   UNL     1      -5.212   0.389  25.762  0.00  0.00    +0.123 HD
BRANCH   4   8
ATOM      5  N   UNL     1      -2.038   4.071  24.802  0.00  0.00    -0.305 NA
ATOM      8  C   UNL     1      -4.112   2.061  25.275  0.00  0.00    +0.057 C 
ATOM     12  C   UNL     1      -4.105   2.950  24.029  0.00  0.00    +0.034 C 
ATOM     13  C   UNL     1      -2.687   1.907  25.815  0.00  0.00    +0.034 C 
ATOM     14  C   UNL     1      -3.407   4.283  24.309  0.00  0.00    +0.085 C 
ATOM     15  C   UNL     1      -2.035   3.275  26.036  0.00  0.00    +0.085 C 
ATOM     17  C   UNL     1      -1.368   5.352  25.017  0.00  0.00    +0.104 C 
ENDBRANCH   4   8
ENDBRANCH   7   4
ENDBRANCH  11   7
TORSDOF 6
ENDMDL
MODEL 5
REMARK VINA RESULT:       1.4      1.853      6.632
REMARK  Name = 56775759
REMARK  8 active torsions:
REMARK  status: ('A' for Active; 'I' for Inactive)
REMARK    1  A    between atoms: O_3  and  C_25
REMARK    2  A    between atoms: O_3  and  C_26
REMARK    3  A    between atoms: N_4  and  C_7
REMARK    4  A    between atoms: N_4  and  C_8
REMARK    5  A    between atoms: N_5  and  C_17
REMARK    6  A    between atoms: C_7  and  C_11
REMARK    7  A    between atoms: C_11  and  C_16
REMARK    8  A    between atoms: C_19  and  C_20
REMARK                            x       y       z     vdW  Elec       q    Type
REMARK                         _______ _______ _______ _____ _____    ______ ____
ROOT
ATOM     11  C   UNL     1       1.936   1.421  23.614  0.00  0.00    +0.085 C 
ENDROOT
BRANCH  11  16
ATOM      2  O   UNL     1      -0.415   2.757  26.012  0.00  0.00    -0.354 OA
ATOM      6  N   UNL     1       0.848   2.309  25.646  0.00  0.00    -0.083 NA
ATOM     16  C   UNL     1       0.734   1.963  24.361  0.00  0.00    +0.086 A 
ATOM     18  C   UNL     1      -0.565   2.169  23.867  0.00  0.00    +0.076 A 
ATOM     19  C   UNL     1      -1.248   2.668  24.943  0.00  0.00    +0.167 A 
BRANCH  19  20
ATOM     20  C   UNL     1      -2.598   3.100  25.168  0.00  0.00    +0.020 A 
ATOM     21  C   UNL     1      -2.861   4.109  26.094  0.00  0.00    +0.015 A 
ATOM     22  C   UNL     1      -3.645   2.511  24.461  0.00  0.00    +0.015 A 
ATOM     23  C   UNL     1      -4.174   4.530  26.313  0.00  0.00    +0.046 A 
ATOM     24  C   UNL     1      -4.957   2.932  24.679  0.00  0.00    +0.046 A 
ATOM     25  C   UNL     1      -5.221   3.940  25.606  0.00  0.00    +0.120 A 
BRANCH  25   3
ATOM      3  O   UNL     1      -6.501   4.352  25.816  0.00  0.00    -0.495 OA
ATOM     26  C   UNL     1      -6.819   5.695  25.454  0.00  0.00    +0.277 C 
ENDBRANCH  25   3
ENDBRANCH  19  20
ENDBRANCH  11  16
BRANCH  11   7
ATOM      1  O   UNL     1       1.613  -0.657  21.009  0.00  0.00    -0.376 OA
ATOM      7  C   UNL     1       1.627   0.085  23.010  0.00  0.00    +0.072 C 
ATOM      9  C   UNL     1       0.643   0.009  21.850  0.00  0.00    +0.184 C 
ATOM     10  C   UNL     1       2.624  -0.533  22.035  0.00  0.00    +0.184 C 
BRANCH   7   4
ATOM      4  N   UNL     1       1.259  -0.922  24.009  0.00  0.00    -0.304 NA
ATOM     27  H   UNL     1       1.660  -0.799  24.938  0.00  0.00    +0.123 HD
BRANCH   4   8
ATOM      5  N   UNL     1      -2.586  -2.287  25.204  0.00  0.00    -0.305 NA
ATOM      8  C   UNL     1      -0.197  -1.025  24.078  0.00  0.00    +0.057 C 
ATOM     12  C   UNL     1      -0.684  -0.731  25.499  0.00  0.00    +0.034 C 
ATOM     13  C   UNL     1      -0.670  -2.415  23.641  0.00  0.00    +0.034 C 
ATOM     14  C   UNL     1      -2.197  -0.930  25.614  0.00  0.00    +0.085 C 
ATOM     15  C   UNL     1      -2.184  -2.559  23.817  0.00  0.00    +0.085 C 
ATOM     17  C   UNL     1      -4.026  -2.478  25.366  0.00  0.00    +0.104 C 
ENDBRANCH   4   8
ENDBRANCH   7   4
ENDBRANCH  11   7
TORSDOF 6
ENDMDL
