MODEL 1
REMARK VINA RESULT:      -7.1      0.000      0.000
REMARK  Name = 75536570
REMARK  7 active torsions:
REMARK  status: ('A' for Active; 'I' for Inactive)
REMARK    1  A    between atoms: O_3  and  C_8
REMARK    2  A    between atoms: N_5  and  C_16
REMARK    3  A    between atoms: N_6  and  C_9
REMARK    4  A    between atoms: N_6  and  C_18
REMARK    5  A    between atoms: C_7  and  C_16
REMARK    6  A    between atoms: C_10  and  C_17
REMARK    7  A    between atoms: C_18  and  C_19
REMARK                            x       y       z     vdW  Elec       q    Type
REMARK                         _______ _______ _______ _____ _____    ______ ____
ROOT
ATOM      2  O   UNL     1       0.335   2.696  23.461  0.00  0.00    -0.371 OA
ATOM      7  C   UNL     1       0.366   1.642  24.437  0.00  0.00    +0.165 C 
ATOM      8  C   UNL     1      -0.695   1.994  25.470  0.00  0.00    +0.164 C 
ATOM      9  C   UNL     1      -0.591   3.508  25.492  0.00  0.00    +0.111 C 
ATOM     15  C   UNL     1      -0.375   3.815  24.019  0.00  0.00    +0.181 C 
ENDROOT
BRANCH   8   3
ATOM      3  O   UNL     1      -0.420   1.410  26.729  0.00  0.00    -0.388 OA
ATOM     27  H   UNL     1      -1.212   0.926  27.021  0.00  0.00    +0.210 HD
ENDBRANCH   8   3
BRANCH   9   6
ATOM      6  N   UNL     1      -1.765   4.166  26.042  0.00  0.00    -0.305 NA
ATOM     26  H   UNL     1      -1.477   5.031  26.500  0.00  0.00    +0.123 HD
BRANCH   6  18
ATOM     18  C   UNL     1      -2.728   4.483  24.996  0.00  0.00    +0.119 C 
BRANCH  18  19
ATOM      1  F   UNL     1      -3.356   2.692  22.894  0.00  0.00    -0.205 F 
ATOM     19  C   UNL     1      -3.917   3.561  25.029  0.00  0.00    +0.002 A 
ATOM     20  C   UNL     1      -4.168   2.703  23.959  0.00  0.00    +0.128 A 
ATOM     21  C   UNL     1      -4.769   3.565  26.134  0.00  0.00    +0.008 A 
ATOM     22  C   UNL     1      -5.271   1.849  23.993  0.00  0.00    +0.038 A 
ATOM     23  C   UNL     1      -5.871   2.711  26.169  0.00  0.00    +0.000 A 
ATOM     24  C   UNL     1      -6.122   1.853  25.098  0.00  0.00    +0.003 A 
ENDBRANCH  18  19
ENDBRANCH   6  18
ENDBRANCH   9   6
BRANCH   7  16
ATOM     16  C   UNL     1       0.122   0.306  23.757  0.00  0.00    +0.138 C 
BRANCH  16   5
ATOM      4  O   UNL     1      -0.045  -2.050  25.445  0.00  0.00    -0.276 OA
ATOM      5  N   UNL     1      -1.065  -0.324  24.258  0.00  0.00    -0.313 N 
ATOM     17  C   UNL     1      -1.051  -1.456  25.065  0.00  0.00    +0.216 C 
ATOM     25  H   UNL     1      -1.957   0.089  24.004  0.00  0.00    +0.149 HD
BRANCH  17  10
ATOM     10  C   UNL     1      -2.427  -1.894  25.467  0.00  0.00    +0.075 C 
ATOM     11  C   UNL     1      -2.906  -3.034  24.562  0.00  0.00    +0.013 C 
ATOM     12  C   UNL     1      -3.430  -0.754  25.287  0.00  0.00    +0.013 C 
ATOM     13  C   UNL     1      -4.227  -2.562  23.962  0.00  0.00    +0.001 C 
ATOM     14  C   UNL     1      -4.113  -1.048  23.960  0.00  0.00    +0.001 C 
ENDBRANCH  17  10
ENDBRANCH  16   5
ENDBRANCH   7  16
TORSDOF 7
ENDMDL
MODEL 2
REMARK VINA RESULT:      -5.9      1.438      1.784
REMARK  Name = 75536570
REMARK  7 active torsions:
REMARK  status: ('A' for Active; 'I' for Inactive)
REMARK    1  A    between atoms: O_3  and  C_8
REMARK    2  A    between atoms: N_5  and  C_16
REMARK    3  A    between atoms: N_6  and  C_9
REMARK    4  A    between atoms: N_6  and  C_18
REMARK    5  A    between atoms: C_7  and  C_16
REMARK    6  A    between atoms: C_10  and  C_17
REMARK    7  A    between atoms: C_18  and  C_19
REMARK                            x       y       z     vdW  Elec       q    Type
REMARK                         _______ _______ _______ _____ _____    ______ ____
ROOT
ATOM      2  O   UNL     1       0.156   3.658  23.648  0.00  0.00    -0.371 OA
ATOM      7  C   UNL     1       0.488   2.695  24.661  0.00  0.00    +0.165 C 
ATOM      8  C   UNL     1      -0.690   2.677  25.626  0.00  0.00    +0.164 C 
ATOM      9  C   UNL     1      -1.114   4.134  25.598  0.00  0.00    +0.111 C 
ATOM     15  C   UNL     1      -0.928   4.472  24.128  0.00  0.00    +0.181 C 
ENDROOT
BRANCH   8   3
ATOM      3  O   UNL     1      -0.309   2.244  26.917  0.00  0.00    -0.388 OA
ATOM     27  H   UNL     1      -0.501   2.959  27.549  0.00  0.00    +0.210 HD
ENDBRANCH   8   3
BRANCH   9   6
ATOM      6  N   UNL     1      -2.473   4.356  26.063  0.00  0.00    -0.305 NA
ATOM     26  H   UNL     1      -2.510   5.242  26.568  0.00  0.00    +0.123 HD
BRANCH   6  18
ATOM     18  C   UNL     1      -3.409   4.407  24.947  0.00  0.00    +0.119 C 
BRANCH  18  19
ATOM      1  F   UNL     1      -6.067   4.351  25.923  0.00  0.00    -0.205 F 
ATOM     19  C   UNL     1      -4.280   3.182  24.889  0.00  0.00    +0.002 A 
ATOM     20  C   UNL     1      -5.581   3.223  25.388  0.00  0.00    +0.128 A 
ATOM     21  C   UNL     1      -3.784   2.002  24.332  0.00  0.00    +0.008 A 
ATOM     22  C   UNL     1      -6.387   2.085  25.331  0.00  0.00    +0.038 A 
ATOM     23  C   UNL     1      -4.589   0.865  24.275  0.00  0.00    +0.000 A 
ATOM     24  C   UNL     1      -5.891   0.907  24.775  0.00  0.00    +0.003 A 
ENDBRANCH  18  19
ENDBRANCH   6  18
ENDBRANCH   9   6
BRANCH   7  16
ATOM     16  C   UNL     1       0.758   1.345  24.019  0.00  0.00    +0.138 C 
BRANCH  16   5
ATOM      4  O   UNL     1      -0.346  -1.118  22.950  0.00  0.00    -0.276 OA
ATOM      5  N   UNL     1       0.127   0.284  24.749  0.00  0.00    -0.313 N 
ATOM     17  C   UNL     1      -0.375  -0.866  24.151  0.00  0.00    +0.216 C 
ATOM     25  H   UNL     1       0.052   0.389  25.756  0.00  0.00    +0.149 HD
BRANCH  17  10
ATOM     10  C   UNL     1      -0.960  -1.823  25.145  0.00  0.00    +0.075 C 
ATOM     11  C   UNL     1      -2.037  -2.688  24.479  0.00  0.00    +0.013 C 
ATOM     12  C   UNL     1      -1.659  -1.067  26.276  0.00  0.00    +0.013 C 
ATOM     13  C   UNL     1      -3.303  -2.486  25.305  0.00  0.00    +0.001 C 
ATOM     14  C   UNL     1      -3.135  -1.104  25.910  0.00  0.00    +0.001 C 
ENDBRANCH  17  10
ENDBRANCH  16   5
ENDBRANCH   7  16
TORSDOF 7
ENDMDL
MODEL 3
REMARK VINA RESULT:      -5.7      2.057      4.917
REMARK  Name = 75536570
REMARK  7 active torsions:
REMARK  status: ('A' for Active; 'I' for Inactive)
REMARK    1  A    between atoms: O_3  and  C_8
REMARK    2  A    between atoms: N_5  and  C_16
REMARK    3  A    between atoms: N_6  and  C_9
REMARK    4  A    between atoms: N_6  and  C_18
REMARK    5  A    between atoms: C_7  and  C_16
REMARK    6  A    between atoms: C_10  and  C_17
REMARK    7  A    between atoms: C_18  and  C_19
REMARK                            x       y       z     vdW  Elec       q    Type
REMARK                         _______ _______ _______ _____ _____    ______ ____
ROOT
ATOM      2  O   UNL     1       0.134   3.844  26.115  0.00  0.00    -0.371 OA
ATOM      7  C   UNL     1      -0.478   3.902  24.816  0.00  0.00    +0.165 C 
ATOM      8  C   UNL     1      -1.056   2.517  24.562  0.00  0.00    +0.164 C 
ATOM      9  C   UNL     1      -0.025   1.639  25.246  0.00  0.00    +0.111 C 
ATOM     15  C   UNL     1       0.298   2.464  26.482  0.00  0.00    +0.181 C 
ENDROOT
BRANCH   8   3
ATOM      3  O   UNL     1      -1.176   2.241  23.180  0.00  0.00    -0.388 OA
ATOM     27  H   UNL     1      -2.059   1.863  23.019  0.00  0.00    +0.210 HD
ENDBRANCH   8   3
BRANCH   9   6
ATOM      6  N   UNL     1      -0.511   0.307  25.565  0.00  0.00    -0.305 NA
ATOM     26  H   UNL     1      -1.450   0.381  25.956  0.00  0.00    +0.123 HD
BRANCH   6  18
ATOM     18  C   UNL     1      -0.558  -0.534  24.376  0.00  0.00    +0.119 C 
BRANCH  18  19
ATOM      1  F   UNL     1      -0.905  -3.194  25.286  0.00  0.00    -0.205 F 
ATOM     19  C   UNL     1      -1.862  -1.277  24.266  0.00  0.00    +0.002 A 
ATOM     20  C   UNL     1      -1.964  -2.586  24.734  0.00  0.00    +0.128 A 
ATOM     21  C   UNL     1      -2.972  -0.653  23.695  0.00  0.00    +0.008 A 
ATOM     22  C   UNL     1      -3.175  -3.272  24.632  0.00  0.00    +0.038 A 
ATOM     23  C   UNL     1      -4.182  -1.338  23.592  0.00  0.00    +0.000 A 
ATOM     24  C   UNL     1      -4.283  -2.648  24.061  0.00  0.00    +0.003 A 
ENDBRANCH  18  19
ENDBRANCH   6  18
ENDBRANCH   9   6
BRANCH   7  16
ATOM     16  C   UNL     1      -1.524   5.003  24.790  0.00  0.00    +0.138 C 
BRANCH  16   5
ATOM      4  O   UNL     1      -3.403   4.190  26.849  0.00  0.00    -0.276 OA
ATOM      5  N   UNL     1      -2.841   4.466  24.605  0.00  0.00    -0.313 N 
ATOM     17  C   UNL     1      -3.676   4.102  25.655  0.00  0.00    +0.216 C 
ATOM     25  H   UNL     1      -3.171   4.354  23.651  0.00  0.00    +0.149 HD
BRANCH  17  10
ATOM     10  C   UNL     1      -5.006   3.593  25.184  0.00  0.00    +0.075 C 
ATOM     11  C   UNL     1      -5.836   3.099  26.374  0.00  0.00    +0.013 C 
ATOM     12  C   UNL     1      -4.825   2.389  24.259  0.00  0.00    +0.013 C 
ATOM     13  C   UNL     1      -6.199   1.653  26.056  0.00  0.00    +0.001 C 
ATOM     14  C   UNL     1      -5.080   1.180  25.147  0.00  0.00    +0.001 C 
ENDBRANCH  17  10
ENDBRANCH  16   5
ENDBRANCH   7  16
TORSDOF 7
ENDMDL
MODEL 4
REMARK VINA RESULT:      -5.5      2.165      4.736
REMARK  Name = 75536570
REMARK  7 active torsions:
REMARK  status: ('A' for Active; 'I' for Inactive)
REMARK    1  A    between atoms: O_3  and  C_8
REMARK    2  A    between atoms: N_5  and  C_16
REMARK    3  A    between atoms: N_6  and  C_9
REMARK    4  A    between atoms: N_6  and  C_18
REMARK    5  A    between atoms: C_7  and  C_16
REMARK    6  A    between atoms: C_10  and  C_17
REMARK    7  A    between atoms: C_18  and  C_19
REMARK                            x       y       z     vdW  Elec       q    Type
REMARK                         _______ _______ _______ _____ _____    ______ ____
ROOT
ATOM      2  O   UNL     1      -3.971   3.538  26.118  0.00  0.00    -0.371 OA
ATOM      7  C   UNL     1      -4.416   3.080  24.831  0.00  0.00    +0.165 C 
ATOM      8  C   UNL     1      -3.154   2.795  24.027  0.00  0.00    +0.164 C 
ATOM      9  C   UNL     1      -2.228   3.882  24.541  0.00  0.00    +0.111 C 
ATOM     15  C   UNL     1      -2.584   3.905  26.019  0.00  0.00    +0.181 C 
ENDROOT
BRANCH   8   3
ATOM      3  O   UNL     1      -3.384   2.887  22.635  0.00  0.00    -0.388 OA
ATOM     27  H   UNL     1      -4.267   2.524  22.446  0.00  0.00    +0.210 HD
ENDBRANCH   8   3
BRANCH   9   6
ATOM      6  N   UNL     1      -0.820   3.611  24.301  0.00  0.00    -0.305 NA
ATOM     26  H   UNL     1      -0.265   4.383  24.671  0.00  0.00    +0.123 HD
BRANCH   6  18
ATOM     18  C   UNL     1      -0.404   2.376  24.954  0.00  0.00    +0.119 C 
BRANCH  18  19
ATOM      1  F   UNL     1      -1.543   0.410  23.262  0.00  0.00    -0.205 F 
ATOM     19  C   UNL     1       0.414   1.505  24.038  0.00  0.00    +0.002 A 
ATOM     20  C   UNL     1      -0.211   0.556  23.231  0.00  0.00    +0.128 A 
ATOM     21  C   UNL     1       1.801   1.650  23.997  0.00  0.00    +0.008 A 
ATOM     22  C   UNL     1       0.549  -0.249  22.382  0.00  0.00    +0.038 A 
ATOM     23  C   UNL     1       2.562   0.846  23.149  0.00  0.00    +0.000 A 
ATOM     24  C   UNL     1       1.936  -0.103  22.341  0.00  0.00    +0.003 A 
ENDBRANCH  18  19
ENDBRANCH   6  18
ENDBRANCH   9   6
BRANCH   7  16
ATOM     16  C   UNL     1      -5.308   1.863  25.000  0.00  0.00    +0.138 C 
BRANCH  16   5
ATOM      4  O   UNL     1      -4.465  -0.582  23.680  0.00  0.00    -0.276 OA
ATOM      5  N   UNL     1      -4.588   0.765  25.577  0.00  0.00    -0.313 N 
ATOM     17  C   UNL     1      -4.224  -0.373  24.866  0.00  0.00    +0.216 C 
ATOM     25  H   UNL     1      -4.333   0.835  26.558  0.00  0.00    +0.149 HD
BRANCH  17  10
ATOM     10  C   UNL     1      -3.458  -1.355  25.701  0.00  0.00    +0.075 C 
ATOM     11  C   UNL     1      -2.051  -0.820  25.991  0.00  0.00    +0.013 C 
ATOM     12  C   UNL     1      -3.269  -2.672  24.948  0.00  0.00    +0.013 C 
ATOM     13  C   UNL     1      -1.088  -1.891  25.490  0.00  0.00    +0.001 C 
ATOM     14  C   UNL     1      -1.857  -2.595  24.387  0.00  0.00    +0.001 C 
ENDBRANCH  17  10
ENDBRANCH  16   5
ENDBRANCH   7  16
TORSDOF 7
ENDMDL
MODEL 5
REMARK VINA RESULT:      -4.4      1.592      2.249
REMARK  Name = 75536570
REMARK  7 active torsions:
REMARK  status: ('A' for Active; 'I' for Inactive)
REMARK    1  A    between atoms: O_3  and  C_8
REMARK    2  A    between atoms: N_5  and  C_16
REMARK    3  A    between atoms: N_6  and  C_9
REMARK    4  A    between atoms: N_6  and  C_18
REMARK    5  A    between atoms: C_7  and  C_16
REMARK    6  A    between atoms: C_10  and  C_17
REMARK    7  A    between atoms: C_18  and  C_19
REMARK                            x       y       z     vdW  Elec       q    Type
REMARK                         _______ _______ _______ _____ _____    ______ ____
ROOT
ATOM      2  O   UNL     1       1.365  -0.178  23.194  0.00  0.00    -0.371 OA
ATOM      7  C   UNL     1       0.701  -0.535  24.417  0.00  0.00    +0.165 C 
ATOM      8  C   UNL     1      -0.188   0.649  24.773  0.00  0.00    +0.164 C 
ATOM      9  C   UNL     1       0.662   1.809  24.288  0.00  0.00    +0.111 C 
ATOM     15  C   UNL     1       1.238   1.241  23.001  0.00  0.00    +0.181 C 
ENDROOT
BRANCH   8   3
ATOM      3  O   UNL     1      -0.454   0.710  26.161  0.00  0.00    -0.388 OA
ATOM     27  H   UNL     1      -0.121  -0.107  26.572  0.00  0.00    +0.210 HD
ENDBRANCH   8   3
BRANCH   9   6
ATOM      6  N   UNL     1      -0.089   3.036  24.080  0.00  0.00    -0.305 NA
ATOM     26  H   UNL     1       0.434   3.643  23.447  0.00  0.00    +0.123 HD
BRANCH   6  18
ATOM     18  C   UNL     1      -1.396   2.761  23.497  0.00  0.00    +0.119 C 
BRANCH  18  19
ATOM      1  F   UNL     1      -4.094   2.907  22.646  0.00  0.00    -0.205 F 
ATOM     19  C   UNL     1      -2.517   3.216  24.392  0.00  0.00    +0.002 A 
ATOM     20  C   UNL     1      -3.824   3.265  23.909  0.00  0.00    +0.128 A 
ATOM     21  C   UNL     1      -2.247   3.589  25.709  0.00  0.00    +0.008 A 
ATOM     22  C   UNL     1      -4.861   3.687  24.741  0.00  0.00    +0.038 A 
ATOM     23  C   UNL     1      -3.284   4.010  26.542  0.00  0.00    +0.000 A 
ATOM     24  C   UNL     1      -4.591   4.059  26.058  0.00  0.00    +0.003 A 
ENDBRANCH  18  19
ENDBRANCH   6  18
ENDBRANCH   9   6
BRANCH   7  16
ATOM     16  C   UNL     1      -0.072  -1.828  24.223  0.00  0.00    +0.138 C 
BRANCH  16   5
ATOM      4  O   UNL     1      -2.292  -3.581  23.569  0.00  0.00    -0.276 OA
ATOM      5  N   UNL     1      -1.443  -1.680  24.615  0.00  0.00    -0.313 N 
ATOM     17  C   UNL     1      -2.445  -2.573  24.255  0.00  0.00    +0.216 C 
ATOM     25  H   UNL     1      -1.682  -0.877  25.190  0.00  0.00    +0.149 HD
BRANCH  17  10
ATOM     10  C   UNL     1      -3.783  -2.197  24.818  0.00  0.00    +0.075 C 
ATOM     11  C   UNL     1      -4.580  -1.384  23.792  0.00  0.00    +0.013 C 
ATOM     12  C   UNL     1      -3.618  -1.296  26.043  0.00  0.00    +0.013 C 
ATOM     13  C   UNL     1      -4.943  -0.076  24.488  0.00  0.00    +0.001 C 
ATOM     14  C   UNL     1      -3.843   0.114  25.517  0.00  0.00    +0.001 C 
ENDBRANCH  17  10
ENDBRANCH  16   5
ENDBRANCH   7  16
TORSDOF 7
ENDMDL
