MODEL 1
REMARK VINA RESULT:      -2.7      0.000      0.000
REMARK  Name = 45360656
REMARK  9 active torsions:
REMARK  status: ('A' for Active; 'I' for Inactive)
REMARK    1  A    between atoms: N_5  and  C_10
REMARK    2  A    between atoms: N_5  and  C_18
REMARK    3  A    between atoms: N_7  and  C_27
REMARK    4  A    between atoms: N_8  and  C_26
REMARK    5  A    between atoms: C_12  and  C_16
REMARK    6  A    between atoms: C_16  and  C_17
REMARK    7  A    between atoms: C_17  and  C_20
REMARK    8  A    between atoms: C_18  and  C_19
REMARK    9  A    between atoms: C_26  and  C_30
REMARK                            x       y       z     vdW  Elec       q    Type
REMARK                         _______ _______ _______ _____ _____    ______ ____
ROOT
ATOM      2  O   UNL     1      12.640  -9.945  30.518  0.00  0.00    -0.274 OA
ATOM      4  N   UNL     1      15.772  -8.945  28.932  0.00  0.00    -0.286 NA
ATOM      6  N   UNL     1      13.290  -7.912  29.734  0.00  0.00    -0.313 N 
ATOM      9  C   UNL     1      14.738  -9.900  29.354  0.00  0.00    +0.145 C 
ATOM     10  C   UNL     1      16.844 -10.202  30.527  0.00  0.00    +0.070 C 
ATOM     11  C   UNL     1      15.433 -10.781  30.403  0.00  0.00    +0.048 C 
ATOM     12  C   UNL     1      15.254  -7.753  28.273  0.00  0.00    +0.075 C 
ATOM     13  C   UNL     1      16.676  -8.761  30.064  0.00  0.00    +0.104 C 
ATOM     14  C   UNL     1      14.278  -7.017  29.176  0.00  0.00    +0.123 C 
ATOM     15  C   UNL     1      13.484  -9.256  29.936  0.00  0.00    +0.230 C 
ATOM     37  H   UNL     1      12.441  -7.499  30.108  0.00  0.00    +0.149 HD
ENDROOT
BRANCH  10   5
ATOM      5  N   UNL     1      17.393 -10.321  31.868  0.00  0.00    -0.308 NA
ATOM     36  H   UNL     1      17.637 -11.295  32.042  0.00  0.00    +0.123 HD
BRANCH   5  18
ATOM     18  C   UNL     1      16.426  -9.889  32.868  0.00  0.00    +0.118 C 
BRANCH  18  19
ATOM      7  N   UNL     1      16.578  -6.218  32.766  0.00  0.00    -0.349 N 
ATOM     19  C   UNL     1      16.202  -8.404  32.829  0.00  0.00    -0.008 A 
ATOM     21  C   UNL     1      14.945  -7.737  32.825  0.00  0.00    +0.004 A 
ATOM     22  C   UNL     1      17.186  -7.444  32.793  0.00  0.00    +0.091 A 
ATOM     23  C   UNL     1      15.209  -6.366  32.786  0.00  0.00    +0.049 A 
ATOM     24  C   UNL     1      13.604  -8.169  32.852  0.00  0.00    +0.010 A 
ATOM     25  C   UNL     1      14.195  -5.402  32.771  0.00  0.00    +0.026 A 
ATOM     27  C   UNL     1      17.286  -4.956  32.727  0.00  0.00    +0.149 C 
ATOM     28  C   UNL     1      12.580  -7.216  32.837  0.00  0.00    +0.001 A 
ATOM     29  C   UNL     1      12.872  -5.854  32.797  0.00  0.00    +0.002 A 
ENDBRANCH  18  19
ENDBRANCH   5  18
ENDBRANCH  10   5
BRANCH  12  16
ATOM     16  C   UNL     1      16.361  -6.817  27.784  0.00  0.00    +0.029 C 
BRANCH  16  17
ATOM     17  C   UNL     1      16.960  -6.024  28.939  0.00  0.00    +0.097 C 
BRANCH  17  20
ATOM      3  O   UNL     1      15.996  -3.893  29.563  0.00  0.00    -0.276 OA
ATOM      8  N   UNL     1      17.391  -4.003  27.711  0.00  0.00    -0.311 N 
ATOM     20  C   UNL     1      16.713  -4.533  28.799  0.00  0.00    +0.213 C 
ATOM     38  H   UNL     1      17.942  -4.610  27.110  0.00  0.00    +0.149 HD
BRANCH   8  26
ATOM     26  C   UNL     1      17.318  -2.604  27.363  0.00  0.00    +0.139 C 
BRANCH  26  30
ATOM      1  F   UNL     1      17.044  -1.825  21.794  0.00  0.00    -0.205 F 
ATOM     30  C   UNL     1      17.245  -2.397  25.879  0.00  0.00    -0.030 A 
ATOM     31  C   UNL     1      17.284  -1.106  25.353  0.00  0.00    +0.008 A 
ATOM     32  C   UNL     1      17.137  -3.495  25.025  0.00  0.00    +0.008 A 
ATOM     33  C   UNL     1      17.216  -0.912  23.973  0.00  0.00    +0.038 A 
ATOM     34  C   UNL     1      17.070  -3.302  23.645  0.00  0.00    +0.038 A 
ATOM     35  C   UNL     1      17.109  -2.010  23.119  0.00  0.00    +0.123 A 
ENDBRANCH  26  30
ENDBRANCH   8  26
ENDBRANCH  17  20
ENDBRANCH  16  17
ENDBRANCH  12  16
TORSDOF 8
ENDMDL
MODEL 2
REMARK VINA RESULT:      -0.8     17.691     20.033
REMARK  Name = 45360656
REMARK  9 active torsions:
REMARK  status: ('A' for Active; 'I' for Inactive)
REMARK    1  A    between atoms: N_5  and  C_10
REMARK    2  A    between atoms: N_5  and  C_18
REMARK    3  A    between atoms: N_7  and  C_27
REMARK    4  A    between atoms: N_8  and  C_26
REMARK    5  A    between atoms: C_12  and  C_16
REMARK    6  A    between atoms: C_16  and  C_17
REMARK    7  A    between atoms: C_17  and  C_20
REMARK    8  A    between atoms: C_18  and  C_19
REMARK    9  A    between atoms: C_26  and  C_30
REMARK                            x       y       z     vdW  Elec       q    Type
REMARK                         _______ _______ _______ _____ _____    ______ ____
ROOT
ATOM      2  O   UNL     1       1.051   2.677  26.645  0.00  0.00    -0.274 OA
ATOM      4  N   UNL     1      -2.144   2.219  24.940  0.00  0.00    -0.286 NA
ATOM      6  N   UNL     1      -0.368   4.225  25.773  0.00  0.00    -0.313 N 
ATOM      9  C   UNL     1      -1.040   1.829  25.828  0.00  0.00    +0.145 C 
ATOM     10  C   UNL     1      -1.158   0.479  23.812  0.00  0.00    +0.070 C 
ATOM     11  C   UNL     1      -0.375   0.641  25.116  0.00  0.00    +0.048 C 
ATOM     12  C   UNL     1      -2.653   3.566  25.170  0.00  0.00    +0.075 C 
ATOM     13  C   UNL     1      -1.748   1.864  23.580  0.00  0.00    +0.104 C 
ATOM     14  C   UNL     1      -1.544   4.596  25.020  0.00  0.00    +0.123 C 
ATOM     15  C   UNL     1      -0.024   2.935  26.095  0.00  0.00    +0.230 C 
ATOM     37  H   UNL     1       0.309   4.955  25.976  0.00  0.00    +0.149 HD
ENDROOT
BRANCH  10   5
ATOM      5  N   UNL     1      -0.338   0.005  22.709  0.00  0.00    -0.308 NA
ATOM     36  H   UNL     1      -0.910  -0.570  22.092  0.00  0.00    +0.123 HD
BRANCH   5  18
ATOM     18  C   UNL     1       0.781  -0.791  23.196  0.00  0.00    +0.118 C 
BRANCH  18  19
ATOM      7  N   UNL     1       3.588   1.512  22.622  0.00  0.00    -0.349 N 
ATOM     19  C   UNL     1       2.089  -0.065  23.062  0.00  0.00    -0.008 A 
ATOM     21  C   UNL     1       3.377  -0.569  23.398  0.00  0.00    +0.004 A 
ATOM     22  C   UNL     1       2.251   1.216  22.587  0.00  0.00    +0.091 A 
ATOM     23  C   UNL     1       4.299   0.439  23.112  0.00  0.00    +0.049 A 
ATOM     24  C   UNL     1       3.847  -1.791  23.919  0.00  0.00    +0.010 A 
ATOM     25  C   UNL     1       5.674   0.288  23.322  0.00  0.00    +0.026 A 
ATOM     27  C   UNL     1       4.155   2.773  22.197  0.00  0.00    +0.149 C 
ATOM     28  C   UNL     1       5.219  -1.957  24.135  0.00  0.00    +0.001 A 
ATOM     29  C   UNL     1       6.117  -0.933  23.841  0.00  0.00    +0.002 A 
ENDBRANCH  18  19
ENDBRANCH   5  18
ENDBRANCH  10   5
BRANCH  12  16
ATOM     16  C   UNL     1      -3.845   3.911  24.277  0.00  0.00    +0.029 C 
BRANCH  16  17
ATOM     17  C   UNL     1      -5.124   4.043  25.094  0.00  0.00    +0.097 C 
BRANCH  17  20
ATOM      3  O   UNL     1      -6.258   2.524  26.599  0.00  0.00    -0.276 OA
ATOM      8  N   UNL     1      -5.388   1.703  24.609  0.00  0.00    -0.311 N 
ATOM     20  C   UNL     1      -5.661   2.695  25.540  0.00  0.00    +0.213 C 
ATOM     38  H   UNL     1      -4.862   1.925  23.769  0.00  0.00    +0.149 HD
BRANCH   8  26
ATOM     26  C   UNL     1      -5.795   0.332  24.802  0.00  0.00    +0.139 C 
BRANCH  26  30
ATOM      1  F   UNL     1      -1.386  -3.160  25.047  0.00  0.00    -0.205 F 
ATOM     30  C   UNL     1      -4.619  -0.599  24.868  0.00  0.00    -0.030 A 
ATOM     31  C   UNL     1      -4.320  -1.420  23.781  0.00  0.00    +0.008 A 
ATOM     32  C   UNL     1      -3.827  -0.643  26.015  0.00  0.00    +0.008 A 
ATOM     33  C   UNL     1      -3.228  -2.286  23.841  0.00  0.00    +0.038 A 
ATOM     34  C   UNL     1      -2.734  -1.509  26.076  0.00  0.00    +0.038 A 
ATOM     35  C   UNL     1      -2.435  -2.330  24.988  0.00  0.00    +0.123 A 
ENDBRANCH  26  30
ENDBRANCH   8  26
ENDBRANCH  17  20
ENDBRANCH  16  17
ENDBRANCH  12  16
TORSDOF 8
ENDMDL
MODEL 3
REMARK VINA RESULT:       0.2     17.837     19.895
REMARK  Name = 45360656
REMARK  9 active torsions:
REMARK  status: ('A' for Active; 'I' for Inactive)
REMARK    1  A    between atoms: N_5  and  C_10
REMARK    2  A    between atoms: N_5  and  C_18
REMARK    3  A    between atoms: N_7  and  C_27
REMARK    4  A    between atoms: N_8  and  C_26
REMARK    5  A    between atoms: C_12  and  C_16
REMARK    6  A    between atoms: C_16  and  C_17
REMARK    7  A    between atoms: C_17  and  C_20
REMARK    8  A    between atoms: C_18  and  C_19
REMARK    9  A    between atoms: C_26  and  C_30
REMARK                            x       y       z     vdW  Elec       q    Type
REMARK                         _______ _______ _______ _____ _____    ______ ____
ROOT
ATOM      2  O   UNL     1      -3.633   4.031  28.134  0.00  0.00    -0.274 OA
ATOM      4  N   UNL     1      -2.429   4.063  24.688  0.00  0.00    -0.286 NA
ATOM      6  N   UNL     1      -1.584   3.499  27.303  0.00  0.00    -0.313 N 
ATOM      9  C   UNL     1      -3.318   4.450  25.792  0.00  0.00    +0.145 C 
ATOM     10  C   UNL     1      -4.432   3.105  24.104  0.00  0.00    +0.070 C 
ATOM     11  C   UNL     1      -4.681   3.849  25.417  0.00  0.00    +0.048 C 
ATOM     12  C   UNL     1      -1.008   4.140  25.006  0.00  0.00    +0.075 C 
ATOM     13  C   UNL     1      -2.939   2.807  24.145  0.00  0.00    +0.104 C 
ATOM     14  C   UNL     1      -0.675   3.266  26.205  0.00  0.00    +0.123 C 
ATOM     15  C   UNL     1      -2.871   3.957  27.165  0.00  0.00    +0.230 C 
ATOM     37  H   UNL     1      -1.292   3.194  28.227  0.00  0.00    +0.149 HD
ENDROOT
BRANCH  10   5
ATOM      5  N   UNL     1      -5.257   1.916  23.957  0.00  0.00    -0.308 NA
ATOM     36  H   UNL     1      -6.234   2.197  23.876  0.00  0.00    +0.123 HD
BRANCH   5  18
ATOM     18  C   UNL     1      -5.112   1.035  25.109  0.00  0.00    +0.118 C 
BRANCH  18  19
ATOM      7  N   UNL     1      -3.967  -2.248  23.916  0.00  0.00    -0.349 N 
ATOM     19  C   UNL     1      -4.400  -0.239  24.755  0.00  0.00    -0.008 A 
ATOM     21  C   UNL     1      -3.072  -0.597  25.121  0.00  0.00    +0.004 A 
ATOM     22  C   UNL     1      -4.924  -1.274  24.016  0.00  0.00    +0.091 A 
ATOM     23  C   UNL     1      -2.825  -1.862  24.583  0.00  0.00    +0.049 A 
ATOM     24  C   UNL     1      -2.054   0.035  25.861  0.00  0.00    +0.010 A 
ATOM     25  C   UNL     1      -1.606  -2.528  24.747  0.00  0.00    +0.026 A 
ATOM     27  C   UNL     1      -4.147  -3.499  23.212  0.00  0.00    +0.149 C 
ATOM     28  C   UNL     1      -0.829  -0.619  26.034  0.00  0.00    +0.001 A 
ATOM     29  C   UNL     1      -0.610  -1.881  25.485  0.00  0.00    +0.002 A 
ENDBRANCH  18  19
ENDBRANCH   5  18
ENDBRANCH  10   5
BRANCH  12  16
ATOM     16  C   UNL     1      -0.114   3.800  23.813  0.00  0.00    +0.029 C 
BRANCH  16  17
ATOM     17  C   UNL     1      -0.533   2.484  23.171  0.00  0.00    +0.097 C 
BRANCH  17  20
ATOM      3  O   UNL     1       0.979   1.268  24.619  0.00  0.00    -0.276 OA
ATOM      8  N   UNL     1       0.509   0.421  22.509  0.00  0.00    -0.311 N 
ATOM     20  C   UNL     1       0.400   1.344  23.539  0.00  0.00    +0.213 C 
ATOM     38  H   UNL     1       0.016   0.574  21.634  0.00  0.00    +0.149 HD
BRANCH   8  26
ATOM     26  C   UNL     1       1.338  -0.756  22.614  0.00  0.00    +0.139 C 
BRANCH  26  30
ATOM      1  F   UNL     1       6.691   0.537  23.786  0.00  0.00    -0.205 F 
ATOM     30  C   UNL     1       2.765  -0.410  22.926  0.00  0.00    -0.030 A 
ATOM     31  C   UNL     1       3.545  -1.287  23.681  0.00  0.00    +0.008 A 
ATOM     32  C   UNL     1       3.312   0.786  22.463  0.00  0.00    +0.008 A 
ATOM     33  C   UNL     1       4.871  -0.968  23.972  0.00  0.00    +0.038 A 
ATOM     34  C   UNL     1       4.638   1.107  22.753  0.00  0.00    +0.038 A 
ATOM     35  C   UNL     1       5.418   0.229  23.507  0.00  0.00    +0.123 A 
ENDBRANCH  26  30
ENDBRANCH   8  26
ENDBRANCH  17  20
ENDBRANCH  16  17
ENDBRANCH  12  16
TORSDOF 8
ENDMDL
MODEL 4
REMARK VINA RESULT:       0.4     17.816     19.778
REMARK  Name = 45360656
REMARK  9 active torsions:
REMARK  status: ('A' for Active; 'I' for Inactive)
REMARK    1  A    between atoms: N_5  and  C_10
REMARK    2  A    between atoms: N_5  and  C_18
REMARK    3  A    between atoms: N_7  and  C_27
REMARK    4  A    between atoms: N_8  and  C_26
REMARK    5  A    between atoms: C_12  and  C_16
REMARK    6  A    between atoms: C_16  and  C_17
REMARK    7  A    between atoms: C_17  and  C_20
REMARK    8  A    between atoms: C_18  and  C_19
REMARK    9  A    between atoms: C_26  and  C_30
REMARK                            x       y       z     vdW  Elec       q    Type
REMARK                         _______ _______ _______ _____ _____    ______ ____
ROOT
ATOM      2  O   UNL     1      -3.592   4.728  27.328  0.00  0.00    -0.274 OA
ATOM      4  N   UNL     1      -2.369   3.397  24.156  0.00  0.00    -0.286 NA
ATOM      6  N   UNL     1      -1.656   3.631  26.860  0.00  0.00    -0.313 N 
ATOM      9  C   UNL     1      -3.189   4.271  25.006  0.00  0.00    +0.145 C 
ATOM     10  C   UNL     1      -4.500   2.624  23.794  0.00  0.00    +0.070 C 
ATOM     11  C   UNL     1      -4.631   3.799  24.764  0.00  0.00    +0.048 C 
ATOM     12  C   UNL     1      -0.959   3.354  24.524  0.00  0.00    +0.075 C 
ATOM     13  C   UNL     1      -3.080   2.128  24.031  0.00  0.00    +0.104 C 
ATOM     14  C   UNL     1      -0.790   2.899  25.965  0.00  0.00    +0.123 C 
ATOM     15  C   UNL     1      -2.846   4.211  26.492  0.00  0.00    +0.230 C 
ATOM     37  H   UNL     1      -1.428   3.617  27.850  0.00  0.00    +0.149 HD
ENDROOT
BRANCH  10   5
ATOM      5  N   UNL     1      -5.513   1.601  23.998  0.00  0.00    -0.308 NA
ATOM     36  H   UNL     1      -6.437   2.028  23.928  0.00  0.00    +0.123 HD
BRANCH   5  18
ATOM     18  C   UNL     1      -5.376   0.985  25.312  0.00  0.00    +0.118 C 
BRANCH  18  19
ATOM      7  N   UNL     1      -2.171  -0.697  25.951  0.00  0.00    -0.349 N 
ATOM     19  C   UNL     1      -4.167   0.098  25.394  0.00  0.00    -0.008 A 
ATOM     21  C   UNL     1      -3.975  -1.137  24.714  0.00  0.00    +0.004 A 
ATOM     22  C   UNL     1      -3.041   0.342  26.146  0.00  0.00    +0.091 A 
ATOM     23  C   UNL     1      -2.715  -1.615  25.080  0.00  0.00    +0.049 A 
ATOM     24  C   UNL     1      -4.754  -1.896  23.818  0.00  0.00    +0.010 A 
ATOM     25  C   UNL     1      -2.193  -2.819  24.595  0.00  0.00    +0.026 A 
ATOM     27  C   UNL     1      -0.869  -0.798  26.575  0.00  0.00    +0.149 C 
ATOM     28  C   UNL     1      -4.245  -3.103  23.325  0.00  0.00    +0.001 A 
ATOM     29  C   UNL     1      -2.984  -3.555  23.708  0.00  0.00    +0.002 A 
ENDBRANCH  18  19
ENDBRANCH   5  18
ENDBRANCH  10   5
BRANCH  12  16
ATOM     16  C   UNL     1      -0.124   2.492  23.575  0.00  0.00    +0.029 C 
BRANCH  16  17
ATOM     17  C   UNL     1      -0.708   1.092  23.448  0.00  0.00    +0.097 C 
BRANCH  17  20
ATOM      3  O   UNL     1       0.438  -1.031  23.645  0.00  0.00    -0.276 OA
ATOM      8  N   UNL     1       1.180   0.512  22.077  0.00  0.00    -0.311 N 
ATOM     20  C   UNL     1       0.347   0.061  23.091  0.00  0.00    +0.213 C 
ATOM     38  H   UNL     1       1.053   1.443  21.692  0.00  0.00    +0.149 HD
BRANCH   8  26
ATOM     26  C   UNL     1       2.266  -0.286  21.560  0.00  0.00    +0.139 C 
BRANCH  26  30
ATOM      1  F   UNL     1       6.624  -0.473  25.119  0.00  0.00    -0.205 F 
ATOM     30  C   UNL     1       3.427  -0.336  22.509  0.00  0.00    -0.030 A 
ATOM     31  C   UNL     1       4.228   0.792  22.691  0.00  0.00    +0.008 A 
ATOM     32  C   UNL     1       3.707  -1.510  23.208  0.00  0.00    +0.008 A 
ATOM     33  C   UNL     1       5.308   0.746  23.573  0.00  0.00    +0.038 A 
ATOM     34  C   UNL     1       4.787  -1.557  24.090  0.00  0.00    +0.038 A 
ATOM     35  C   UNL     1       5.587  -0.428  24.273  0.00  0.00    +0.123 A 
ENDBRANCH  26  30
ENDBRANCH   8  26
ENDBRANCH  17  20
ENDBRANCH  16  17
ENDBRANCH  12  16
TORSDOF 8
ENDMDL
MODEL 5
REMARK VINA RESULT:       0.8     17.886     19.725
REMARK  Name = 45360656
REMARK  9 active torsions:
REMARK  status: ('A' for Active; 'I' for Inactive)
REMARK    1  A    between atoms: N_5  and  C_10
REMARK    2  A    between atoms: N_5  and  C_18
REMARK    3  A    between atoms: N_7  and  C_27
REMARK    4  A    between atoms: N_8  and  C_26
REMARK    5  A    between atoms: C_12  and  C_16
REMARK    6  A    between atoms: C_16  and  C_17
REMARK    7  A    between atoms: C_17  and  C_20
REMARK    8  A    between atoms: C_18  and  C_19
REMARK    9  A    between atoms: C_26  and  C_30
REMARK                            x       y       z     vdW  Elec       q    Type
REMARK                         _______ _______ _______ _____ _____    ______ ____
ROOT
ATOM      2  O   UNL     1      -4.424  -3.384  23.757  0.00  0.00    -0.274 OA
ATOM      4  N   UNL     1      -2.606  -0.507  25.077  0.00  0.00    -0.286 NA
ATOM      6  N   UNL     1      -2.338  -3.268  24.655  0.00  0.00    -0.313 N 
ATOM      9  C   UNL     1      -3.806  -1.258  24.683  0.00  0.00    +0.145 C 
ATOM     10  C   UNL     1      -3.381   0.666  23.262  0.00  0.00    +0.070 C 
ATOM     11  C   UNL     1      -4.370  -0.479  23.484  0.00  0.00    +0.048 C 
ATOM     12  C   UNL     1      -1.669  -1.262  25.900  0.00  0.00    +0.075 C 
ATOM     13  C   UNL     1      -2.089   0.141  23.875  0.00  0.00    +0.104 C 
ATOM     14  C   UNL     1      -1.217  -2.525  25.183  0.00  0.00    +0.123 C 
ATOM     15  C   UNL     1      -3.545  -2.713  24.305  0.00  0.00    +0.230 C 
ATOM     37  H   UNL     1      -2.185  -4.243  24.418  0.00  0.00    +0.149 HD
ENDROOT
BRANCH  10   5
ATOM      5  N   UNL     1      -3.248   1.042  21.864  0.00  0.00    -0.308 NA
ATOM     36  H   UNL     1      -2.407   0.610  21.482  0.00  0.00    +0.123 HD
BRANCH   5  18
ATOM     18  C   UNL     1      -3.145   2.488  21.719  0.00  0.00    +0.118 C 
BRANCH  18  19
ATOM      7  N   UNL     1      -1.783   4.285  24.621  0.00  0.00    -0.349 N 
ATOM     19  C   UNL     1      -2.842   3.164  23.025  0.00  0.00    -0.008 A 
ATOM     21  C   UNL     1      -3.706   3.257  24.152  0.00  0.00    +0.004 A 
ATOM     22  C   UNL     1      -1.667   3.805  23.344  0.00  0.00    +0.091 A 
ATOM     23  C   UNL     1      -3.018   3.965  25.139  0.00  0.00    +0.049 A 
ATOM     24  C   UNL     1      -5.012   2.805  24.427  0.00  0.00    +0.010 A 
ATOM     25  C   UNL     1      -3.572   4.246  26.393  0.00  0.00    +0.026 A 
ATOM     27  C   UNL     1      -0.745   5.020  25.313  0.00  0.00    +0.149 C 
ATOM     28  C   UNL     1      -5.579   3.078  25.677  0.00  0.00    +0.001 A 
ATOM     29  C   UNL     1      -4.869   3.788  26.643  0.00  0.00    +0.002 A 
ENDBRANCH  18  19
ENDBRANCH   5  18
ENDBRANCH  10   5
BRANCH  12  16
ATOM     16  C   UNL     1      -0.469  -0.428  26.350  0.00  0.00    +0.029 C 
BRANCH  16  17
ATOM     17  C   UNL     1      -0.536   0.983  25.782  0.00  0.00    +0.097 C 
BRANCH  17  20
ATOM      3  O   UNL     1       0.926   2.231  24.310  0.00  0.00    -0.276 OA
ATOM      8  N   UNL     1       0.519  -0.011  23.864  0.00  0.00    -0.311 N 
ATOM     20  C   UNL     1       0.382   1.165  24.587  0.00  0.00    +0.213 C 
ATOM     38  H   UNL     1       0.010  -0.844  24.147  0.00  0.00    +0.149 HD
BRANCH   8  26
ATOM     26  C   UNL     1       1.340  -0.097  22.681  0.00  0.00    +0.139 C 
BRANCH  26  30
ATOM      1  F   UNL     1       6.829  -0.203  23.930  0.00  0.00    -0.205 F 
ATOM     30  C   UNL     1       2.804  -0.126  23.014  0.00  0.00    -0.030 A 
ATOM     31  C   UNL     1       3.600   0.989  22.753  0.00  0.00    +0.008 A 
ATOM     32  C   UNL     1       3.367  -1.267  23.584  0.00  0.00    +0.008 A 
ATOM     33  C   UNL     1       4.959   0.964  23.062  0.00  0.00    +0.038 A 
ATOM     34  C   UNL     1       4.727  -1.293  23.894  0.00  0.00    +0.038 A 
ATOM     35  C   UNL     1       5.523  -0.178  23.633  0.00  0.00    +0.123 A 
ENDBRANCH  26  30
ENDBRANCH   8  26
ENDBRANCH  17  20
ENDBRANCH  16  17
ENDBRANCH  12  16
TORSDOF 8
ENDMDL
MODEL 6
REMARK VINA RESULT:       1.0     18.001     19.891
REMARK  Name = 45360656
REMARK  9 active torsions:
REMARK  status: ('A' for Active; 'I' for Inactive)
REMARK    1  A    between atoms: N_5  and  C_10
REMARK    2  A    between atoms: N_5  and  C_18
REMARK    3  A    between atoms: N_7  and  C_27
REMARK    4  A    between atoms: N_8  and  C_26
REMARK    5  A    between atoms: C_12  and  C_16
REMARK    6  A    between atoms: C_16  and  C_17
REMARK    7  A    between atoms: C_17  and  C_20
REMARK    8  A    between atoms: C_18  and  C_19
REMARK    9  A    between atoms: C_26  and  C_30
REMARK                            x       y       z     vdW  Elec       q    Type
REMARK                         _______ _______ _______ _____ _____    ______ ____
ROOT
ATOM      2  O   UNL     1      -6.187   4.963  25.783  0.00  0.00    -0.274 OA
ATOM      4  N   UNL     1      -3.213   3.234  24.562  0.00  0.00    -0.286 NA
ATOM      6  N   UNL     1      -4.014   5.180  26.418  0.00  0.00    -0.313 N 
ATOM      9  C   UNL     1      -4.593   3.731  24.479  0.00  0.00    +0.145 C 
ATOM     10  C   UNL     1      -4.462   1.308  24.597  0.00  0.00    +0.070 C 
ATOM     11  C   UNL     1      -5.459   2.461  24.469  0.00  0.00    +0.048 C 
ATOM     12  C   UNL     1      -2.244   4.227  25.012  0.00  0.00    +0.075 C 
ATOM     13  C   UNL     1      -3.257   1.956  25.267  0.00  0.00    +0.104 C 
ATOM     14  C   UNL     1      -2.627   4.775  26.377  0.00  0.00    +0.123 C 
ATOM     15  C   UNL     1      -5.003   4.653  25.623  0.00  0.00    +0.230 C 
ATOM     37  H   UNL     1      -4.298   5.809  27.163  0.00  0.00    +0.149 HD
ENDROOT
BRANCH  10   5
ATOM      5  N   UNL     1      -4.995   0.174  25.335  0.00  0.00    -0.308 NA
ATOM     36  H   UNL     1      -5.864   0.452  25.790  0.00  0.00    +0.123 HD
BRANCH   5  18
ATOM     18  C   UNL     1      -4.052  -0.277  26.351  0.00  0.00    +0.118 C 
BRANCH  18  19
ATOM      7  N   UNL     1      -0.993  -2.065  25.375  0.00  0.00    -0.349 N 
ATOM     19  C   UNL     1      -2.975  -1.148  25.771  0.00  0.00    -0.008 A 
ATOM     21  C   UNL     1      -3.136  -2.136  24.760  0.00  0.00    +0.004 A 
ATOM     22  C   UNL     1      -1.646  -1.127  26.129  0.00  0.00    +0.091 A 
ATOM     23  C   UNL     1      -1.878  -2.696  24.529  0.00  0.00    +0.049 A 
ATOM     24  C   UNL     1      -4.235  -2.608  24.016  0.00  0.00    +0.010 A 
ATOM     25  C   UNL     1      -1.662  -3.709  23.589  0.00  0.00    +0.026 A 
ATOM     27  C   UNL     1       0.426  -2.338  25.463  0.00  0.00    +0.149 C 
ATOM     28  C   UNL     1      -4.035  -3.621  23.072  0.00  0.00    +0.001 A 
ATOM     29  C   UNL     1      -2.768  -4.162  22.863  0.00  0.00    +0.002 A 
ENDBRANCH  18  19
ENDBRANCH   5  18
ENDBRANCH  10   5
BRANCH  12  16
ATOM     16  C   UNL     1      -0.810   3.695  25.018  0.00  0.00    +0.029 C 
BRANCH  16  17
ATOM     17  C   UNL     1      -0.492   2.956  23.725  0.00  0.00    +0.097 C 
BRANCH  17  20
ATOM      3  O   UNL     1       0.184   1.079  25.097  0.00  0.00    -0.276 OA
ATOM      8  N   UNL     1       0.580   1.008  22.810  0.00  0.00    -0.311 N 
ATOM     20  C   UNL     1       0.117   1.589  23.981  0.00  0.00    +0.213 C 
ATOM     38  H   UNL     1       0.511   1.512  21.931  0.00  0.00    +0.149 HD
BRANCH   8  26
ATOM     26  C   UNL     1       1.204  -0.293  22.790  0.00  0.00    +0.139 C 
BRANCH  26  30
ATOM      1  F   UNL     1       6.750   0.015  23.707  0.00  0.00    -0.205 F 
ATOM     30  C   UNL     1       2.682  -0.211  23.034  0.00  0.00    -0.030 A 
ATOM     31  C   UNL     1       3.382   0.945  22.691  0.00  0.00    +0.008 A 
ATOM     32  C   UNL     1       3.356  -1.291  23.604  0.00  0.00    +0.008 A 
ATOM     33  C   UNL     1       4.756   1.022  22.918  0.00  0.00    +0.038 A 
ATOM     34  C   UNL     1       4.731  -1.215  23.832  0.00  0.00    +0.038 A 
ATOM     35  C   UNL     1       5.430  -0.058  23.489  0.00  0.00    +0.123 A 
ENDBRANCH  26  30
ENDBRANCH   8  26
ENDBRANCH  17  20
ENDBRANCH  16  17
ENDBRANCH  12  16
TORSDOF 8
ENDMDL
MODEL 7
REMARK VINA RESULT:       1.1     17.776     19.694
REMARK  Name = 45360656
REMARK  9 active torsions:
REMARK  status: ('A' for Active; 'I' for Inactive)
REMARK    1  A    between atoms: N_5  and  C_10
REMARK    2  A    between atoms: N_5  and  C_18
REMARK    3  A    between atoms: N_7  and  C_27
REMARK    4  A    between atoms: N_8  and  C_26
REMARK    5  A    between atoms: C_12  and  C_16
REMARK    6  A    between atoms: C_16  and  C_17
REMARK    7  A    between atoms: C_17  and  C_20
REMARK    8  A    between atoms: C_18  and  C_19
REMARK    9  A    between atoms: C_26  and  C_30
REMARK                            x       y       z     vdW  Elec       q    Type
REMARK                         _______ _______ _______ _____ _____    ______ ____
ROOT
ATOM      2  O   UNL     1      -4.010  -3.705  23.848  0.00  0.00    -0.274 OA
ATOM      4  N   UNL     1      -2.739  -0.815  25.679  0.00  0.00    -0.286 NA
ATOM      6  N   UNL     1      -1.881  -2.933  24.052  0.00  0.00    -0.313 N 
ATOM      9  C   UNL     1      -3.708  -1.876  25.371  0.00  0.00    +0.145 C 
ATOM     10  C   UNL     1      -4.544   0.347  24.863  0.00  0.00    +0.070 C 
ATOM     11  C   UNL     1      -4.945  -1.129  24.850  0.00  0.00    +0.048 C 
ATOM     12  C   UNL     1      -1.359  -1.273  25.781  0.00  0.00    +0.075 C 
ATOM     13  C   UNL     1      -3.023   0.301  24.781  0.00  0.00    +0.104 C 
ATOM     14  C   UNL     1      -0.918  -1.950  24.493  0.00  0.00    +0.123 C 
ATOM     15  C   UNL     1      -3.222  -2.896  24.346  0.00  0.00    +0.230 C 
ATOM     37  H   UNL     1      -1.567  -3.631  23.384  0.00  0.00    +0.149 HD
ENDROOT
BRANCH  10   5
ATOM      5  N   UNL     1      -5.159   1.114  23.792  0.00  0.00    -0.308 NA
ATOM     36  H   UNL     1      -4.474   1.259  23.051  0.00  0.00    +0.123 HD
BRANCH   5  18
ATOM     18  C   UNL     1      -5.615   2.411  24.275  0.00  0.00    +0.118 C 
BRANCH  18  19
ATOM      7  N   UNL     1      -3.520   4.012  26.836  0.00  0.00    -0.349 N 
ATOM     19  C   UNL     1      -4.572   3.100  25.107  0.00  0.00    -0.008 A 
ATOM     21  C   UNL     1      -3.310   3.580  24.658  0.00  0.00    +0.004 A 
ATOM     22  C   UNL     1      -4.673   3.381  26.450  0.00  0.00    +0.091 A 
ATOM     23  C   UNL     1      -2.670   4.148  25.761  0.00  0.00    +0.049 A 
ATOM     24  C   UNL     1      -2.649   3.585  23.414  0.00  0.00    +0.010 A 
ATOM     25  C   UNL     1      -1.397   4.723  25.684  0.00  0.00    +0.026 A 
ATOM     27  C   UNL     1      -3.252   4.469  28.183  0.00  0.00    +0.149 C 
ATOM     28  C   UNL     1      -1.375   4.157  23.321  0.00  0.00    +0.001 A 
ATOM     29  C   UNL     1      -0.760   4.716  24.439  0.00  0.00    +0.002 A 
ENDBRANCH  18  19
ENDBRANCH   5  18
ENDBRANCH  10   5
BRANCH  12  16
ATOM     16  C   UNL     1      -0.390  -0.156  26.172  0.00  0.00    +0.029 C 
BRANCH  16  17
ATOM     17  C   UNL     1      -0.591   1.076  25.299  0.00  0.00    +0.097 C 
BRANCH  17  20
ATOM      3  O   UNL     1       1.210   2.206  24.141  0.00  0.00    -0.276 OA
ATOM      8  N   UNL     1       0.561   0.093  23.431  0.00  0.00    -0.311 N 
ATOM     20  C   UNL     1       0.493   1.214  24.245  0.00  0.00    +0.213 C 
ATOM     38  H   UNL     1      -0.091  -0.675  23.568  0.00  0.00    +0.149 HD
BRANCH   8  26
ATOM     26  C   UNL     1       1.511  -0.019  22.351  0.00  0.00    +0.139 C 
BRANCH  26  30
ATOM      1  F   UNL     1       6.807  -0.352  24.231  0.00  0.00    -0.205 F 
ATOM     30  C   UNL     1       2.923  -0.108  22.852  0.00  0.00    -0.030 A 
ATOM     31  C   UNL     1       3.791   0.971  22.686  0.00  0.00    +0.008 A 
ATOM     32  C   UNL     1       3.367  -1.269  23.484  0.00  0.00    +0.008 A 
ATOM     33  C   UNL     1       5.103   0.889  23.151  0.00  0.00    +0.038 A 
ATOM     34  C   UNL     1       4.680  -1.352  23.950  0.00  0.00    +0.038 A 
ATOM     35  C   UNL     1       5.548  -0.272  23.784  0.00  0.00    +0.123 A 
ENDBRANCH  26  30
ENDBRANCH   8  26
ENDBRANCH  17  20
ENDBRANCH  16  17
ENDBRANCH  12  16
TORSDOF 8
ENDMDL
