MODEL 1
REMARK VINA RESULT:      10.0      0.000      0.000
REMARK  Name = 25390943
REMARK  6 active torsions:
REMARK  status: ('A' for Active; 'I' for Inactive)
REMARK    1  A    between atoms: S_1  and  N_7
REMARK    2  A    between atoms: S_1  and  C_20
REMARK    3  A    between atoms: N_7  and  C_9
REMARK    4  A    between atoms: C_21  and  C_23
REMARK    5  A    between atoms: C_24  and  C_27
REMARK    6  A    between atoms: C_26  and  C_30
REMARK                            x       y       z     vdW  Elec       q    Type
REMARK                         _______ _______ _______ _____ _____    ______ ____
ROOT
ATOM      2  O   UNL     1      -3.819   2.419  22.283  0.00  0.00    -0.273 OA
ATOM      3  O   UNL     1       0.631   3.460  24.797  0.00  0.00    -0.270 OA
ATOM      6  N   UNL     1      -1.600   2.838  24.639  0.00  0.00    -0.286 N 
ATOM      8  N   UNL     1      -1.719   1.575  21.966  0.00  0.00    -0.283 N 
ATOM      9  C   UNL     1      -4.392   3.240  25.361  0.00  0.00    +0.080 C 
ATOM     10  C   UNL     1      -2.570   1.818  24.257  0.00  0.00    +0.164 C 
ATOM     11  C   UNL     1      -3.870   1.837  25.070  0.00  0.00    +0.052 C 
ATOM     12  C   UNL     1      -3.289   4.079  25.992  0.00  0.00    +0.039 C 
ATOM     13  C   UNL     1      -2.090   4.154  25.062  0.00  0.00    +0.110 C 
ATOM     14  C   UNL     1      -2.768   1.994  22.763  0.00  0.00    +0.238 C 
ATOM     15  C   UNL     1      -0.234   2.679  24.402  0.00  0.00    +0.249 C 
ATOM     16  C   UNL     1       0.214   1.538  23.559  0.00  0.00    +0.059 A 
ATOM     17  C   UNL     1      -0.441   1.135  22.381  0.00  0.00    +0.046 A 
ATOM     18  C   UNL     1       1.470   0.991  23.875  0.00  0.00    +0.023 A 
ATOM     19  C   UNL     1       0.210   0.243  21.513  0.00  0.00    +0.024 A 
ATOM     21  C   UNL     1       2.079   0.067  23.027  0.00  0.00    -0.017 A 
ATOM     22  C   UNL     1       1.454  -0.297  21.839  0.00  0.00    +0.010 A 
ATOM     32  H   UNL     1      -1.927   1.478  20.975  0.00  0.00    +0.155 HD
ENDROOT
BRANCH  21  23
ATOM     23  C   UNL     1       3.368  -0.492  23.369  0.00  0.00    -0.015 A 
ATOM     24  C   UNL     1       4.537   0.258  23.245  0.00  0.00    -0.040 A 
ATOM     25  C   UNL     1       3.429  -1.808  23.829  0.00  0.00    +0.009 A 
ATOM     26  C   UNL     1       5.768  -0.307  23.581  0.00  0.00    -0.047 A 
ATOM     27  C   UNL     1       4.485   1.672  22.753  0.00  0.00    +0.044 C 
ATOM     28  C   UNL     1       4.659  -2.373  24.164  0.00  0.00    +0.001 A 
ATOM     29  C   UNL     1       5.828  -1.623  24.041  0.00  0.00    +0.003 A 
ATOM     30  C   UNL     1       7.035   0.473  23.459  0.00  0.00    +0.044 C 
ENDBRANCH  21  23
BRANCH   9   7
ATOM      7  N   UNL     1      -5.541   3.158  26.294  0.00  0.00    -0.192 NA
ATOM     31  H   UNL     1      -5.453   3.659  27.187  0.00  0.00    +0.148 HD
BRANCH   7   1
ATOM      1  S   UNL     1      -6.582   1.814  26.201  0.00  0.00    +0.027 S 
ATOM      4  O   UNL     1      -7.318   1.841  24.952  0.00  0.00    -0.158 OA
ATOM      5  O   UNL     1      -7.277   1.689  27.468  0.00  0.00    -0.158 OA
ATOM     20  C   UNL     1      -5.401   0.488  26.111  0.00  0.00    +0.214 C 
ENDBRANCH   7   1
ENDBRANCH   9   7
TORSDOF 3
ENDMDL
MODEL 2
REMARK VINA RESULT:      11.1      3.819      8.910
REMARK  Name = 25390943
REMARK  6 active torsions:
REMARK  status: ('A' for Active; 'I' for Inactive)
REMARK    1  A    between atoms: S_1  and  N_7
REMARK    2  A    between atoms: S_1  and  C_20
REMARK    3  A    between atoms: N_7  and  C_9
REMARK    4  A    between atoms: C_21  and  C_23
REMARK    5  A    between atoms: C_24  and  C_27
REMARK    6  A    between atoms: C_26  and  C_30
REMARK                            x       y       z     vdW  Elec       q    Type
REMARK                         _______ _______ _______ _____ _____    ______ ____
ROOT
ATOM      2  O   UNL     1       1.641  -0.683  21.004  0.00  0.00    -0.273 OA
ATOM      3  O   UNL     1      -1.454  -1.342  25.151  0.00  0.00    -0.270 OA
ATOM      6  N   UNL     1       0.546  -0.863  24.073  0.00  0.00    -0.286 N 
ATOM      8  N   UNL     1      -0.375   0.272  21.500  0.00  0.00    -0.283 N 
ATOM      9  C   UNL     1       3.375  -1.401  23.641  0.00  0.00    +0.080 C 
ATOM     10  C   UNL     1       1.318   0.079  23.270  0.00  0.00    +0.164 C 
ATOM     11  C   UNL     1       2.833   0.018  23.493  0.00  0.00    +0.052 C 
ATOM     12  C   UNL     1       2.590  -2.143  24.713  0.00  0.00    +0.039 C 
ATOM     13  C   UNL     1       1.115  -2.186  24.348  0.00  0.00    +0.110 C 
ATOM     14  C   UNL     1       0.889  -0.174  21.836  0.00  0.00    +0.238 C 
ATOM     15  C   UNL     1      -0.793  -0.632  24.393  0.00  0.00    +0.249 C 
ATOM     16  C   UNL     1      -1.500   0.496  23.728  0.00  0.00    +0.059 A 
ATOM     17  C   UNL     1      -1.360   0.806  22.363  0.00  0.00    +0.046 A 
ATOM     18  C   UNL     1      -2.500   1.131  24.485  0.00  0.00    +0.023 A 
ATOM     19  C   UNL     1      -2.271   1.697  21.773  0.00  0.00    +0.024 A 
ATOM     21  C   UNL     1      -3.364   2.051  23.893  0.00  0.00    -0.017 A 
ATOM     22  C   UNL     1      -3.258   2.325  22.534  0.00  0.00    +0.010 A 
ATOM     32  H   UNL     1      -0.581   0.313  20.505  0.00  0.00    +0.155 HD
ENDROOT
BRANCH  21  23
ATOM     23  C   UNL     1      -4.384   2.702  24.686  0.00  0.00    -0.015 A 
ATOM     24  C   UNL     1      -5.244   1.967  25.500  0.00  0.00    -0.040 A 
ATOM     25  C   UNL     1      -4.498   4.091  24.625  0.00  0.00    +0.009 A 
ATOM     26  C   UNL     1      -6.220   2.620  26.254  0.00  0.00    -0.047 A 
ATOM     27  C   UNL     1      -5.132   0.475  25.575  0.00  0.00    +0.044 C 
ATOM     28  C   UNL     1      -5.473   4.744  25.378  0.00  0.00    +0.001 A 
ATOM     29  C   UNL     1      -6.334   4.009  26.193  0.00  0.00    +0.003 A 
ATOM     30  C   UNL     1      -7.155   1.859  27.134  0.00  0.00    +0.044 C 
ENDBRANCH  21  23
BRANCH   9   7
ATOM      7  N   UNL     1       4.804  -1.347  24.028  0.00  0.00    -0.192 NA
ATOM     31  H   UNL     1       5.096  -1.935  24.819  0.00  0.00    +0.148 HD
BRANCH   7   1
ATOM      1  S   UNL     1       5.703   0.053  23.667  0.00  0.00    +0.027 S 
ATOM      4  O   UNL     1       6.965  -0.311  23.053  0.00  0.00    -0.158 OA
ATOM      5  O   UNL     1       5.667   0.928  24.823  0.00  0.00    -0.158 OA
ATOM     20  C   UNL     1       4.678   0.788  22.413  0.00  0.00    +0.214 C 
ENDBRANCH   7   1
ENDBRANCH   9   7
TORSDOF 3
ENDMDL
