MODEL 1
REMARK VINA RESULT:      -5.3      0.000      0.000
REMARK  Name = 51137101
REMARK  6 active torsions:
REMARK  status: ('A' for Active; 'I' for Inactive)
REMARK    1  A    between atoms: N_2  and  C_11
REMARK    2  A    between atoms: N_5  and  C_21
REMARK    3  A    between atoms: N_5  and  C_24
REMARK    4  A    between atoms: N_5  and  C_25
REMARK    5  A    between atoms: C_6  and  C_10
REMARK    6  A    between atoms: C_11  and  C_12
REMARK                            x       y       z     vdW  Elec       q    Type
REMARK                         _______ _______ _______ _____ _____    ______ ____
ROOT
ATOM      2  N   UNL     1      -2.766 -10.746  15.596  0.00  0.00    -0.297 NA
ATOM      6  C   UNL     1      -3.216 -10.776  13.295  0.00  0.00    +0.070 C 
ATOM      7  C   UNL     1      -1.847 -10.120  13.543  0.00  0.00    +0.028 C 
ATOM      8  C   UNL     1      -3.900 -10.781  14.669  0.00  0.00    +0.096 C 
ATOM      9  C   UNL     1      -1.843  -9.767  15.024  0.00  0.00    +0.085 C 
ENDROOT
BRANCH   6  10
ATOM      1  F   UNL     1      -8.500  -8.063   9.114  0.00  0.00    -0.205 F 
ATOM      3  N   UNL     1      -5.415 -10.072  12.311  0.00  0.00    -0.341 N 
ATOM      4  N   UNL     1      -3.611  -9.532  11.131  0.00  0.00    -0.232 NA
ATOM     10  C   UNL     1      -4.052 -10.117  12.223  0.00  0.00    +0.113 A 
ATOM     13  C   UNL     1      -5.885  -9.416  11.201  0.00  0.00    +0.069 A 
ATOM     14  C   UNL     1      -4.739  -9.089  10.481  0.00  0.00    +0.089 A 
ATOM     17  C   UNL     1      -7.174  -9.091  10.780  0.00  0.00    +0.066 A 
ATOM     18  C   UNL     1      -4.869  -8.397   9.266  0.00  0.00    +0.032 A 
ATOM     22  C   UNL     1      -7.285  -8.401   9.568  0.00  0.00    +0.125 A 
ATOM     23  C   UNL     1      -6.155  -8.060   8.823  0.00  0.00    +0.040 A 
ATOM     26  H   UNL     1      -5.980 -10.453  13.058  0.00  0.00    +0.167 HD
ENDBRANCH   6  10
BRANCH   2  11
ATOM     11  C   UNL     1      -3.170 -10.402  16.951  0.00  0.00    +0.119 C 
BRANCH  11  12
ATOM     12  C   UNL     1      -4.666 -10.279  17.076  0.00  0.00    -0.033 A 
ATOM     15  C   UNL     1      -5.401  -9.662  16.064  0.00  0.00    +0.007 A 
ATOM     16  C   UNL     1      -5.316 -10.781  18.203  0.00  0.00    +0.007 A 
ATOM     19  C   UNL     1      -6.786  -9.548  16.179  0.00  0.00    +0.023 A 
ATOM     20  C   UNL     1      -6.700 -10.666  18.319  0.00  0.00    +0.023 A 
ATOM     21  C   UNL     1      -7.436 -10.050  17.307  0.00  0.00    +0.029 A 
BRANCH  21   5
ATOM      5  N   UNL     1      -8.837  -9.936  17.424  0.00  0.00    -0.336 N 
ATOM     24  C   UNL     1      -9.487 -10.148  18.701  0.00  0.00    +0.129 C 
ATOM     25  C   UNL     1      -9.646  -9.613  16.265  0.00  0.00    +0.129 C 
ENDBRANCH  21   5
ENDBRANCH  11  12
ENDBRANCH   2  11
TORSDOF 4
ENDMDL
MODEL 2
REMARK VINA RESULT:      -2.8      2.915      5.256
REMARK  Name = 51137101
REMARK  6 active torsions:
REMARK  status: ('A' for Active; 'I' for Inactive)
REMARK    1  A    between atoms: N_2  and  C_11
REMARK    2  A    between atoms: N_5  and  C_21
REMARK    3  A    between atoms: N_5  and  C_24
REMARK    4  A    between atoms: N_5  and  C_25
REMARK    5  A    between atoms: C_6  and  C_10
REMARK    6  A    between atoms: C_11  and  C_12
REMARK                            x       y       z     vdW  Elec       q    Type
REMARK                         _______ _______ _______ _____ _____    ______ ____
ROOT
ATOM      2  N   UNL     1      -6.875 -10.438  16.197  0.00  0.00    -0.297 NA
ATOM      6  C   UNL     1      -4.745 -10.781  15.279  0.00  0.00    +0.070 C 
ATOM      7  C   UNL     1      -4.635  -9.854  16.501  0.00  0.00    +0.028 C 
ATOM      8  C   UNL     1      -6.237 -10.780  14.923  0.00  0.00    +0.096 C 
ATOM      9  C   UNL     1      -6.054  -9.361  16.751  0.00  0.00    +0.085 C 
ENDROOT
BRANCH   6  10
ATOM      1  F   UNL     1       0.669  -8.812  10.853  0.00  0.00    -0.205 F 
ATOM      3  N   UNL     1      -2.543 -10.084  14.294  0.00  0.00    -0.341 N 
ATOM      4  N   UNL     1      -4.214 -10.332  12.849  0.00  0.00    -0.232 NA
ATOM     10  C   UNL     1      -3.860 -10.402  14.113  0.00  0.00    +0.113 A 
ATOM     13  C   UNL     1      -2.011  -9.789  13.064  0.00  0.00    +0.069 A 
ATOM     14  C   UNL     1      -3.074  -9.951  12.180  0.00  0.00    +0.089 A 
ATOM     17  C   UNL     1      -0.731  -9.406  12.663  0.00  0.00    +0.066 A 
ATOM     18  C   UNL     1      -2.865  -9.722  10.809  0.00  0.00    +0.032 A 
ATOM     22  C   UNL     1      -0.541  -9.182  11.296  0.00  0.00    +0.125 A 
ATOM     23  C   UNL     1      -1.587  -9.336  10.384  0.00  0.00    +0.040 A 
ATOM     26  H   UNL     1      -2.046 -10.068  15.175  0.00  0.00    +0.167 HD
ENDBRANCH   6  10
BRANCH   2  11
ATOM     11  C   UNL     1      -8.267 -10.045  16.031  0.00  0.00    +0.119 C 
BRANCH  11  12
ATOM     12  C   UNL     1      -8.663  -9.989  14.579  0.00  0.00    -0.033 A 
ATOM     15  C   UNL     1      -7.730  -9.608  13.615  0.00  0.00    +0.007 A 
ATOM     16  C   UNL     1      -9.965 -10.317  14.199  0.00  0.00    +0.007 A 
ATOM     19  C   UNL     1      -8.098  -9.556  12.271  0.00  0.00    +0.023 A 
ATOM     20  C   UNL     1     -10.333 -10.264  12.855  0.00  0.00    +0.023 A 
ATOM     21  C   UNL     1      -9.400  -9.884  11.891  0.00  0.00    +0.029 A 
BRANCH  21   5
ATOM      5  N   UNL     1      -9.772  -9.832  10.532  0.00  0.00    -0.336 N 
ATOM     24  C   UNL     1      -9.209 -10.768   9.580  0.00  0.00    +0.129 C 
ATOM     25  C   UNL     1     -10.719  -8.837  10.068  0.00  0.00    +0.129 C 
ENDBRANCH  21   5
ENDBRANCH  11  12
ENDBRANCH   2  11
TORSDOF 4
ENDMDL
