MODEL 1
REMARK VINA RESULT:      -0.4      0.000      0.000
REMARK  Name = 28961265
REMARK  14 active torsions:
REMARK  status: ('A' for Active; 'I' for Inactive)
REMARK    1  A    between atoms: O_4  and  C_11
REMARK    2  A    between atoms: O_5  and  C_14
REMARK    3  A    between atoms: N_6  and  C_9
REMARK    4  A    between atoms: N_6  and  C_15
REMARK    5  A    between atoms: N_6  and  C_16
REMARK    6  A    between atoms: N_7  and  C_13
REMARK    7  A    between atoms: N_7  and  C_17
REMARK    8  A    between atoms: N_7  and  C_18
REMARK    9  A    between atoms: C_10  and  C_13
REMARK   10  A    between atoms: C_12  and  C_14
REMARK   11  A    between atoms: C_15  and  C_19
REMARK   12  A    between atoms: C_17  and  C_20
REMARK   13  A    between atoms: C_18  and  C_21
REMARK   14  A    between atoms: C_19  and  C_22
REMARK                            x       y       z     vdW  Elec       q    Type
REMARK                         _______ _______ _______ _____ _____    ______ ____
ROOT
ATOM      3  O   UNL     1       0.225   1.182  26.549  0.00  0.00    -0.366 OA
ATOM      9  C   UNL     1      -1.197   2.691  25.379  0.00  0.00    +0.118 C 
ATOM     10  C   UNL     1      -0.487   1.333  25.301  0.00  0.00    +0.152 C 
ATOM     11  C   UNL     1      -0.332   3.474  26.354  0.00  0.00    +0.165 C 
ATOM     12  C   UNL     1       0.050   2.376  27.338  0.00  0.00    +0.174 C 
ENDROOT
BRANCH  11   4
ATOM      4  O   UNL     1       0.828   3.995  25.718  0.00  0.00    -0.388 OA
ATOM     37  H   UNL     1       0.758   4.965  25.724  0.00  0.00    +0.210 HD
ENDBRANCH  11   4
BRANCH   9   6
ATOM      6  N   UNL     1      -1.459   3.352  24.113  0.00  0.00    -0.297 NA
ATOM     16  C   UNL     1      -1.916   4.729  24.328  0.00  0.00    +0.105 C 
BRANCH   6  15
ATOM     15  C   UNL     1      -2.454   2.610  23.333  0.00  0.00    +0.090 C 
BRANCH  15  19
ATOM     19  C   UNL     1      -3.807   3.324  23.348  0.00  0.00    +0.071 C 
BRANCH  19  22
ATOM      8  N   UNL     1      -5.218   3.749  25.286  0.00  0.00    -0.260 NA
ATOM     22  C   UNL     1      -4.688   2.818  24.462  0.00  0.00    +0.042 A 
ATOM     27  C   UNL     1      -4.910   1.456  24.586  0.00  0.00    +0.023 A 
ATOM     32  C   UNL     1      -5.728   1.023  25.622  0.00  0.00    +0.003 A 
ATOM     35  C   UNL     1      -6.008   3.290  26.282  0.00  0.00    +0.111 A 
ATOM     36  C   UNL     1      -6.291   1.949  26.491  0.00  0.00    +0.020 A 
ENDBRANCH  19  22
ENDBRANCH  15  19
ENDBRANCH   6  15
ENDBRANCH   9   6
BRANCH  10  13
ATOM     13  C   UNL     1       0.528   1.157  24.177  0.00  0.00    +0.118 C 
BRANCH  13   7
ATOM      7  N   UNL     1       0.129   0.086  23.278  0.00  0.00    -0.291 NA
BRANCH   7  17
ATOM     17  C   UNL     1       1.123  -0.098  22.218  0.00  0.00    +0.120 C 
BRANCH  17  20
ATOM      1  F   UNL     1       6.375  -0.199  24.259  0.00  0.00    -0.205 F 
ATOM     20  C   UNL     1       2.526  -0.125  22.763  0.00  0.00    -0.033 A 
ATOM     23  C   UNL     1       3.008  -1.272  23.394  0.00  0.00    +0.008 A 
ATOM     25  C   UNL     1       3.346   0.997  22.638  0.00  0.00    +0.008 A 
ATOM     28  C   UNL     1       4.308  -1.298  23.899  0.00  0.00    +0.038 A 
ATOM     30  C   UNL     1       4.645   0.972  23.143  0.00  0.00    +0.038 A 
ATOM     33  C   UNL     1       5.127  -0.175  23.773  0.00  0.00    +0.123 A 
ENDBRANCH  17  20
ENDBRANCH   7  17
BRANCH   7  18
ATOM     18  C   UNL     1      -0.060  -1.167  24.015  0.00  0.00    +0.120 C 
BRANCH  18  21
ATOM      2  F   UNL     1      -5.441  -2.839  23.962  0.00  0.00    -0.205 F 
ATOM     21  C   UNL     1      -1.497  -1.614  24.001  0.00  0.00    -0.033 A 
ATOM     24  C   UNL     1      -2.483  -0.779  23.474  0.00  0.00    +0.008 A 
ATOM     26  C   UNL     1      -1.846  -2.864  24.514  0.00  0.00    +0.008 A 
ATOM     29  C   UNL     1      -3.815  -1.192  23.460  0.00  0.00    +0.038 A 
ATOM     31  C   UNL     1      -3.177  -3.277  24.501  0.00  0.00    +0.038 A 
ATOM     34  C   UNL     1      -4.162  -2.442  23.974  0.00  0.00    +0.123 A 
ENDBRANCH  18  21
ENDBRANCH   7  18
ENDBRANCH  13   7
ENDBRANCH  10  13
BRANCH  12  14
ATOM     14  C   UNL     1       1.310   2.630  28.145  0.00  0.00    +0.190 C 
BRANCH  14   5
ATOM      5  O   UNL     1       1.031   2.395  29.516  0.00  0.00    -0.392 OA
ATOM     38  H   UNL     1       0.063   2.376  29.613  0.00  0.00    +0.210 HD
ENDBRANCH  14   5
ENDBRANCH  12  14
TORSDOF 13
ENDMDL
MODEL 2
REMARK VINA RESULT:       0.2      0.635      5.090
REMARK  Name = 28961265
REMARK  14 active torsions:
REMARK  status: ('A' for Active; 'I' for Inactive)
REMARK    1  A    between atoms: O_4  and  C_11
REMARK    2  A    between atoms: O_5  and  C_14
REMARK    3  A    between atoms: N_6  and  C_9
REMARK    4  A    between atoms: N_6  and  C_15
REMARK    5  A    between atoms: N_6  and  C_16
REMARK    6  A    between atoms: N_7  and  C_13
REMARK    7  A    between atoms: N_7  and  C_17
REMARK    8  A    between atoms: N_7  and  C_18
REMARK    9  A    between atoms: C_10  and  C_13
REMARK   10  A    between atoms: C_12  and  C_14
REMARK   11  A    between atoms: C_15  and  C_19
REMARK   12  A    between atoms: C_17  and  C_20
REMARK   13  A    between atoms: C_18  and  C_21
REMARK   14  A    between atoms: C_19  and  C_22
REMARK                            x       y       z     vdW  Elec       q    Type
REMARK                         _______ _______ _______ _____ _____    ______ ____
ROOT
ATOM      3  O   UNL     1       0.161   1.168  26.560  0.00  0.00    -0.366 OA
ATOM      9  C   UNL     1      -1.121   2.915  25.573  0.00  0.00    +0.118 C 
ATOM     10  C   UNL     1      -0.513   1.527  25.332  0.00  0.00    +0.152 C 
ATOM     11  C   UNL     1      -0.220   3.503  26.647  0.00  0.00    +0.165 C 
ATOM     12  C   UNL     1       0.060   2.264  27.490  0.00  0.00    +0.174 C 
ENDROOT
BRANCH  11   4
ATOM      4  O   UNL     1       0.988   4.009  26.094  0.00  0.00    -0.388 OA
ATOM     37  H   UNL     1       0.799   4.889  25.728  0.00  0.00    +0.210 HD
ENDBRANCH  11   4
BRANCH   9   6
ATOM      6  N   UNL     1      -1.308   3.747  24.398  0.00  0.00    -0.297 NA
ATOM     16  C   UNL     1      -1.618   5.128  24.779  0.00  0.00    +0.105 C 
BRANCH   6  15
ATOM     15  C   UNL     1      -2.374   3.212  23.544  0.00  0.00    +0.090 C 
BRANCH  15  19
ATOM     19  C   UNL     1      -3.706   3.907  23.830  0.00  0.00    +0.071 C 
BRANCH  19  22
ATOM      8  N   UNL     1      -5.387   3.697  25.577  0.00  0.00    -0.260 NA
ATOM     22  C   UNL     1      -4.605   3.051  24.685  0.00  0.00    +0.042 A 
ATOM     27  C   UNL     1      -4.590   1.675  24.520  0.00  0.00    +0.023 A 
ATOM     32  C   UNL     1      -5.432   0.915  25.323  0.00  0.00    +0.003 A 
ATOM     35  C   UNL     1      -6.192   2.925  26.341  0.00  0.00    +0.111 A 
ATOM     36  C   UNL     1      -6.251   1.543  26.253  0.00  0.00    +0.020 A 
ENDBRANCH  19  22
ENDBRANCH  15  19
ENDBRANCH   6  15
ENDBRANCH   9   6
BRANCH  10  13
ATOM     13  C   UNL     1       0.509   1.415  24.207  0.00  0.00    +0.118 C 
BRANCH  13   7
ATOM      7  N   UNL     1       0.310   0.193  23.442  0.00  0.00    -0.291 NA
BRANCH   7  17
ATOM     17  C   UNL     1      -1.062   0.117  22.935  0.00  0.00    +0.120 C 
BRANCH  17  20
ATOM      1  F   UNL     1      -4.038  -3.905  25.527  0.00  0.00    -0.205 F 
ATOM     20  C   UNL     1      -1.857  -0.958  23.627  0.00  0.00    -0.033 A 
ATOM     23  C   UNL     1      -1.214  -1.875  24.459  0.00  0.00    +0.008 A 
ATOM     25  C   UNL     1      -3.237  -1.037  23.439  0.00  0.00    +0.008 A 
ATOM     28  C   UNL     1      -1.950  -2.871  25.101  0.00  0.00    +0.038 A 
ATOM     30  C   UNL     1      -3.973  -2.032  24.080  0.00  0.00    +0.038 A 
ATOM     33  C   UNL     1      -3.331  -2.949  24.912  0.00  0.00    +0.123 A 
ENDBRANCH  17  20
ENDBRANCH   7  17
BRANCH   7  18
ATOM     18  C   UNL     1       1.264   0.115  22.332  0.00  0.00    +0.120 C 
BRANCH  18  21
ATOM      2  F   UNL     1       6.570  -0.380  24.161  0.00  0.00    -0.205 F 
ATOM     21  C   UNL     1       2.681  -0.018  22.821  0.00  0.00    -0.033 A 
ATOM     24  C   UNL     1       3.112  -1.211  23.401  0.00  0.00    +0.008 A 
ATOM     26  C   UNL     1       3.567   1.054  22.694  0.00  0.00    +0.008 A 
ATOM     29  C   UNL     1       4.425  -1.334  23.853  0.00  0.00    +0.038 A 
ATOM     31  C   UNL     1       4.880   0.931  23.147  0.00  0.00    +0.038 A 
ATOM     34  C   UNL     1       5.309  -0.263  23.726  0.00  0.00    +0.123 A 
ENDBRANCH  18  21
ENDBRANCH   7  18
ENDBRANCH  13   7
ENDBRANCH  10  13
BRANCH  12  14
ATOM     14  C   UNL     1       1.319   2.320  28.336  0.00  0.00    +0.190 C 
BRANCH  14   5
ATOM      5  O   UNL     1       0.949   2.370  29.705  0.00  0.00    -0.392 OA
ATOM     38  H   UNL     1       1.746   2.167  30.224  0.00  0.00    +0.210 HD
ENDBRANCH  14   5
ENDBRANCH  12  14
TORSDOF 13
ENDMDL
MODEL 3
REMARK VINA RESULT:       0.2      2.421      6.865
REMARK  Name = 28961265
REMARK  14 active torsions:
REMARK  status: ('A' for Active; 'I' for Inactive)
REMARK    1  A    between atoms: O_4  and  C_11
REMARK    2  A    between atoms: O_5  and  C_14
REMARK    3  A    between atoms: N_6  and  C_9
REMARK    4  A    between atoms: N_6  and  C_15
REMARK    5  A    between atoms: N_6  and  C_16
REMARK    6  A    between atoms: N_7  and  C_13
REMARK    7  A    between atoms: N_7  and  C_17
REMARK    8  A    between atoms: N_7  and  C_18
REMARK    9  A    between atoms: C_10  and  C_13
REMARK   10  A    between atoms: C_12  and  C_14
REMARK   11  A    between atoms: C_15  and  C_19
REMARK   12  A    between atoms: C_17  and  C_20
REMARK   13  A    between atoms: C_18  and  C_21
REMARK   14  A    between atoms: C_19  and  C_22
REMARK                            x       y       z     vdW  Elec       q    Type
REMARK                         _______ _______ _______ _____ _____    ______ ____
ROOT
ATOM      3  O   UNL     1      -1.347  -0.015  26.104  0.00  0.00    -0.366 OA
ATOM      9  C   UNL     1      -0.167  -0.506  24.095  0.00  0.00    +0.118 C 
ATOM     10  C   UNL     1      -0.369   0.542  25.197  0.00  0.00    +0.152 C 
ATOM     11  C   UNL     1      -1.484  -1.266  24.098  0.00  0.00    +0.165 C 
ATOM     12  C   UNL     1      -1.795  -1.285  25.590  0.00  0.00    +0.174 C 
ENDROOT
BRANCH  11   4
ATOM      4  O   UNL     1      -2.494  -0.558  23.391  0.00  0.00    -0.388 OA
ATOM     37  H   UNL     1      -2.387  -0.757  22.445  0.00  0.00    +0.210 HD
ENDBRANCH  11   4
BRANCH   9   6
ATOM      6  N   UNL     1       0.255  -0.003  22.800  0.00  0.00    -0.297 NA
ATOM     16  C   UNL     1       0.503  -1.106  21.866  0.00  0.00    +0.105 C 
BRANCH   6  15
ATOM     15  C   UNL     1       1.459   0.825  22.929  0.00  0.00    +0.090 C 
BRANCH  15  19
ATOM     19  C   UNL     1       2.597   0.275  22.068  0.00  0.00    +0.071 C 
BRANCH  19  22
ATOM      8  N   UNL     1       3.880  -1.343  23.357  0.00  0.00    -0.260 NA
ATOM     22  C   UNL     1       3.804  -0.074  22.901  0.00  0.00    +0.042 A 
ATOM     27  C   UNL     1       4.758   0.900  23.155  0.00  0.00    +0.023 A 
ATOM     32  C   UNL     1       5.859   0.546  23.925  0.00  0.00    +0.003 A 
ATOM     35  C   UNL     1       4.964  -1.651  24.104  0.00  0.00    +0.111 A 
ATOM     36  C   UNL     1       5.972  -0.750  24.413  0.00  0.00    +0.020 A 
ENDBRANCH  19  22
ENDBRANCH  15  19
ENDBRANCH   6  15
ENDBRANCH   9   6
BRANCH  10  13
ATOM     13  C   UNL     1      -0.887   1.906  24.756  0.00  0.00    +0.118 C 
BRANCH  13   7
ATOM      7  N   UNL     1      -0.949   2.828  25.879  0.00  0.00    -0.291 NA
BRANCH   7  17
ATOM     17  C   UNL     1       0.367   3.416  26.140  0.00  0.00    +0.120 C 
BRANCH  17  20
ATOM      1  F   UNL     1       2.448   1.785  31.116  0.00  0.00    -0.205 F 
ATOM     20  C   UNL     1       0.923   2.981  27.469  0.00  0.00    -0.033 A 
ATOM     23  C   UNL     1       0.082   2.410  28.425  0.00  0.00    +0.008 A 
ATOM     25  C   UNL     1       2.280   3.146  27.747  0.00  0.00    +0.008 A 
ATOM     28  C   UNL     1       0.596   2.005  29.656  0.00  0.00    +0.038 A 
ATOM     30  C   UNL     1       2.795   2.743  28.978  0.00  0.00    +0.038 A 
ATOM     33  C   UNL     1       1.953   2.172  29.933  0.00  0.00    +0.123 A 
ENDBRANCH  17  20
ENDBRANCH   7  17
BRANCH   7  18
ATOM     18  C   UNL     1      -1.933   3.885  25.630  0.00  0.00    +0.120 C 
BRANCH  18  21
ATOM      2  F   UNL     1      -7.055   1.776  24.592  0.00  0.00    -0.205 F 
ATOM     21  C   UNL     1      -3.301   3.321  25.353  0.00  0.00    -0.033 A 
ATOM     24  C   UNL     1      -3.550   2.648  24.156  0.00  0.00    +0.008 A 
ATOM     26  C   UNL     1      -4.322   3.472  26.292  0.00  0.00    +0.008 A 
ATOM     29  C   UNL     1      -4.817   2.126  23.899  0.00  0.00    +0.038 A 
ATOM     31  C   UNL     1      -5.589   2.950  26.035  0.00  0.00    +0.038 A 
ATOM     34  C   UNL     1      -5.837   2.277  24.839  0.00  0.00    +0.123 A 
ENDBRANCH  18  21
ENDBRANCH   7  18
ENDBRANCH  13   7
ENDBRANCH  10  13
BRANCH  12  14
ATOM     14  C   UNL     1      -3.256  -1.483  25.951  0.00  0.00    +0.190 C 
BRANCH  14   5
ATOM      5  O   UNL     1      -3.751  -2.614  25.251  0.00  0.00    -0.392 OA
ATOM     38  H   UNL     1      -3.669  -2.421  24.301  0.00  0.00    +0.210 HD
ENDBRANCH  14   5
ENDBRANCH  12  14
TORSDOF 13
ENDMDL
MODEL 4
REMARK VINA RESULT:       0.4      2.260      6.531
REMARK  Name = 28961265
REMARK  14 active torsions:
REMARK  status: ('A' for Active; 'I' for Inactive)
REMARK    1  A    between atoms: O_4  and  C_11
REMARK    2  A    between atoms: O_5  and  C_14
REMARK    3  A    between atoms: N_6  and  C_9
REMARK    4  A    between atoms: N_6  and  C_15
REMARK    5  A    between atoms: N_6  and  C_16
REMARK    6  A    between atoms: N_7  and  C_13
REMARK    7  A    between atoms: N_7  and  C_17
REMARK    8  A    between atoms: N_7  and  C_18
REMARK    9  A    between atoms: C_10  and  C_13
REMARK   10  A    between atoms: C_12  and  C_14
REMARK   11  A    between atoms: C_15  and  C_19
REMARK   12  A    between atoms: C_17  and  C_20
REMARK   13  A    between atoms: C_18  and  C_21
REMARK   14  A    between atoms: C_19  and  C_22
REMARK                            x       y       z     vdW  Elec       q    Type
REMARK                         _______ _______ _______ _____ _____    ______ ____
ROOT
ATOM      3  O   UNL     1      -3.740   1.644  24.249  0.00  0.00    -0.366 OA
ATOM      9  C   UNL     1      -2.432   3.618  24.498  0.00  0.00    +0.118 C 
ATOM     10  C   UNL     1      -2.371   2.090  24.378  0.00  0.00    +0.152 C 
ATOM     11  C   UNL     1      -3.818   3.862  25.073  0.00  0.00    +0.165 C 
ATOM     12  C   UNL     1      -4.617   2.784  24.352  0.00  0.00    +0.174 C 
ENDROOT
BRANCH  11   4
ATOM      4  O   UNL     1      -3.845   3.643  26.478  0.00  0.00    -0.388 OA
ATOM     37  H   UNL     1      -3.009   3.211  26.725  0.00  0.00    +0.210 HD
ENDBRANCH  11   4
BRANCH   9   6
ATOM      6  N   UNL     1      -1.341   4.250  25.219  0.00  0.00    -0.297 NA
ATOM     16  C   UNL     1      -0.187   4.461  24.340  0.00  0.00    +0.105 C 
BRANCH   6  15
ATOM     15  C   UNL     1      -0.947   3.445  26.379  0.00  0.00    +0.090 C 
BRANCH  15  19
ATOM     19  C   UNL     1       0.545   3.115  26.337  0.00  0.00    +0.071 C 
BRANCH  19  22
ATOM      8  N   UNL     1       2.430   2.969  27.870  0.00  0.00    -0.260 NA
ATOM     22  C   UNL     1       1.093   2.847  27.715  0.00  0.00    +0.042 A 
ATOM     27  C   UNL     1       0.223   2.497  28.735  0.00  0.00    +0.023 A 
ATOM     32  C   UNL     1       0.760   2.258  29.995  0.00  0.00    +0.003 A 
ATOM     35  C   UNL     1       2.917   2.728  29.108  0.00  0.00    +0.111 A 
ATOM     36  C   UNL     1       2.131   2.373  30.194  0.00  0.00    +0.020 A 
ENDBRANCH  19  22
ENDBRANCH  15  19
ENDBRANCH   6  15
ENDBRANCH   9   6
BRANCH  10  13
ATOM     13  C   UNL     1      -1.760   1.337  25.555  0.00  0.00    +0.118 C 
BRANCH  13   7
ATOM      7  N   UNL     1      -0.668   0.482  25.115  0.00  0.00    -0.291 NA
BRANCH   7  17
ATOM     17  C   UNL     1      -0.827  -0.875  25.644  0.00  0.00    +0.120 C 
BRANCH  17  20
ATOM      1  F   UNL     1      -5.208  -3.542  23.309  0.00  0.00    -0.205 F 
ATOM     20  C   UNL     1      -1.998  -1.587  25.020  0.00  0.00    -0.033 A 
ATOM     23  C   UNL     1      -1.787  -2.725  24.240  0.00  0.00    +0.008 A 
ATOM     25  C   UNL     1      -3.293  -1.111  25.222  0.00  0.00    +0.008 A 
ATOM     28  C   UNL     1      -2.871  -3.386  23.662  0.00  0.00    +0.038 A 
ATOM     30  C   UNL     1      -4.377  -1.771  24.644  0.00  0.00    +0.038 A 
ATOM     33  C   UNL     1      -4.167  -2.909  23.864  0.00  0.00    +0.123 A 
ENDBRANCH  17  20
ENDBRANCH   7  17
BRANCH   7  18
ATOM     18  C   UNL     1      -0.595   0.446  23.651  0.00  0.00    +0.120 C 
BRANCH  18  21
ATOM      2  F   UNL     1       4.733   0.457  21.817  0.00  0.00    -0.205 F 
ATOM     21  C   UNL     1       0.828   0.449  23.161  0.00  0.00    -0.033 A 
ATOM     24  C   UNL     1       1.763   1.310  23.737  0.00  0.00    +0.008 A 
ATOM     26  C   UNL     1       1.214  -0.409  22.131  0.00  0.00    +0.008 A 
ATOM     29  C   UNL     1       3.082   1.312  23.284  0.00  0.00    +0.038 A 
ATOM     31  C   UNL     1       2.532  -0.406  21.677  0.00  0.00    +0.038 A 
ATOM     34  C   UNL     1       3.467   0.454  22.253  0.00  0.00    +0.123 A 
ENDBRANCH  18  21
ENDBRANCH   7  18
ENDBRANCH  13   7
ENDBRANCH  10  13
BRANCH  12  14
ATOM     14  C   UNL     1      -5.907   2.362  25.031  0.00  0.00    +0.190 C 
BRANCH  14   5
ATOM      5  O   UNL     1      -6.399   3.450  25.797  0.00  0.00    -0.392 OA
ATOM     38  H   UNL     1      -5.668   3.756  26.362  0.00  0.00    +0.210 HD
ENDBRANCH  14   5
ENDBRANCH  12  14
TORSDOF 13
ENDMDL
MODEL 5
REMARK VINA RESULT:       0.8      2.383      4.373
REMARK  Name = 28961265
REMARK  14 active torsions:
REMARK  status: ('A' for Active; 'I' for Inactive)
REMARK    1  A    between atoms: O_4  and  C_11
REMARK    2  A    between atoms: O_5  and  C_14
REMARK    3  A    between atoms: N_6  and  C_9
REMARK    4  A    between atoms: N_6  and  C_15
REMARK    5  A    between atoms: N_6  and  C_16
REMARK    6  A    between atoms: N_7  and  C_13
REMARK    7  A    between atoms: N_7  and  C_17
REMARK    8  A    between atoms: N_7  and  C_18
REMARK    9  A    between atoms: C_10  and  C_13
REMARK   10  A    between atoms: C_12  and  C_14
REMARK   11  A    between atoms: C_15  and  C_19
REMARK   12  A    between atoms: C_17  and  C_20
REMARK   13  A    between atoms: C_18  and  C_21
REMARK   14  A    between atoms: C_19  and  C_22
REMARK                            x       y       z     vdW  Elec       q    Type
REMARK                         _______ _______ _______ _____ _____    ______ ____
ROOT
ATOM      3  O   UNL     1      -0.730  -1.853  23.588  0.00  0.00    -0.366 OA
ATOM      9  C   UNL     1      -2.823  -1.206  24.520  0.00  0.00    +0.118 C 
ATOM     10  C   UNL     1      -1.770  -0.857  23.461  0.00  0.00    +0.152 C 
ATOM     11  C   UNL     1      -2.018  -1.952  25.573  0.00  0.00    +0.165 C 
ATOM     12  C   UNL     1      -1.050  -2.728  24.688  0.00  0.00    +0.174 C 
ENDROOT
BRANCH  11   4
ATOM      4  O   UNL     1      -1.308  -1.055  26.417  0.00  0.00    -0.388 OA
ATOM     37  H   UNL     1      -1.737  -1.067  27.289  0.00  0.00    +0.210 HD
ENDBRANCH  11   4
BRANCH   9   6
ATOM      6  N   UNL     1      -3.622  -0.100  25.020  0.00  0.00    -0.297 NA
ATOM     16  C   UNL     1      -3.888  -0.254  26.453  0.00  0.00    +0.105 C 
BRANCH   6  15
ATOM     15  C   UNL     1      -4.886   0.004  24.284  0.00  0.00    +0.090 C 
BRANCH  15  19
ATOM     19  C   UNL     1      -5.865   0.932  25.005  0.00  0.00    +0.071 C 
BRANCH  19  22
ATOM      8  N   UNL     1      -6.057   3.263  25.679  0.00  0.00    -0.260 NA
ATOM     22  C   UNL     1      -5.489   2.381  24.827  0.00  0.00    +0.042 A 
ATOM     27  C   UNL     1      -4.600   2.733  23.824  0.00  0.00    +0.023 A 
ATOM     32  C   UNL     1      -4.273   4.077  23.688  0.00  0.00    +0.003 A 
ATOM     35  C   UNL     1      -5.716   4.561  25.516  0.00  0.00    +0.111 A 
ATOM     36  C   UNL     1      -4.837   5.015  24.545  0.00  0.00    +0.020 A 
ENDBRANCH  19  22
ENDBRANCH  15  19
ENDBRANCH   6  15
ENDBRANCH   9   6
BRANCH  10  13
ATOM     13  C   UNL     1      -1.104   0.509  23.583  0.00  0.00    +0.118 C 
BRANCH  13   7
ATOM      7  N   UNL     1       0.310   0.372  23.897  0.00  0.00    -0.291 NA
BRANCH   7  17
ATOM     17  C   UNL     1       1.036  -0.222  22.773  0.00  0.00    +0.120 C 
BRANCH  17  20
ATOM      1  F   UNL     1       6.614  -0.071  23.562  0.00  0.00    -0.205 F 
ATOM     20  C   UNL     1       2.526  -0.182  22.984  0.00  0.00    -0.033 A 
ATOM     23  C   UNL     1       3.259   0.932  22.575  0.00  0.00    +0.008 A 
ATOM     25  C   UNL     1       3.175  -1.259  23.589  0.00  0.00    +0.008 A 
ATOM     28  C   UNL     1       4.640   0.971  22.770  0.00  0.00    +0.038 A 
ATOM     30  C   UNL     1       4.555  -1.222  23.784  0.00  0.00    +0.038 A 
ATOM     33  C   UNL     1       5.288  -0.107  23.375  0.00  0.00    +0.123 A 
ENDBRANCH  17  20
ENDBRANCH   7  17
BRANCH   7  18
ATOM     18  C   UNL     1       0.892   1.673  24.243  0.00  0.00    +0.120 C 
BRANCH  18  21
ATOM      2  F   UNL     1      -2.904   5.110  26.593  0.00  0.00    -0.205 F 
ATOM     21  C   UNL     1      -0.122   2.591  24.871  0.00  0.00    -0.033 A 
ATOM     24  C   UNL     1      -0.929   2.132  25.912  0.00  0.00    +0.008 A 
ATOM     26  C   UNL     1      -0.255   3.902  24.412  0.00  0.00    +0.008 A 
ATOM     29  C   UNL     1      -1.869   2.983  26.494  0.00  0.00    +0.038 A 
ATOM     31  C   UNL     1      -1.195   4.752  24.993  0.00  0.00    +0.038 A 
ATOM     34  C   UNL     1      -2.001   4.293  26.035  0.00  0.00    +0.123 A 
ENDBRANCH  18  21
ENDBRANCH   7  18
ENDBRANCH  13   7
ENDBRANCH  10  13
BRANCH  12  14
ATOM     14  C   UNL     1       0.235  -3.174  25.361  0.00  0.00    +0.190 C 
BRANCH  14   5
ATOM      5  O   UNL     1       0.983  -2.026  25.729  0.00  0.00    -0.392 OA
ATOM     38  H   UNL     1       1.867  -2.121  25.334  0.00  0.00    +0.210 HD
ENDBRANCH  14   5
ENDBRANCH  12  14
TORSDOF 13
ENDMDL
MODEL 6
REMARK VINA RESULT:       1.2      2.777      5.596
REMARK  Name = 28961265
REMARK  14 active torsions:
REMARK  status: ('A' for Active; 'I' for Inactive)
REMARK    1  A    between atoms: O_4  and  C_11
REMARK    2  A    between atoms: O_5  and  C_14
REMARK    3  A    between atoms: N_6  and  C_9
REMARK    4  A    between atoms: N_6  and  C_15
REMARK    5  A    between atoms: N_6  and  C_16
REMARK    6  A    between atoms: N_7  and  C_13
REMARK    7  A    between atoms: N_7  and  C_17
REMARK    8  A    between atoms: N_7  and  C_18
REMARK    9  A    between atoms: C_10  and  C_13
REMARK   10  A    between atoms: C_12  and  C_14
REMARK   11  A    between atoms: C_15  and  C_19
REMARK   12  A    between atoms: C_17  and  C_20
REMARK   13  A    between atoms: C_18  and  C_21
REMARK   14  A    between atoms: C_19  and  C_22
REMARK                            x       y       z     vdW  Elec       q    Type
REMARK                         _______ _______ _______ _____ _____    ______ ____
ROOT
ATOM      3  O   UNL     1       2.833   1.761  23.347  0.00  0.00    -0.366 OA
ATOM      9  C   UNL     1       1.202   0.212  22.567  0.00  0.00    +0.118 C 
ATOM     10  C   UNL     1       1.427   1.444  23.454  0.00  0.00    +0.152 C 
ATOM     11  C   UNL     1       2.570  -0.452  22.550  0.00  0.00    +0.165 C 
ATOM     12  C   UNL     1       3.477   0.772  22.520  0.00  0.00    +0.174 C 
ENDROOT
BRANCH  11   4
ATOM      4  O   UNL     1       2.797  -1.209  23.731  0.00  0.00    -0.388 OA
ATOM     37  H   UNL     1       2.042  -1.060  24.326  0.00  0.00    +0.210 HD
ENDBRANCH  11   4
BRANCH   9   6
ATOM      6  N   UNL     1       0.098  -0.654  22.940  0.00  0.00    -0.297 NA
ATOM     16  C   UNL     1      -1.187  -0.042  22.588  0.00  0.00    +0.105 C 
BRANCH   6  15
ATOM     15  C   UNL     1       0.133  -0.957  24.374  0.00  0.00    +0.090 C 
BRANCH  15  19
ATOM     19  C   UNL     1      -0.819  -2.104  24.715  0.00  0.00    +0.071 C 
BRANCH  19  22
ATOM      8  N   UNL     1      -3.105  -2.356  23.917  0.00  0.00    -0.260 NA
ATOM     22  C   UNL     1      -2.258  -1.653  24.700  0.00  0.00    +0.042 A 
ATOM     27  C   UNL     1      -2.637  -0.566  25.473  0.00  0.00    +0.023 A 
ATOM     32  C   UNL     1      -3.971  -0.177  25.437  0.00  0.00    +0.003 A 
ATOM     35  C   UNL     1      -4.394  -1.948  23.907  0.00  0.00    +0.111 A 
ATOM     36  C   UNL     1      -4.872  -0.875  24.643  0.00  0.00    +0.020 A 
ENDBRANCH  19  22
ENDBRANCH  15  19
ENDBRANCH   6  15
ENDBRANCH   9   6
BRANCH  10  13
ATOM     13  C   UNL     1       1.111   1.285  24.937  0.00  0.00    +0.118 C 
BRANCH  13   7
ATOM      7  N   UNL     1       0.110   2.253  25.362  0.00  0.00    -0.291 NA
BRANCH   7  17
ATOM     17  C   UNL     1       0.734   3.353  26.100  0.00  0.00    +0.120 C 
BRANCH  17  20
ATOM      1  F   UNL     1       2.223   1.806  31.311  0.00  0.00    -0.205 F 
ATOM     20  C   UNL     1       1.132   2.939  27.493  0.00  0.00    -0.033 A 
ATOM     23  C   UNL     1       2.447   3.115  27.924  0.00  0.00    +0.008 A 
ATOM     25  C   UNL     1       0.186   2.381  28.353  0.00  0.00    +0.008 A 
ATOM     28  C   UNL     1       2.816   2.733  29.213  0.00  0.00    +0.038 A 
ATOM     30  C   UNL     1       0.554   1.998  29.642  0.00  0.00    +0.038 A 
ATOM     33  C   UNL     1       1.869   2.174  30.073  0.00  0.00    +0.123 A 
ENDBRANCH  17  20
ENDBRANCH   7  17
BRANCH   7  18
ATOM     18  C   UNL     1      -0.629   2.774  24.209  0.00  0.00    +0.120 C 
BRANCH  18  21
ATOM      2  F   UNL     1      -5.999   3.897  25.494  0.00  0.00    -0.205 F 
ATOM     21  C   UNL     1      -2.063   3.074  24.552  0.00  0.00    -0.033 A 
ATOM     24  C   UNL     1      -3.077   2.773  23.642  0.00  0.00    +0.008 A 
ATOM     26  C   UNL     1      -2.381   3.653  25.782  0.00  0.00    +0.008 A 
ATOM     29  C   UNL     1      -4.406   3.050  23.960  0.00  0.00    +0.038 A 
ATOM     31  C   UNL     1      -3.710   3.931  26.099  0.00  0.00    +0.038 A 
ATOM     34  C   UNL     1      -4.723   3.629  25.189  0.00  0.00    +0.123 A 
ENDBRANCH  18  21
ENDBRANCH   7  18
ENDBRANCH  13   7
ENDBRANCH  10  13
BRANCH  12  14
ATOM     14  C   UNL     1       4.893   0.548  23.020  0.00  0.00    +0.190 C 
BRANCH  14   5
ATOM      5  O   UNL     1       4.887   0.570  24.439  0.00  0.00    -0.392 OA
ATOM     38  H   UNL     1       4.227   1.230  24.712  0.00  0.00    +0.210 HD
ENDBRANCH  14   5
ENDBRANCH  12  14
TORSDOF 13
ENDMDL
MODEL 7
REMARK VINA RESULT:       1.3      1.556      2.354
REMARK  Name = 28961265
REMARK  14 active torsions:
REMARK  status: ('A' for Active; 'I' for Inactive)
REMARK    1  A    between atoms: O_4  and  C_11
REMARK    2  A    between atoms: O_5  and  C_14
REMARK    3  A    between atoms: N_6  and  C_9
REMARK    4  A    between atoms: N_6  and  C_15
REMARK    5  A    between atoms: N_6  and  C_16
REMARK    6  A    between atoms: N_7  and  C_13
REMARK    7  A    between atoms: N_7  and  C_17
REMARK    8  A    between atoms: N_7  and  C_18
REMARK    9  A    between atoms: C_10  and  C_13
REMARK   10  A    between atoms: C_12  and  C_14
REMARK   11  A    between atoms: C_15  and  C_19
REMARK   12  A    between atoms: C_17  and  C_20
REMARK   13  A    between atoms: C_18  and  C_21
REMARK   14  A    between atoms: C_19  and  C_22
REMARK                            x       y       z     vdW  Elec       q    Type
REMARK                         _______ _______ _______ _____ _____    ______ ____
ROOT
ATOM      3  O   UNL     1      -0.044   2.989  25.459  0.00  0.00    -0.366 OA
ATOM      9  C   UNL     1      -1.841   1.925  24.317  0.00  0.00    +0.118 C 
ATOM     10  C   UNL     1      -0.418   1.730  24.855  0.00  0.00    +0.152 C 
ATOM     11  C   UNL     1      -1.915   3.425  24.076  0.00  0.00    +0.165 C 
ATOM     12  C   UNL     1      -1.109   3.940  25.262  0.00  0.00    +0.174 C 
ENDROOT
BRANCH  11   4
ATOM      4  O   UNL     1      -1.287   3.787  22.854  0.00  0.00    -0.388 OA
ATOM     37  H   UNL     1      -0.358   3.503  22.903  0.00  0.00    +0.210 HD
ENDBRANCH  11   4
BRANCH   9   6
ATOM      6  N   UNL     1      -2.219   1.096  23.186  0.00  0.00    -0.297 NA
ATOM     16  C   UNL     1      -2.403   1.910  21.980  0.00  0.00    +0.105 C 
BRANCH   6  15
ATOM     15  C   UNL     1      -3.445   0.345  23.475  0.00  0.00    +0.090 C 
BRANCH  15  19
ATOM     19  C   UNL     1      -3.816   0.451  24.955  0.00  0.00    +0.071 C 
BRANCH  19  22
ATOM      8  N   UNL     1      -4.238   2.724  25.718  0.00  0.00    -0.260 NA
ATOM     22  C   UNL     1      -4.769   1.592  25.206  0.00  0.00    +0.042 A 
ATOM     27  C   UNL     1      -6.113   1.431  24.908  0.00  0.00    +0.023 A 
ATOM     32  C   UNL     1      -6.965   2.502  25.150  0.00  0.00    +0.003 A 
ATOM     35  C   UNL     1      -5.097   3.744  25.941  0.00  0.00    +0.111 A 
ATOM     36  C   UNL     1      -6.457   3.684  25.676  0.00  0.00    +0.020 A 
ENDBRANCH  19  22
ENDBRANCH  15  19
ENDBRANCH   6  15
ENDBRANCH   9   6
BRANCH  10  13
ATOM     13  C   UNL     1       0.658   1.383  23.831  0.00  0.00    +0.118 C 
BRANCH  13   7
ATOM      7  N   UNL     1       0.468   0.037  23.314  0.00  0.00    -0.291 NA
BRANCH   7  17
ATOM     17  C   UNL     1       1.449  -0.259  22.267  0.00  0.00    +0.120 C 
BRANCH  17  20
ATOM      1  F   UNL     1       6.729  -0.081  24.230  0.00  0.00    -0.205 F 
ATOM     20  C   UNL     1       2.860  -0.212  22.791  0.00  0.00    -0.033 A 
ATOM     23  C   UNL     1       3.619   0.950  22.648  0.00  0.00    +0.008 A 
ATOM     25  C   UNL     1       3.409  -1.328  23.422  0.00  0.00    +0.008 A 
ATOM     28  C   UNL     1       4.926   0.995  23.134  0.00  0.00    +0.038 A 
ATOM     30  C   UNL     1       4.715  -1.285  23.907  0.00  0.00    +0.038 A 
ATOM     33  C   UNL     1       5.474  -0.123  23.764  0.00  0.00    +0.123 A 
ENDBRANCH  17  20
ENDBRANCH   7  17
BRANCH   7  18
ATOM     18  C   UNL     1       0.567  -0.952  24.391  0.00  0.00    +0.120 C 
BRANCH  18  21
ATOM      2  F   UNL     1      -4.302  -3.672  25.193  0.00  0.00    -0.205 F 
ATOM     21  C   UNL     1      -0.733  -1.679  24.606  0.00  0.00    -0.033 A 
ATOM     24  C   UNL     1      -1.246  -2.503  23.604  0.00  0.00    +0.008 A 
ATOM     26  C   UNL     1      -1.428  -1.528  25.807  0.00  0.00    +0.008 A 
ATOM     29  C   UNL     1      -2.451  -3.177  23.802  0.00  0.00    +0.038 A 
ATOM     31  C   UNL     1      -2.633  -2.201  26.004  0.00  0.00    +0.038 A 
ATOM     34  C   UNL     1      -3.144  -3.026  25.003  0.00  0.00    +0.123 A 
ENDBRANCH  18  21
ENDBRANCH   7  18
ENDBRANCH  13   7
ENDBRANCH  10  13
BRANCH  12  14
ATOM     14  C   UNL     1      -0.515   5.327  25.094  0.00  0.00    +0.190 C 
BRANCH  14   5
ATOM      5  O   UNL     1      -1.572   6.266  24.976  0.00  0.00    -0.392 OA
ATOM     38  H   UNL     1      -2.167   5.941  24.279  0.00  0.00    +0.210 HD
ENDBRANCH  14   5
ENDBRANCH  12  14
TORSDOF 13
ENDMDL
MODEL 8
REMARK VINA RESULT:       1.8      2.819      5.627
REMARK  Name = 28961265
REMARK  14 active torsions:
REMARK  status: ('A' for Active; 'I' for Inactive)
REMARK    1  A    between atoms: O_4  and  C_11
REMARK    2  A    between atoms: O_5  and  C_14
REMARK    3  A    between atoms: N_6  and  C_9
REMARK    4  A    between atoms: N_6  and  C_15
REMARK    5  A    between atoms: N_6  and  C_16
REMARK    6  A    between atoms: N_7  and  C_13
REMARK    7  A    between atoms: N_7  and  C_17
REMARK    8  A    between atoms: N_7  and  C_18
REMARK    9  A    between atoms: C_10  and  C_13
REMARK   10  A    between atoms: C_12  and  C_14
REMARK   11  A    between atoms: C_15  and  C_19
REMARK   12  A    between atoms: C_17  and  C_20
REMARK   13  A    between atoms: C_18  and  C_21
REMARK   14  A    between atoms: C_19  and  C_22
REMARK                            x       y       z     vdW  Elec       q    Type
REMARK                         _______ _______ _______ _____ _____    ______ ____
ROOT
ATOM      3  O   UNL     1       0.803   1.158  23.149  0.00  0.00    -0.366 OA
ATOM      9  C   UNL     1      -0.421  -0.844  23.551  0.00  0.00    +0.118 C 
ATOM     10  C   UNL     1      -0.324   0.648  23.896  0.00  0.00    +0.152 C 
ATOM     11  C   UNL     1       1.006  -1.200  23.165  0.00  0.00    +0.165 C 
ATOM     12  C   UNL     1       1.428   0.070  22.438  0.00  0.00    +0.174 C 
ENDROOT
BRANCH  11   4
ATOM      4  O   UNL     1       1.819  -1.408  24.313  0.00  0.00    -0.388 OA
ATOM     37  H   UNL     1       1.712  -2.334  24.588  0.00  0.00    +0.210 HD
ENDBRANCH  11   4
BRANCH   9   6
ATOM      6  N   UNL     1      -1.022  -1.699  24.559  0.00  0.00    -0.297 NA
ATOM     16  C   UNL     1      -0.033  -2.095  25.566  0.00  0.00    +0.105 C 
BRANCH   6  15
ATOM     15  C   UNL     1      -1.618  -2.890  23.946  0.00  0.00    +0.090 C 
BRANCH  15  19
ATOM     19  C   UNL     1      -3.076  -3.056  24.375  0.00  0.00    +0.071 C 
BRANCH  19  22
ATOM      8  N   UNL     1      -3.551  -1.318  26.012  0.00  0.00    -0.260 NA
ATOM     22  C   UNL     1      -3.703  -1.733  24.735  0.00  0.00    +0.042 A 
ATOM     27  C   UNL     1      -4.388  -1.020  23.763  0.00  0.00    +0.023 A 
ATOM     32  C   UNL     1      -4.952   0.197  24.128  0.00  0.00    +0.003 A 
ATOM     35  C   UNL     1      -4.114  -0.131  26.329  0.00  0.00    +0.111 A 
ATOM     36  C   UNL     1      -4.818   0.657  25.432  0.00  0.00    +0.020 A 
ENDBRANCH  19  22
ENDBRANCH  15  19
ENDBRANCH   6  15
ENDBRANCH   9   6
BRANCH  10  13
ATOM     13  C   UNL     1      -0.089   0.996  25.362  0.00  0.00    +0.118 C 
BRANCH  13   7
ATOM      7  N   UNL     1      -0.511   2.358  25.647  0.00  0.00    -0.291 NA
BRANCH   7  17
ATOM     17  C   UNL     1       0.627   3.174  26.077  0.00  0.00    +0.120 C 
BRANCH  17  20
ATOM      1  F   UNL     1       2.282   1.877  31.305  0.00  0.00    -0.205 F 
ATOM     20  C   UNL     1       1.069   2.828  27.474  0.00  0.00    -0.033 A 
ATOM     23  C   UNL     1       0.138   2.374  28.409  0.00  0.00    +0.008 A 
ATOM     25  C   UNL     1       2.410   2.959  27.834  0.00  0.00    +0.008 A 
ATOM     28  C   UNL     1       0.547   2.053  29.703  0.00  0.00    +0.038 A 
ATOM     30  C   UNL     1       2.820   2.638  29.128  0.00  0.00    +0.038 A 
ATOM     33  C   UNL     1       1.889   2.184  30.063  0.00  0.00    +0.123 A 
ENDBRANCH  17  20
ENDBRANCH   7  17
BRANCH   7  18
ATOM     18  C   UNL     1      -1.149   2.960  24.473  0.00  0.00    +0.120 C 
BRANCH  18  21
ATOM      2  F   UNL     1      -6.399   4.676  25.586  0.00  0.00    -0.205 F 
ATOM     21  C   UNL     1      -2.551   3.419  24.770  0.00  0.00    -0.033 A 
ATOM     24  C   UNL     1      -2.906   3.783  26.069  0.00  0.00    +0.008 A 
ATOM     26  C   UNL     1      -3.498   3.480  23.746  0.00  0.00    +0.008 A 
ATOM     29  C   UNL     1      -4.205   4.208  26.345  0.00  0.00    +0.038 A 
ATOM     31  C   UNL     1      -4.797   3.904  24.022  0.00  0.00    +0.038 A 
ATOM     34  C   UNL     1      -5.151   4.269  25.321  0.00  0.00    +0.123 A 
ENDBRANCH  18  21
ENDBRANCH   7  18
ENDBRANCH  13   7
ENDBRANCH  10  13
BRANCH  12  14
ATOM     14  C   UNL     1       2.924   0.316  22.364  0.00  0.00    +0.190 C 
BRANCH  14   5
ATOM      5  O   UNL     1       3.302   1.167  23.435  0.00  0.00    -0.392 OA
ATOM     38  H   UNL     1       2.608   1.843  23.522  0.00  0.00    +0.210 HD
ENDBRANCH  14   5
ENDBRANCH  12  14
TORSDOF 13
ENDMDL
MODEL 9
REMARK VINA RESULT:       1.8      2.317      8.230
REMARK  Name = 28961265
REMARK  14 active torsions:
REMARK  status: ('A' for Active; 'I' for Inactive)
REMARK    1  A    between atoms: O_4  and  C_11
REMARK    2  A    between atoms: O_5  and  C_14
REMARK    3  A    between atoms: N_6  and  C_9
REMARK    4  A    between atoms: N_6  and  C_15
REMARK    5  A    between atoms: N_6  and  C_16
REMARK    6  A    between atoms: N_7  and  C_13
REMARK    7  A    between atoms: N_7  and  C_17
REMARK    8  A    between atoms: N_7  and  C_18
REMARK    9  A    between atoms: C_10  and  C_13
REMARK   10  A    between atoms: C_12  and  C_14
REMARK   11  A    between atoms: C_15  and  C_19
REMARK   12  A    between atoms: C_17  and  C_20
REMARK   13  A    between atoms: C_18  and  C_21
REMARK   14  A    between atoms: C_19  and  C_22
REMARK                            x       y       z     vdW  Elec       q    Type
REMARK                         _______ _______ _______ _____ _____    ______ ____
ROOT
ATOM      3  O   UNL     1      -1.548   0.161  26.030  0.00  0.00    -0.366 OA
ATOM      9  C   UNL     1      -0.223  -0.350  24.120  0.00  0.00    +0.118 C 
ATOM     10  C   UNL     1      -0.513   0.714  25.186  0.00  0.00    +0.152 C 
ATOM     11  C   UNL     1      -1.530  -1.124  24.042  0.00  0.00    +0.165 C 
ATOM     12  C   UNL     1      -1.946  -1.122  25.507  0.00  0.00    +0.174 C 
ENDROOT
BRANCH  11   4
ATOM      4  O   UNL     1      -2.493  -0.439  23.252  0.00  0.00    -0.388 OA
ATOM     37  H   UNL     1      -2.116   0.423  23.008  0.00  0.00    +0.210 HD
ENDBRANCH  11   4
BRANCH   9   6
ATOM      6  N   UNL     1       0.287   0.136  22.850  0.00  0.00    -0.297 NA
ATOM     16  C   UNL     1       0.534  -0.976  21.926  0.00  0.00    +0.105 C 
BRANCH   6  15
ATOM     15  C   UNL     1       1.517   0.911  23.043  0.00  0.00    +0.090 C 
BRANCH  15  19
ATOM     19  C   UNL     1       2.637   0.394  22.139  0.00  0.00    +0.071 C 
BRANCH  19  22
ATOM      8  N   UNL     1       3.833  -1.322  23.385  0.00  0.00    -0.260 NA
ATOM     22  C   UNL     1       3.836  -0.046  22.941  0.00  0.00    +0.042 A 
ATOM     27  C   UNL     1       4.862   0.856  23.178  0.00  0.00    +0.023 A 
ATOM     32  C   UNL     1       5.954   0.418  23.919  0.00  0.00    +0.003 A 
ATOM     35  C   UNL     1       4.910  -1.711  24.103  0.00  0.00    +0.111 A 
ATOM     36  C   UNL     1       5.987  -0.887  24.394  0.00  0.00    +0.020 A 
ENDBRANCH  19  22
ENDBRANCH  15  19
ENDBRANCH   6  15
ENDBRANCH   9   6
BRANCH  10  13
ATOM     13  C   UNL     1      -1.012   2.065  24.685  0.00  0.00    +0.118 C 
BRANCH  13   7
ATOM      7  N   UNL     1      -0.926   3.072  25.731  0.00  0.00    -0.291 NA
BRANCH   7  17
ATOM     17  C   UNL     1      -1.985   4.072  25.577  0.00  0.00    +0.120 C 
BRANCH  17  20
ATOM      1  F   UNL     1      -7.008   1.682  24.674  0.00  0.00    -0.205 F 
ATOM     20  C   UNL     1      -3.327   3.434  25.336  0.00  0.00    -0.033 A 
ATOM     23  C   UNL     1      -3.556   2.711  24.164  0.00  0.00    +0.008 A 
ATOM     25  C   UNL     1      -4.343   3.563  26.283  0.00  0.00    +0.008 A 
ATOM     28  C   UNL     1      -4.799   2.119  23.940  0.00  0.00    +0.038 A 
ATOM     30  C   UNL     1      -5.586   2.972  26.060  0.00  0.00    +0.038 A 
ATOM     33  C   UNL     1      -5.814   2.249  24.888  0.00  0.00    +0.123 A 
ENDBRANCH  17  20
ENDBRANCH   7  17
BRANCH   7  18
ATOM     18  C   UNL     1      -1.007   2.451  27.057  0.00  0.00    +0.120 C 
BRANCH  18  21
ATOM      2  F   UNL     1       3.780   3.076  29.963  0.00  0.00    -0.205 F 
ATOM     21  C   UNL     1       0.271   2.619  27.833  0.00  0.00    -0.033 A 
ATOM     24  C   UNL     1       1.436   3.025  27.181  0.00  0.00    +0.008 A 
ATOM     26  C   UNL     1       0.293   2.367  29.206  0.00  0.00    +0.008 A 
ATOM     29  C   UNL     1       2.621   3.180  27.900  0.00  0.00    +0.038 A 
ATOM     31  C   UNL     1       1.478   2.522  29.924  0.00  0.00    +0.038 A 
ATOM     34  C   UNL     1       2.641   2.928  29.272  0.00  0.00    +0.123 A 
ENDBRANCH  18  21
ENDBRANCH   7  18
ENDBRANCH  13   7
ENDBRANCH  10  13
BRANCH  12  14
ATOM     14  C   UNL     1      -3.427  -1.330  25.766  0.00  0.00    +0.190 C 
BRANCH  14   5
ATOM      5  O   UNL     1      -3.894  -2.382  24.937  0.00  0.00    -0.392 OA
ATOM     38  H   UNL     1      -4.850  -2.468  25.094  0.00  0.00    +0.210 HD
ENDBRANCH  14   5
ENDBRANCH  12  14
TORSDOF 13
ENDMDL
MODEL 10
REMARK VINA RESULT:       1.9      2.753      6.791
REMARK  Name = 28961265
REMARK  14 active torsions:
REMARK  status: ('A' for Active; 'I' for Inactive)
REMARK    1  A    between atoms: O_4  and  C_11
REMARK    2  A    between atoms: O_5  and  C_14
REMARK    3  A    between atoms: N_6  and  C_9
REMARK    4  A    between atoms: N_6  and  C_15
REMARK    5  A    between atoms: N_6  and  C_16
REMARK    6  A    between atoms: N_7  and  C_13
REMARK    7  A    between atoms: N_7  and  C_17
REMARK    8  A    between atoms: N_7  and  C_18
REMARK    9  A    between atoms: C_10  and  C_13
REMARK   10  A    between atoms: C_12  and  C_14
REMARK   11  A    between atoms: C_15  and  C_19
REMARK   12  A    between atoms: C_17  and  C_20
REMARK   13  A    between atoms: C_18  and  C_21
REMARK   14  A    between atoms: C_19  and  C_22
REMARK                            x       y       z     vdW  Elec       q    Type
REMARK                         _______ _______ _______ _____ _____    ______ ____
ROOT
ATOM      3  O   UNL     1       3.022   1.712  23.222  0.00  0.00    -0.366 OA
ATOM      9  C   UNL     1       1.364   0.143  22.547  0.00  0.00    +0.118 C 
ATOM     10  C   UNL     1       1.600   1.466  23.288  0.00  0.00    +0.152 C 
ATOM     11  C   UNL     1       2.700  -0.571  22.686  0.00  0.00    +0.165 C 
ATOM     12  C   UNL     1       3.662   0.604  22.559  0.00  0.00    +0.174 C 
ENDROOT
BRANCH  11   4
ATOM      4  O   UNL     1       2.831  -1.184  23.962  0.00  0.00    -0.388 OA
ATOM     37  H   UNL     1       3.562  -1.823  23.908  0.00  0.00    +0.210 HD
ENDBRANCH  11   4
BRANCH   9   6
ATOM      6  N   UNL     1       0.204  -0.627  22.959  0.00  0.00    -0.297 NA
ATOM     16  C   UNL     1      -1.034   0.000  22.486  0.00  0.00    +0.105 C 
BRANCH   6  15
ATOM     15  C   UNL     1       0.166  -0.772  24.418  0.00  0.00    +0.090 C 
BRANCH  15  19
ATOM     19  C   UNL     1      -0.691  -1.971  24.827  0.00  0.00    +0.071 C 
BRANCH  19  22
ATOM      8  N   UNL     1      -2.919  -2.457  23.976  0.00  0.00    -0.260 NA
ATOM     22  C   UNL     1      -2.162  -1.651  24.754  0.00  0.00    +0.042 A 
ATOM     27  C   UNL     1      -2.659  -0.574  25.470  0.00  0.00    +0.023 A 
ATOM     32  C   UNL     1      -4.021  -0.307  25.381  0.00  0.00    +0.003 A 
ATOM     35  C   UNL     1      -4.238  -2.167  23.914  0.00  0.00    +0.111 A 
ATOM     36  C   UNL     1      -4.832  -1.113  24.592  0.00  0.00    +0.020 A 
ENDBRANCH  19  22
ENDBRANCH  15  19
ENDBRANCH   6  15
ENDBRANCH   9   6
BRANCH  10  13
ATOM     13  C   UNL     1       1.202   1.504  24.759  0.00  0.00    +0.118 C 
BRANCH  13   7
ATOM      7  N   UNL     1       0.497   2.737  25.076  0.00  0.00    -0.291 NA
BRANCH   7  17
ATOM     17  C   UNL     1      -0.381   3.130  23.971  0.00  0.00    +0.120 C 
BRANCH  17  20
ATOM      1  F   UNL     1      -5.716   3.784  25.664  0.00  0.00    -0.205 F 
ATOM     20  C   UNL     1      -1.807   3.305  24.424  0.00  0.00    -0.033 A 
ATOM     23  C   UNL     1      -2.838   2.651  23.749  0.00  0.00    +0.008 A 
ATOM     25  C   UNL     1      -2.097   4.120  25.518  0.00  0.00    +0.008 A 
ATOM     28  C   UNL     1      -4.159   2.812  24.167  0.00  0.00    +0.038 A 
ATOM     30  C   UNL     1      -3.417   4.282  25.937  0.00  0.00    +0.038 A 
ATOM     33  C   UNL     1      -4.449   3.628  25.262  0.00  0.00    +0.123 A 
ENDBRANCH  17  20
ENDBRANCH   7  17
BRANCH   7  18
ATOM     18  C   UNL     1      -0.280   2.587  26.310  0.00  0.00    +0.120 C 
BRANCH  18  21
ATOM      2  F   UNL     1       3.030   2.446  30.867  0.00  0.00    -0.205 F 
ATOM     21  C   UNL     1       0.604   2.549  27.527  0.00  0.00    -0.033 A 
ATOM     24  C   UNL     1       0.105   2.069  28.738  0.00  0.00    +0.008 A 
ATOM     26  C   UNL     1       1.924   2.994  27.446  0.00  0.00    +0.008 A 
ATOM     29  C   UNL     1       0.924   2.034  29.866  0.00  0.00    +0.038 A 
ATOM     31  C   UNL     1       2.743   2.959  28.574  0.00  0.00    +0.038 A 
ATOM     34  C   UNL     1       2.243   2.479  29.784  0.00  0.00    +0.123 A 
ENDBRANCH  18  21
ENDBRANCH   7  18
ENDBRANCH  13   7
ENDBRANCH  10  13
BRANCH  12  14
ATOM     14  C   UNL     1       5.039   0.388  23.160  0.00  0.00    +0.190 C 
BRANCH  14   5
ATOM      5  O   UNL     1       4.966   0.606  24.560  0.00  0.00    -0.392 OA
ATOM     38  H   UNL     1       4.705  -0.237  24.968  0.00  0.00    +0.210 HD
ENDBRANCH  14   5
ENDBRANCH  12  14
TORSDOF 13
ENDMDL
