MODEL 1
REMARK VINA RESULT:      -5.0      0.000      0.000
REMARK  Name = 40777855
REMARK  7 active torsions:
REMARK  status: ('A' for Active; 'I' for Inactive)
REMARK    1  A    between atoms: O_3  and  C_10
REMARK    2  A    between atoms: O_4  and  C_11
REMARK    3  A    between atoms: N_8  and  C_14
REMARK    4  A    between atoms: C_9  and  C_13
REMARK    5  A    between atoms: C_12  and  C_14
REMARK    6  A    between atoms: C_13  and  C_15
REMARK    7  A    between atoms: C_22  and  C_25
REMARK                            x       y       z     vdW  Elec       q    Type
REMARK                         _______ _______ _______ _____ _____    ______ ____
ROOT
ATOM      2  O   UNL     1      -2.497   2.883  23.765  0.00  0.00    -0.366 OA
ATOM      9  C   UNL     1      -2.932   3.737  24.848  0.00  0.00    +0.159 C 
ATOM     10  C   UNL     1      -1.667   4.223  25.547  0.00  0.00    +0.175 C 
ATOM     11  C   UNL     1      -0.703   3.083  25.283  0.00  0.00    +0.176 C 
ATOM     12  C   UNL     1      -1.074   2.694  23.862  0.00  0.00    +0.167 C 
ENDROOT
BRANCH  10   3
ATOM      3  O   UNL     1      -1.225   5.407  24.887  0.00  0.00    -0.387 OA
ATOM     31  H   UNL     1      -1.786   6.139  25.196  0.00  0.00    +0.210 HD
ENDBRANCH  10   3
BRANCH  11   4
ATOM      4  O   UNL     1       0.653   3.461  25.392  0.00  0.00    -0.387 OA
ATOM     32  H   UNL     1       1.186   2.745  25.004  0.00  0.00    +0.210 HD
ENDBRANCH  11   4
BRANCH   9  13
ATOM     13  C   UNL     1      -3.835   2.913  25.757  0.00  0.00    +0.130 C 
BRANCH  13  15
ATOM      5  O   UNL     1      -5.253   1.656  24.333  0.00  0.00    -0.275 OA
ATOM      7  N   UNL     1      -3.437   0.548  25.289  0.00  0.00    -0.271 N 
ATOM     15  C   UNL     1      -4.254   1.644  25.051  0.00  0.00    +0.222 C 
ATOM     16  C   UNL     1      -2.236   0.536  26.152  0.00  0.00    +0.118 C 
ATOM     17  C   UNL     1      -1.648  -0.877  26.115  0.00  0.00    +0.056 C 
ATOM     18  C   UNL     1      -3.609  -0.744  24.753  0.00  0.00    +0.039 A 
ATOM     19  C   UNL     1      -2.597  -1.591  25.209  0.00  0.00    -0.024 A 
ATOM     20  C   UNL     1      -4.592  -1.218  23.896  0.00  0.00    +0.024 A 
ATOM     21  C   UNL     1      -2.541  -2.922  24.824  0.00  0.00    +0.005 A 
ATOM     23  C   UNL     1      -4.544  -2.559  23.504  0.00  0.00    +0.002 A 
ATOM     24  C   UNL     1      -3.526  -3.405  23.963  0.00  0.00    +0.000 A 
ENDBRANCH  13  15
ENDBRANCH   9  13
BRANCH  12  14
ATOM     14  C   UNL     1      -0.725   1.256  23.521  0.00  0.00    +0.138 C 
BRANCH  14   8
ATOM      6  O   UNL     1       0.918  -0.348  21.797  0.00  0.00    -0.270 OA
ATOM      8  N   UNL     1       0.682   1.019  23.657  0.00  0.00    -0.309 N 
ATOM     22  C   UNL     1       1.402   0.224  22.770  0.00  0.00    +0.244 C 
ATOM     33  H   UNL     1       1.156   1.507  24.410  0.00  0.00    +0.149 HD
BRANCH  22  25
ATOM      1  F   UNL     1       5.154  -2.512  24.216  0.00  0.00    -0.205 F 
ATOM     25  C   UNL     1       2.849   0.056  23.065  0.00  0.00    +0.039 A 
ATOM     26  C   UNL     1       3.332  -1.174  23.511  0.00  0.00    +0.051 A 
ATOM     27  C   UNL     1       3.724   1.130  22.895  0.00  0.00    +0.013 A 
ATOM     28  C   UNL     1       4.690  -1.331  23.787  0.00  0.00    +0.124 A 
ATOM     29  C   UNL     1       5.082   0.972  23.172  0.00  0.00    +0.004 A 
ATOM     30  C   UNL     1       5.565  -0.257  23.617  0.00  0.00    +0.038 A 
ENDBRANCH  22  25
ENDBRANCH  14   8
ENDBRANCH  12  14
TORSDOF 7
ENDMDL
MODEL 2
REMARK VINA RESULT:      -3.7      2.463      6.068
REMARK  Name = 40777855
REMARK  7 active torsions:
REMARK  status: ('A' for Active; 'I' for Inactive)
REMARK    1  A    between atoms: O_3  and  C_10
REMARK    2  A    between atoms: O_4  and  C_11
REMARK    3  A    between atoms: N_8  and  C_14
REMARK    4  A    between atoms: C_9  and  C_13
REMARK    5  A    between atoms: C_12  and  C_14
REMARK    6  A    between atoms: C_13  and  C_15
REMARK    7  A    between atoms: C_22  and  C_25
REMARK                            x       y       z     vdW  Elec       q    Type
REMARK                         _______ _______ _______ _____ _____    ______ ____
ROOT
ATOM      2  O   UNL     1      -3.161   3.621  26.723  0.00  0.00    -0.366 OA
ATOM      9  C   UNL     1      -1.787   3.674  26.276  0.00  0.00    +0.159 C 
ATOM     10  C   UNL     1      -1.810   4.320  24.895  0.00  0.00    +0.175 C 
ATOM     11  C   UNL     1      -3.181   3.926  24.385  0.00  0.00    +0.176 C 
ATOM     12  C   UNL     1      -4.019   4.041  25.647  0.00  0.00    +0.167 C 
ENDROOT
BRANCH  10   3
ATOM      3  O   UNL     1      -1.732   5.734  25.067  0.00  0.00    -0.387 OA
ATOM     31  H   UNL     1      -1.111   5.905  25.795  0.00  0.00    +0.210 HD
ENDBRANCH  10   3
BRANCH  11   4
ATOM      4  O   UNL     1      -3.657   4.767  23.356  0.00  0.00    -0.387 OA
ATOM     32  H   UNL     1      -3.866   4.202  22.592  0.00  0.00    +0.210 HD
ENDBRANCH  11   4
BRANCH   9  13
ATOM     13  C   UNL     1      -1.247   2.250  26.259  0.00  0.00    +0.130 C 
BRANCH  13  15
ATOM      5  O   UNL     1       0.945   3.016  25.784  0.00  0.00    -0.275 OA
ATOM      7  N   UNL     1       0.140   1.218  24.533  0.00  0.00    -0.271 N 
ATOM     15  C   UNL     1       0.061   2.206  25.504  0.00  0.00    +0.222 C 
ATOM     16  C   UNL     1      -0.923   0.246  24.200  0.00  0.00    +0.118 C 
ATOM     17  C   UNL     1      -0.398  -0.655  23.079  0.00  0.00    +0.056 C 
ATOM     18  C   UNL     1       1.247   0.968  23.695  0.00  0.00    +0.039 A 
ATOM     19  C   UNL     1       0.970  -0.104  22.844  0.00  0.00    -0.024 A 
ATOM     20  C   UNL     1       2.470   1.619  23.636  0.00  0.00    +0.024 A 
ATOM     21  C   UNL     1       1.902  -0.549  21.919  0.00  0.00    +0.005 A 
ATOM     23  C   UNL     1       3.415   1.177  22.705  0.00  0.00    +0.002 A 
ATOM     24  C   UNL     1       3.134   0.100  21.853  0.00  0.00    +0.000 A 
ENDBRANCH  13  15
ENDBRANCH   9  13
BRANCH  12  14
ATOM     14  C   UNL     1      -5.267   3.175  25.621  0.00  0.00    +0.138 C 
BRANCH  14   8
ATOM      6  O   UNL     1      -4.056   1.688  23.485  0.00  0.00    -0.270 OA
ATOM      8  N   UNL     1      -4.932   1.783  25.632  0.00  0.00    -0.309 N 
ATOM     22  C   UNL     1      -4.343   1.140  24.546  0.00  0.00    +0.244 C 
ATOM     33  H   UNL     1      -5.092   1.281  26.499  0.00  0.00    +0.149 HD
BRANCH  22  25
ATOM      1  F   UNL     1      -4.547  -3.423  22.876  0.00  0.00    -0.205 F 
ATOM     25  C   UNL     1      -4.082  -0.314  24.707  0.00  0.00    +0.039 A 
ATOM     26  C   UNL     1      -4.445  -1.204  23.696  0.00  0.00    +0.051 A 
ATOM     27  C   UNL     1      -3.473  -0.789  25.869  0.00  0.00    +0.013 A 
ATOM     28  C   UNL     1      -4.198  -2.568  23.847  0.00  0.00    +0.124 A 
ATOM     29  C   UNL     1      -3.228  -2.154  26.020  0.00  0.00    +0.004 A 
ATOM     30  C   UNL     1      -3.590  -3.043  25.009  0.00  0.00    +0.038 A 
ENDBRANCH  22  25
ENDBRANCH  14   8
ENDBRANCH  12  14
TORSDOF 7
ENDMDL
MODEL 3
REMARK VINA RESULT:      -3.4      1.981      4.865
REMARK  Name = 40777855
REMARK  7 active torsions:
REMARK  status: ('A' for Active; 'I' for Inactive)
REMARK    1  A    between atoms: O_3  and  C_10
REMARK    2  A    between atoms: O_4  and  C_11
REMARK    3  A    between atoms: N_8  and  C_14
REMARK    4  A    between atoms: C_9  and  C_13
REMARK    5  A    between atoms: C_12  and  C_14
REMARK    6  A    between atoms: C_13  and  C_15
REMARK    7  A    between atoms: C_22  and  C_25
REMARK                            x       y       z     vdW  Elec       q    Type
REMARK                         _______ _______ _______ _____ _____    ______ ____
ROOT
ATOM      2  O   UNL     1      -3.654  -0.867  25.938  0.00  0.00    -0.366 OA
ATOM      9  C   UNL     1      -4.574  -1.342  24.929  0.00  0.00    +0.159 C 
ATOM     10  C   UNL     1      -3.808  -2.363  24.096  0.00  0.00    +0.175 C 
ATOM     11  C   UNL     1      -2.381  -1.867  24.224  0.00  0.00    +0.176 C 
ATOM     12  C   UNL     1      -2.348  -1.408  25.672  0.00  0.00    +0.167 C 
ENDROOT
BRANCH  10   3
ATOM      3  O   UNL     1      -3.946  -3.638  24.720  0.00  0.00    -0.387 OA
ATOM     31  H   UNL     1      -3.430  -3.616  25.544  0.00  0.00    +0.210 HD
ENDBRANCH  10   3
BRANCH  11   4
ATOM      4  O   UNL     1      -1.417  -2.864  23.962  0.00  0.00    -0.387 OA
ATOM     32  H   UNL     1      -0.854  -2.938  24.752  0.00  0.00    +0.210 HD
ENDBRANCH  11   4
BRANCH   9  13
ATOM     13  C   UNL     1      -5.040  -0.140  24.119  0.00  0.00    +0.130 C 
BRANCH  13  15
ATOM      5  O   UNL     1      -5.268   1.491  25.824  0.00  0.00    -0.275 OA
ATOM      7  N   UNL     1      -3.574   1.811  24.251  0.00  0.00    -0.271 N 
ATOM     15  C   UNL     1      -4.644   1.138  24.823  0.00  0.00    +0.222 C 
ATOM     16  C   UNL     1      -2.827   1.384  23.049  0.00  0.00    +0.118 C 
ATOM     17  C   UNL     1      -1.732   2.421  22.786  0.00  0.00    +0.056 C 
ATOM     18  C   UNL     1      -3.015   3.020  24.714  0.00  0.00    +0.039 A 
ATOM     19  C   UNL     1      -1.952   3.401  23.892  0.00  0.00    -0.024 A 
ATOM     20  C   UNL     1      -3.379   3.798  25.803  0.00  0.00    +0.024 A 
ATOM     21  C   UNL     1      -1.231   4.560  24.136  0.00  0.00    +0.005 A 
ATOM     23  C   UNL     1      -2.658   4.969  26.056  0.00  0.00    +0.002 A 
ATOM     24  C   UNL     1      -1.592   5.348  25.229  0.00  0.00    +0.000 A 
ENDBRANCH  13  15
ENDBRANCH   9  13
BRANCH  12  14
ATOM     14  C   UNL     1      -1.292  -0.351  25.944  0.00  0.00    +0.138 C 
BRANCH  14   8
ATOM      6  O   UNL     1       0.360   1.845  25.113  0.00  0.00    -0.270 OA
ATOM      8  N   UNL     1      -0.258  -0.386  24.953  0.00  0.00    -0.309 N 
ATOM     22  C   UNL     1       0.498   0.732  24.611  0.00  0.00    +0.244 C 
ATOM     33  H   UNL     1      -0.054  -1.289  24.536  0.00  0.00    +0.149 HD
BRANCH  22  25
ATOM      1  F   UNL     1       5.010   1.304  22.886  0.00  0.00    -0.205 F 
ATOM     25  C   UNL     1       1.514   0.537  23.545  0.00  0.00    +0.039 A 
ATOM     26  C   UNL     1       2.810   1.023  23.720  0.00  0.00    +0.051 A 
ATOM     27  C   UNL     1       1.172  -0.131  22.370  0.00  0.00    +0.013 A 
ATOM     28  C   UNL     1       3.765   0.838  22.719  0.00  0.00    +0.124 A 
ATOM     29  C   UNL     1       2.127  -0.315  21.368  0.00  0.00    +0.004 A 
ATOM     30  C   UNL     1       3.422   0.170  21.543  0.00  0.00    +0.038 A 
ENDBRANCH  22  25
ENDBRANCH  14   8
ENDBRANCH  12  14
TORSDOF 7
ENDMDL
MODEL 4
REMARK VINA RESULT:      -2.9      2.012      4.942
REMARK  Name = 40777855
REMARK  7 active torsions:
REMARK  status: ('A' for Active; 'I' for Inactive)
REMARK    1  A    between atoms: O_3  and  C_10
REMARK    2  A    between atoms: O_4  and  C_11
REMARK    3  A    between atoms: N_8  and  C_14
REMARK    4  A    between atoms: C_9  and  C_13
REMARK    5  A    between atoms: C_12  and  C_14
REMARK    6  A    between atoms: C_13  and  C_15
REMARK    7  A    between atoms: C_22  and  C_25
REMARK                            x       y       z     vdW  Elec       q    Type
REMARK                         _______ _______ _______ _____ _____    ______ ____
ROOT
ATOM      2  O   UNL     1      -3.532  -0.604  25.736  0.00  0.00    -0.366 OA
ATOM      9  C   UNL     1      -4.303  -1.273  24.712  0.00  0.00    +0.159 C 
ATOM     10  C   UNL     1      -3.488  -2.488  24.284  0.00  0.00    +0.175 C 
ATOM     11  C   UNL     1      -2.070  -2.026  24.552  0.00  0.00    +0.176 C 
ATOM     12  C   UNL     1      -2.245  -1.238  25.840  0.00  0.00    +0.167 C 
ENDROOT
BRANCH  10   3
ATOM      3  O   UNL     1      -3.826  -3.573  25.146  0.00  0.00    -0.387 OA
ATOM     31  H   UNL     1      -3.336  -4.354  24.836  0.00  0.00    +0.210 HD
ENDBRANCH  10   3
BRANCH  11   4
ATOM      4  O   UNL     1      -1.154  -3.090  24.703  0.00  0.00    -0.387 OA
ATOM     32  H   UNL     1      -1.534  -3.711  25.348  0.00  0.00    +0.210 HD
ENDBRANCH  11   4
BRANCH   9  13
ATOM     13  C   UNL     1      -4.533  -0.280  23.579  0.00  0.00    +0.130 C 
BRANCH  13  15
ATOM      5  O   UNL     1      -2.452   0.695  22.998  0.00  0.00    -0.275 OA
ATOM      7  N   UNL     1      -3.837   1.897  24.442  0.00  0.00    -0.271 N 
ATOM     15  C   UNL     1      -3.496   0.817  23.640  0.00  0.00    +0.222 C 
ATOM     16  C   UNL     1      -5.092   2.041  25.211  0.00  0.00    +0.118 C 
ATOM     17  C   UNL     1      -5.040   3.386  25.941  0.00  0.00    +0.056 C 
ATOM     18  C   UNL     1      -3.046   3.043  24.665  0.00  0.00    +0.039 A 
ATOM     19  C   UNL     1      -3.709   3.921  25.525  0.00  0.00    -0.024 A 
ATOM     20  C   UNL     1      -1.792   3.359  24.164  0.00  0.00    +0.024 A 
ATOM     21  C   UNL     1      -3.140   5.128  25.903  0.00  0.00    +0.005 A 
ATOM     23  C   UNL     1      -1.210   4.573  24.540  0.00  0.00    +0.002 A 
ATOM     24  C   UNL     1      -1.879   5.452  25.403  0.00  0.00    +0.000 A 
ENDBRANCH  13  15
ENDBRANCH   9  13
BRANCH  12  14
ATOM     14  C   UNL     1      -1.172  -0.185  26.051  0.00  0.00    +0.138 C 
BRANCH  14   8
ATOM      6  O   UNL     1       0.422   1.979  25.042  0.00  0.00    -0.270 OA
ATOM      8  N   UNL     1      -0.159  -0.267  25.041  0.00  0.00    -0.309 N 
ATOM     22  C   UNL     1       0.569   0.839  24.610  0.00  0.00    +0.244 C 
ATOM     33  H   UNL     1       0.052  -1.192  24.680  0.00  0.00    +0.149 HD
BRANCH  22  25
ATOM      1  F   UNL     1       5.075   1.228  22.823  0.00  0.00    -0.205 F 
ATOM     25  C   UNL     1       1.565   0.591  23.536  0.00  0.00    +0.039 A 
ATOM     26  C   UNL     1       2.878   1.035  23.687  0.00  0.00    +0.051 A 
ATOM     27  C   UNL     1       1.185  -0.085  22.376  0.00  0.00    +0.013 A 
ATOM     28  C   UNL     1       3.813   0.802  22.678  0.00  0.00    +0.124 A 
ATOM     29  C   UNL     1       2.121  -0.318  21.367  0.00  0.00    +0.004 A 
ATOM     30  C   UNL     1       3.434   0.125  21.518  0.00  0.00    +0.038 A 
ENDBRANCH  22  25
ENDBRANCH  14   8
ENDBRANCH  12  14
TORSDOF 7
ENDMDL
MODEL 5
REMARK VINA RESULT:      -1.6      3.161      5.445
REMARK  Name = 40777855
REMARK  7 active torsions:
REMARK  status: ('A' for Active; 'I' for Inactive)
REMARK    1  A    between atoms: O_3  and  C_10
REMARK    2  A    between atoms: O_4  and  C_11
REMARK    3  A    between atoms: N_8  and  C_14
REMARK    4  A    between atoms: C_9  and  C_13
REMARK    5  A    between atoms: C_12  and  C_14
REMARK    6  A    between atoms: C_13  and  C_15
REMARK    7  A    between atoms: C_22  and  C_25
REMARK                            x       y       z     vdW  Elec       q    Type
REMARK                         _______ _______ _______ _____ _____    ______ ____
ROOT
ATOM      2  O   UNL     1       1.043   2.979  24.242  0.00  0.00    -0.366 OA
ATOM      9  C   UNL     1       0.383   3.823  25.212  0.00  0.00    +0.159 C 
ATOM     10  C   UNL     1      -0.143   2.896  26.302  0.00  0.00    +0.175 C 
ATOM     11  C   UNL     1      -0.375   1.609  25.535  0.00  0.00    +0.176 C 
ATOM     12  C   UNL     1       0.812   1.602  24.588  0.00  0.00    +0.167 C 
ENDROOT
BRANCH  10   3
ATOM      3  O   UNL     1       0.891   2.717  27.268  0.00  0.00    -0.387 OA
ATOM     31  H   UNL     1       0.889   3.501  27.844  0.00  0.00    +0.210 HD
ENDBRANCH  10   3
BRANCH  11   4
ATOM      4  O   UNL     1      -0.401   0.464  26.360  0.00  0.00    -0.387 OA
ATOM     32  H   UNL     1      -1.335   0.240  26.518  0.00  0.00    +0.210 HD
ENDBRANCH  11   4
BRANCH   9  13
ATOM     13  C   UNL     1      -0.722   4.585  24.492  0.00  0.00    +0.130 C 
BRANCH  13  15
ATOM      5  O   UNL     1      -2.289   4.983  26.226  0.00  0.00    -0.275 OA
ATOM      7  N   UNL     1      -2.878   3.437  24.580  0.00  0.00    -0.271 N 
ATOM     15  C   UNL     1      -2.042   4.359  25.194  0.00  0.00    +0.222 C 
ATOM     16  C   UNL     1      -2.578   2.690  23.339  0.00  0.00    +0.118 C 
ATOM     17  C   UNL     1      -3.782   1.796  23.030  0.00  0.00    +0.056 C 
ATOM     18  C   UNL     1      -4.156   3.051  25.032  0.00  0.00    +0.039 A 
ATOM     19  C   UNL     1      -4.705   2.105  24.163  0.00  0.00    -0.024 A 
ATOM     20  C   UNL     1      -4.861   3.475  26.149  0.00  0.00    +0.024 A 
ATOM     21  C   UNL     1      -5.962   1.564  24.387  0.00  0.00    +0.005 A 
ATOM     23  C   UNL     1      -6.128   2.934  26.383  0.00  0.00    +0.002 A 
ATOM     24  C   UNL     1      -6.676   1.986  25.508  0.00  0.00    +0.000 A 
ENDBRANCH  13  15
ENDBRANCH   9  13
BRANCH  12  14
ATOM     14  C   UNL     1       0.571   0.791  23.326  0.00  0.00    +0.138 C 
BRANCH  14   8
ATOM      6  O   UNL     1       0.218  -1.653  24.789  0.00  0.00    -0.270 OA
ATOM      8  N   UNL     1      -0.634   0.022  23.428  0.00  0.00    -0.309 N 
ATOM     22  C   UNL     1      -0.715  -1.158  24.164  0.00  0.00    +0.244 C 
ATOM     33  H   UNL     1      -1.460   0.404  22.979  0.00  0.00    +0.149 HD
BRANCH  22  25
ATOM      1  F   UNL     1      -5.575  -1.050  24.000  0.00  0.00    -0.205 F 
ATOM     25  C   UNL     1      -2.029  -1.851  24.148  0.00  0.00    +0.039 A 
ATOM     26  C   UNL     1      -3.209  -1.110  24.081  0.00  0.00    +0.051 A 
ATOM     27  C   UNL     1      -2.082  -3.245  24.201  0.00  0.00    +0.013 A 
ATOM     28  C   UNL     1      -4.442  -1.762  24.065  0.00  0.00    +0.124 A 
ATOM     29  C   UNL     1      -3.316  -3.896  24.187  0.00  0.00    +0.004 A 
ATOM     30  C   UNL     1      -4.495  -3.155  24.119  0.00  0.00    +0.038 A 
ENDBRANCH  22  25
ENDBRANCH  14   8
ENDBRANCH  12  14
TORSDOF 7
ENDMDL
MODEL 6
REMARK VINA RESULT:      -1.4      0.997      1.510
REMARK  Name = 40777855
REMARK  7 active torsions:
REMARK  status: ('A' for Active; 'I' for Inactive)
REMARK    1  A    between atoms: O_3  and  C_10
REMARK    2  A    between atoms: O_4  and  C_11
REMARK    3  A    between atoms: N_8  and  C_14
REMARK    4  A    between atoms: C_9  and  C_13
REMARK    5  A    between atoms: C_12  and  C_14
REMARK    6  A    between atoms: C_13  and  C_15
REMARK    7  A    between atoms: C_22  and  C_25
REMARK                            x       y       z     vdW  Elec       q    Type
REMARK                         _______ _______ _______ _____ _____    ______ ____
ROOT
ATOM      2  O   UNL     1      -2.045   3.269  23.279  0.00  0.00    -0.366 OA
ATOM      9  C   UNL     1      -2.861   4.117  24.118  0.00  0.00    +0.159 C 
ATOM     10  C   UNL     1      -2.080   4.322  25.411  0.00  0.00    +0.175 C 
ATOM     11  C   UNL     1      -1.266   3.046  25.493  0.00  0.00    +0.176 C 
ATOM     12  C   UNL     1      -0.906   2.821  24.035  0.00  0.00    +0.167 C 
ENDROOT
BRANCH  10   3
ATOM      3  O   UNL     1      -1.220   5.446  25.235  0.00  0.00    -0.387 OA
ATOM     31  H   UNL     1      -1.608   6.189  25.730  0.00  0.00    +0.210 HD
ENDBRANCH  10   3
BRANCH  11   4
ATOM      4  O   UNL     1      -0.121   3.165  26.310  0.00  0.00    -0.387 OA
ATOM     32  H   UNL     1       0.356   3.965  26.027  0.00  0.00    +0.210 HD
ENDBRANCH  11   4
BRANCH   9  13
ATOM     13  C   UNL     1      -4.196   3.414  24.333  0.00  0.00    +0.130 C 
BRANCH  13  15
ATOM      5  O   UNL     1      -3.995   2.297  26.414  0.00  0.00    -0.275 OA
ATOM      7  N   UNL     1      -3.830   1.003  24.479  0.00  0.00    -0.271 N 
ATOM     15  C   UNL     1      -3.996   2.184  25.188  0.00  0.00    +0.222 C 
ATOM     16  C   UNL     1      -3.834   0.870  23.006  0.00  0.00    +0.118 C 
ATOM     17  C   UNL     1      -3.624  -0.609  22.670  0.00  0.00    +0.056 C 
ATOM     18  C   UNL     1      -3.628  -0.276  25.038  0.00  0.00    +0.039 A 
ATOM     19  C   UNL     1      -3.504  -1.227  24.024  0.00  0.00    -0.024 A 
ATOM     20  C   UNL     1      -3.548  -0.651  26.371  0.00  0.00    +0.024 A 
ATOM     21  C   UNL     1      -3.299  -2.568  24.313  0.00  0.00    +0.005 A 
ATOM     23  C   UNL     1      -3.340  -2.000  26.672  0.00  0.00    +0.002 A 
ATOM     24  C   UNL     1      -3.216  -2.953  25.652  0.00  0.00    +0.000 A 
ENDBRANCH  13  15
ENDBRANCH   9  13
BRANCH  12  14
ATOM     14  C   UNL     1      -0.613   1.368  23.705  0.00  0.00    +0.138 C 
BRANCH  14   8
ATOM      6  O   UNL     1       0.909  -0.326  21.956  0.00  0.00    -0.270 OA
ATOM      8  N   UNL     1       0.790   1.091  23.790  0.00  0.00    -0.309 N 
ATOM     22  C   UNL     1       1.450   0.253  22.894  0.00  0.00    +0.244 C 
ATOM     33  H   UNL     1       1.310   1.581  24.511  0.00  0.00    +0.149 HD
BRANCH  22  25
ATOM      1  F   UNL     1       5.185  -2.587  24.176  0.00  0.00    -0.205 F 
ATOM     25  C   UNL     1       2.902   0.048  23.135  0.00  0.00    +0.039 A 
ATOM     26  C   UNL     1       3.371  -1.198  23.552  0.00  0.00    +0.051 A 
ATOM     27  C   UNL     1       3.796   1.102  22.944  0.00  0.00    +0.013 A 
ATOM     28  C   UNL     1       4.734  -1.390  23.776  0.00  0.00    +0.124 A 
ATOM     29  C   UNL     1       5.159   0.909  23.170  0.00  0.00    +0.004 A 
ATOM     30  C   UNL     1       5.628  -0.336  23.586  0.00  0.00    +0.038 A 
ENDBRANCH  22  25
ENDBRANCH  14   8
ENDBRANCH  12  14
TORSDOF 7
ENDMDL
