MODEL 1
REMARK VINA RESULT:      -6.2      0.000      0.000
REMARK  Name = 40777837
REMARK  11 active torsions:
REMARK  status: ('A' for Active; 'I' for Inactive)
REMARK    1  A    between atoms: O_3  and  C_8
REMARK    2  A    between atoms: O_4  and  C_9
REMARK    3  A    between atoms: N_6  and  C_12
REMARK    4  A    between atoms: N_6  and  C_15
REMARK    5  A    between atoms: N_7  and  C_16
REMARK    6  A    between atoms: C_10  and  C_12
REMARK    7  A    between atoms: C_11  and  C_13
REMARK    8  A    between atoms: C_13  and  C_14
REMARK    9  A    between atoms: C_15  and  C_17
REMARK   10  A    between atoms: C_16  and  C_18
REMARK   11  A    between atoms: C_16  and  C_19
REMARK                            x       y       z     vdW  Elec       q    Type
REMARK                         _______ _______ _______ _____ _____    ______ ____
ROOT
ATOM      2  O   UNL     1      -2.214   2.359  23.116  0.00  0.00    -0.366 OA
ATOM      8  C   UNL     1      -0.932   2.768  25.077  0.00  0.00    +0.175 C 
ATOM      9  C   UNL     1      -2.406   2.888  25.405  0.00  0.00    +0.175 C 
ATOM     10  C   UNL     1      -0.962   2.015  23.752  0.00  0.00    +0.163 C 
ATOM     11  C   UNL     1      -3.004   3.139  24.030  0.00  0.00    +0.158 C 
ENDROOT
BRANCH   8   3
ATOM      3  O   UNL     1      -0.370   4.059  24.840  0.00  0.00    -0.387 OA
ATOM     25  H   UNL     1       0.595   3.974  24.917  0.00  0.00    +0.210 HD
ENDBRANCH   8   3
BRANCH   9   4
ATOM      4  O   UNL     1      -2.695   3.936  26.306  0.00  0.00    -0.387 OA
ATOM     26  H   UNL     1      -2.403   3.649  27.189  0.00  0.00    +0.210 HD
ENDBRANCH   9   4
BRANCH  10  12
ATOM     12  C   UNL     1      -0.929   0.502  23.926  0.00  0.00    +0.115 C 
BRANCH  12   6
ATOM      6  N   UNL     1       0.429   0.032  24.164  0.00  0.00    -0.309 NA
ATOM     27  H   UNL     1       0.930   0.721  24.723  0.00  0.00    +0.122 HD
BRANCH   6  15
ATOM     15  C   UNL     1       1.132  -0.191  22.908  0.00  0.00    +0.116 C 
BRANCH  15  17
ATOM      1  F   UNL     1       6.724  -0.049  23.580  0.00  0.00    -0.205 F 
ATOM     17  C   UNL     1       2.626  -0.153  23.088  0.00  0.00    -0.033 A 
ATOM     20  C   UNL     1       3.293  -1.259  23.615  0.00  0.00    +0.008 A 
ATOM     21  C   UNL     1       3.343   0.988  22.726  0.00  0.00    +0.008 A 
ATOM     22  C   UNL     1       4.678  -1.223  23.781  0.00  0.00    +0.038 A 
ATOM     23  C   UNL     1       4.727   1.023  22.893  0.00  0.00    +0.038 A 
ATOM     24  C   UNL     1       5.395  -0.082  23.421  0.00  0.00    +0.123 A 
ENDBRANCH  15  17
ENDBRANCH   6  15
ENDBRANCH  12   6
ENDBRANCH  10  12
BRANCH  11  13
ATOM     13  C   UNL     1      -4.462   2.728  23.925  0.00  0.00    +0.130 C 
BRANCH  13  14
ATOM      5  O   UNL     1      -5.515   1.545  25.753  0.00  0.00    -0.276 OA
ATOM      7  N   UNL     1      -4.155   0.372  24.278  0.00  0.00    -0.313 N 
ATOM     14  C   UNL     1      -4.785   1.507  24.767  0.00  0.00    +0.216 C 
ATOM     28  H   UNL     1      -3.619   0.440  23.418  0.00  0.00    +0.149 HD
BRANCH   7  16
ATOM     16  C   UNL     1      -4.289  -0.930  24.890  0.00  0.00    +0.067 C 
ATOM     18  C   UNL     1      -3.234  -1.117  25.973  0.00  0.00    +0.027 C 
ATOM     19  C   UNL     1      -4.201  -2.028  23.838  0.00  0.00    +0.027 C 
ENDBRANCH   7  16
ENDBRANCH  13  14
ENDBRANCH  11  13
TORSDOF 9
ENDMDL
MODEL 2
REMARK VINA RESULT:      -6.1      2.935      6.810
REMARK  Name = 40777837
REMARK  11 active torsions:
REMARK  status: ('A' for Active; 'I' for Inactive)
REMARK    1  A    between atoms: O_3  and  C_8
REMARK    2  A    between atoms: O_4  and  C_9
REMARK    3  A    between atoms: N_6  and  C_12
REMARK    4  A    between atoms: N_6  and  C_15
REMARK    5  A    between atoms: N_7  and  C_16
REMARK    6  A    between atoms: C_10  and  C_12
REMARK    7  A    between atoms: C_11  and  C_13
REMARK    8  A    between atoms: C_13  and  C_14
REMARK    9  A    between atoms: C_15  and  C_17
REMARK   10  A    between atoms: C_16  and  C_18
REMARK   11  A    between atoms: C_16  and  C_19
REMARK                            x       y       z     vdW  Elec       q    Type
REMARK                         _______ _______ _______ _____ _____    ______ ____
ROOT
ATOM      2  O   UNL     1      -1.233  -1.206  23.878  0.00  0.00    -0.366 OA
ATOM      8  C   UNL     1      -1.720  -0.263  26.007  0.00  0.00    +0.175 C 
ATOM      9  C   UNL     1      -0.874   0.707  25.209  0.00  0.00    +0.175 C 
ATOM     10  C   UNL     1      -2.233  -1.203  24.923  0.00  0.00    +0.163 C 
ATOM     11  C   UNL     1      -0.235  -0.217  24.185  0.00  0.00    +0.158 C 
ENDROOT
BRANCH   8   3
ATOM      3  O   UNL     1      -0.899  -1.020  26.897  0.00  0.00    -0.387 OA
ATOM     25  H   UNL     1      -0.811  -1.912  26.523  0.00  0.00    +0.210 HD
ENDBRANCH   8   3
BRANCH   9   4
ATOM      4  O   UNL     1       0.090   1.381  25.989  0.00  0.00    -0.387 OA
ATOM     26  H   UNL     1      -0.389   1.952  26.614  0.00  0.00    +0.210 HD
ENDBRANCH   9   4
BRANCH  10  12
ATOM     12  C   UNL     1      -3.548  -0.743  24.307  0.00  0.00    +0.115 C 
BRANCH  12   6
ATOM      6  N   UNL     1      -4.338   0.016  25.267  0.00  0.00    -0.309 NA
ATOM     27  H   UNL     1      -5.109  -0.561  25.599  0.00  0.00    +0.122 HD
BRANCH   6  15
ATOM     15  C   UNL     1      -4.857   1.236  24.664  0.00  0.00    +0.116 C 
BRANCH  15  17
ATOM      1  F   UNL     1      -1.329   5.577  25.339  0.00  0.00    -0.205 F 
ATOM     17  C   UNL     1      -3.915   2.397  24.845  0.00  0.00    -0.033 A 
ATOM     20  C   UNL     1      -3.012   2.724  23.833  0.00  0.00    +0.008 A 
ATOM     21  C   UNL     1      -3.945   3.143  26.023  0.00  0.00    +0.008 A 
ATOM     22  C   UNL     1      -2.138   3.800  24.001  0.00  0.00    +0.038 A 
ATOM     23  C   UNL     1      -3.071   4.217  26.190  0.00  0.00    +0.038 A 
ATOM     24  C   UNL     1      -2.168   4.545  25.180  0.00  0.00    +0.123 A 
ENDBRANCH  15  17
ENDBRANCH   6  15
ENDBRANCH  12   6
ENDBRANCH  10  12
BRANCH  11  13
ATOM     13  C   UNL     1       0.189   0.495  22.913  0.00  0.00    +0.130 C 
BRANCH  13  14
ATOM      5  O   UNL     1       1.585  -0.548  21.236  0.00  0.00    -0.276 OA
ATOM      7  N   UNL     1       2.536   0.112  23.252  0.00  0.00    -0.313 N 
ATOM     14  C   UNL     1       1.492  -0.042  22.351  0.00  0.00    +0.216 C 
ATOM     28  H   UNL     1       2.362   0.598  24.126  0.00  0.00    +0.149 HD
BRANCH   7  16
ATOM     16  C   UNL     1       3.888  -0.316  22.973  0.00  0.00    +0.067 C 
ATOM     18  C   UNL     1       4.242  -1.533  23.817  0.00  0.00    +0.027 C 
ATOM     19  C   UNL     1       4.869   0.825  23.210  0.00  0.00    +0.027 C 
ENDBRANCH   7  16
ENDBRANCH  13  14
ENDBRANCH  11  13
TORSDOF 9
ENDMDL
MODEL 3
REMARK VINA RESULT:      -5.7      2.718      6.701
REMARK  Name = 40777837
REMARK  11 active torsions:
REMARK  status: ('A' for Active; 'I' for Inactive)
REMARK    1  A    between atoms: O_3  and  C_8
REMARK    2  A    between atoms: O_4  and  C_9
REMARK    3  A    between atoms: N_6  and  C_12
REMARK    4  A    between atoms: N_6  and  C_15
REMARK    5  A    between atoms: N_7  and  C_16
REMARK    6  A    between atoms: C_10  and  C_12
REMARK    7  A    between atoms: C_11  and  C_13
REMARK    8  A    between atoms: C_13  and  C_14
REMARK    9  A    between atoms: C_15  and  C_17
REMARK   10  A    between atoms: C_16  and  C_18
REMARK   11  A    between atoms: C_16  and  C_19
REMARK                            x       y       z     vdW  Elec       q    Type
REMARK                         _______ _______ _______ _____ _____    ______ ____
ROOT
ATOM      2  O   UNL     1      -3.114   0.744  24.132  0.00  0.00    -0.366 OA
ATOM      8  C   UNL     1      -3.970  -1.395  24.722  0.00  0.00    +0.175 C 
ATOM      9  C   UNL     1      -2.616  -1.199  25.372  0.00  0.00    +0.175 C 
ATOM     10  C   UNL     1      -4.354   0.033  24.350  0.00  0.00    +0.163 C 
ATOM     11  C   UNL     1      -2.015  -0.108  24.499  0.00  0.00    +0.158 C 
ENDROOT
BRANCH   8   3
ATOM      3  O   UNL     1      -3.837  -2.146  23.515  0.00  0.00    -0.387 OA
ATOM     25  H   UNL     1      -4.714  -2.184  23.098  0.00  0.00    +0.210 HD
ENDBRANCH   8   3
BRANCH   9   4
ATOM      4  O   UNL     1      -1.825  -2.367  25.378  0.00  0.00    -0.387 OA
ATOM     26  H   UNL     1      -2.430  -3.129  25.405  0.00  0.00    +0.210 HD
ENDBRANCH   9   4
BRANCH  10  12
ATOM     12  C   UNL     1      -5.115   0.753  25.454  0.00  0.00    +0.115 C 
BRANCH  12   6
ATOM      6  N   UNL     1      -5.960   1.806  24.906  0.00  0.00    -0.309 NA
ATOM     27  H   UNL     1      -5.741   1.934  23.919  0.00  0.00    +0.122 HD
BRANCH   6  15
ATOM     15  C   UNL     1      -5.761   3.059  25.622  0.00  0.00    +0.116 C 
BRANCH  15  17
ATOM      1  F   UNL     1      -0.541   5.065  24.933  0.00  0.00    -0.205 F 
ATOM     17  C   UNL     1      -4.366   3.595  25.438  0.00  0.00    -0.033 A 
ATOM     20  C   UNL     1      -3.895   3.887  24.158  0.00  0.00    +0.008 A 
ATOM     21  C   UNL     1      -3.546   3.800  26.547  0.00  0.00    +0.008 A 
ATOM     22  C   UNL     1      -2.602   4.384  23.987  0.00  0.00    +0.038 A 
ATOM     23  C   UNL     1      -2.254   4.295  26.376  0.00  0.00    +0.038 A 
ATOM     24  C   UNL     1      -1.782   4.587  25.097  0.00  0.00    +0.123 A 
ENDBRANCH  15  17
ENDBRANCH   6  15
ENDBRANCH  12   6
ENDBRANCH  10  12
BRANCH  11  13
ATOM     13  C   UNL     1      -0.947   0.707  25.206  0.00  0.00    +0.130 C 
BRANCH  13  14
ATOM      5  O   UNL     1       0.601   2.281  24.218  0.00  0.00    -0.276 OA
ATOM      7  N   UNL     1       0.634   0.065  23.515  0.00  0.00    -0.313 N 
ATOM     14  C   UNL     1       0.174   1.131  24.274  0.00  0.00    +0.216 C 
ATOM     28  H   UNL     1       0.249  -0.859  23.683  0.00  0.00    +0.149 HD
BRANCH   7  16
ATOM     16  C   UNL     1       1.696   0.189  22.544  0.00  0.00    +0.067 C 
ATOM     18  C   UNL     1       1.382  -0.639  21.305  0.00  0.00    +0.027 C 
ATOM     19  C   UNL     1       3.030  -0.218  23.157  0.00  0.00    +0.027 C 
ENDBRANCH   7  16
ENDBRANCH  13  14
ENDBRANCH  11  13
TORSDOF 9
ENDMDL
MODEL 4
REMARK VINA RESULT:      -5.7      1.880      3.651
REMARK  Name = 40777837
REMARK  11 active torsions:
REMARK  status: ('A' for Active; 'I' for Inactive)
REMARK    1  A    between atoms: O_3  and  C_8
REMARK    2  A    between atoms: O_4  and  C_9
REMARK    3  A    between atoms: N_6  and  C_12
REMARK    4  A    between atoms: N_6  and  C_15
REMARK    5  A    between atoms: N_7  and  C_16
REMARK    6  A    between atoms: C_10  and  C_12
REMARK    7  A    between atoms: C_11  and  C_13
REMARK    8  A    between atoms: C_13  and  C_14
REMARK    9  A    between atoms: C_15  and  C_17
REMARK   10  A    between atoms: C_16  and  C_18
REMARK   11  A    between atoms: C_16  and  C_19
REMARK                            x       y       z     vdW  Elec       q    Type
REMARK                         _______ _______ _______ _____ _____    ______ ____
ROOT
ATOM      2  O   UNL     1      -2.562   0.052  25.902  0.00  0.00    -0.366 OA
ATOM      8  C   UNL     1      -2.352  -1.845  24.483  0.00  0.00    +0.175 C 
ATOM      9  C   UNL     1      -3.503  -0.984  24.005  0.00  0.00    +0.175 C 
ATOM     10  C   UNL     1      -1.587  -0.882  25.383  0.00  0.00    +0.163 C 
ATOM     11  C   UNL     1      -3.825  -0.184  25.257  0.00  0.00    +0.158 C 
ENDROOT
BRANCH   8   3
ATOM      3  O   UNL     1      -2.838  -2.916  25.292  0.00  0.00    -0.387 OA
ATOM     25  H   UNL     1      -3.200  -3.591  24.694  0.00  0.00    +0.210 HD
ENDBRANCH   8   3
BRANCH   9   4
ATOM      4  O   UNL     1      -4.611  -1.732  23.555  0.00  0.00    -0.387 OA
ATOM     26  H   UNL     1      -5.308  -1.100  23.307  0.00  0.00    +0.210 HD
ENDBRANCH   9   4
BRANCH  10  12
ATOM     12  C   UNL     1      -0.528  -0.082  24.637  0.00  0.00    +0.115 C 
BRANCH  12   6
ATOM      6  N   UNL     1       0.443  -0.963  24.003  0.00  0.00    -0.309 NA
ATOM     27  H   UNL     1       1.139  -1.248  24.691  0.00  0.00    +0.122 HD
BRANCH   6  15
ATOM     15  C   UNL     1       1.099  -0.297  22.885  0.00  0.00    +0.116 C 
BRANCH  15  17
ATOM      1  F   UNL     1       6.679   0.001  23.602  0.00  0.00    -0.205 F 
ATOM     17  C   UNL     1       2.590  -0.218  23.077  0.00  0.00    -0.033 A 
ATOM     20  C   UNL     1       3.284  -1.307  23.602  0.00  0.00    +0.008 A 
ATOM     21  C   UNL     1       3.277   0.946  22.728  0.00  0.00    +0.008 A 
ATOM     22  C   UNL     1       4.667  -1.234  23.779  0.00  0.00    +0.038 A 
ATOM     23  C   UNL     1       4.658   1.019  22.906  0.00  0.00    +0.038 A 
ATOM     24  C   UNL     1       5.353  -0.069  23.432  0.00  0.00    +0.123 A 
ENDBRANCH  15  17
ENDBRANCH   6  15
ENDBRANCH  12   6
ENDBRANCH  10  12
BRANCH  11  13
ATOM     13  C   UNL     1      -4.507   1.140  24.965  0.00  0.00    +0.130 C 
BRANCH  13  14
ATOM      5  O   UNL     1      -3.582   2.365  23.096  0.00  0.00    -0.276 OA
ATOM      7  N   UNL     1      -2.742   2.749  25.229  0.00  0.00    -0.313 N 
ATOM     14  C   UNL     1      -3.577   2.141  24.303  0.00  0.00    +0.216 C 
ATOM     28  H   UNL     1      -2.862   2.532  26.214  0.00  0.00    +0.149 HD
BRANCH   7  16
ATOM     16  C   UNL     1      -1.756   3.741  24.870  0.00  0.00    +0.067 C 
ATOM     18  C   UNL     1      -0.385   3.343  25.402  0.00  0.00    +0.027 C 
ATOM     19  C   UNL     1      -2.169   5.115  25.381  0.00  0.00    +0.027 C 
ENDBRANCH   7  16
ENDBRANCH  13  14
ENDBRANCH  11  13
TORSDOF 9
ENDMDL
MODEL 5
REMARK VINA RESULT:      -5.7      3.308      7.262
REMARK  Name = 40777837
REMARK  11 active torsions:
REMARK  status: ('A' for Active; 'I' for Inactive)
REMARK    1  A    between atoms: O_3  and  C_8
REMARK    2  A    between atoms: O_4  and  C_9
REMARK    3  A    between atoms: N_6  and  C_12
REMARK    4  A    between atoms: N_6  and  C_15
REMARK    5  A    between atoms: N_7  and  C_16
REMARK    6  A    between atoms: C_10  and  C_12
REMARK    7  A    between atoms: C_11  and  C_13
REMARK    8  A    between atoms: C_13  and  C_14
REMARK    9  A    between atoms: C_15  and  C_17
REMARK   10  A    between atoms: C_16  and  C_18
REMARK   11  A    between atoms: C_16  and  C_19
REMARK                            x       y       z     vdW  Elec       q    Type
REMARK                         _______ _______ _______ _____ _____    ______ ____
ROOT
ATOM      2  O   UNL     1      -0.179  -0.667  24.993  0.00  0.00    -0.366 OA
ATOM      8  C   UNL     1      -0.984   1.399  25.853  0.00  0.00    +0.175 C 
ATOM      9  C   UNL     1      -0.686   1.551  24.376  0.00  0.00    +0.175 C 
ATOM     10  C   UNL     1      -1.047  -0.116  26.010  0.00  0.00    +0.163 C 
ATOM     11  C   UNL     1       0.276   0.397  24.139  0.00  0.00    +0.158 C 
ENDROOT
BRANCH   8   3
ATOM      3  O   UNL     1       0.111   1.880  26.632  0.00  0.00    -0.387 OA
ATOM     25  H   UNL     1       0.001   2.842  26.724  0.00  0.00    +0.210 HD
ENDBRANCH   8   3
BRANCH   9   4
ATOM      4  O   UNL     1      -0.109   2.796  24.047  0.00  0.00    -0.387 OA
ATOM     26  H   UNL     1       0.230   2.729  23.138  0.00  0.00    +0.210 HD
ENDBRANCH   9   4
BRANCH  10  12
ATOM     12  C   UNL     1      -2.442  -0.683  25.787  0.00  0.00    +0.115 C 
BRANCH  12   6
ATOM      6  N   UNL     1      -2.622  -1.102  24.404  0.00  0.00    -0.309 NA
ATOM     27  H   UNL     1      -1.915  -0.654  23.822  0.00  0.00    +0.122 HD
BRANCH   6  15
ATOM     15  C   UNL     1      -3.952  -0.755  23.922  0.00  0.00    +0.116 C 
BRANCH  15  17
ATOM      1  F   UNL     1      -5.469   4.434  25.509  0.00  0.00    -0.205 F 
ATOM     17  C   UNL     1      -4.357   0.632  24.346  0.00  0.00    -0.033 A 
ATOM     20  C   UNL     1      -3.777   1.744  23.737  0.00  0.00    +0.008 A 
ATOM     21  C   UNL     1      -5.313   0.803  25.347  0.00  0.00    +0.008 A 
ATOM     22  C   UNL     1      -4.152   3.030  24.130  0.00  0.00    +0.038 A 
ATOM     23  C   UNL     1      -5.688   2.088  25.740  0.00  0.00    +0.038 A 
ATOM     24  C   UNL     1      -5.108   3.201  25.132  0.00  0.00    +0.123 A 
ENDBRANCH  15  17
ENDBRANCH   6  15
ENDBRANCH  12   6
ENDBRANCH  10  12
BRANCH  11  13
ATOM     13  C   UNL     1       0.302  -0.078  22.698  0.00  0.00    +0.130 C 
BRANCH  13  14
ATOM      5  O   UNL     1       1.972  -0.332  20.968  0.00  0.00    -0.276 OA
ATOM      7  N   UNL     1       2.644  -0.278  23.192  0.00  0.00    -0.313 N 
ATOM     14  C   UNL     1       1.713  -0.242  22.164  0.00  0.00    +0.216 C 
ATOM     28  H   UNL     1       2.327  -0.136  24.147  0.00  0.00    +0.149 HD
BRANCH   7  16
ATOM     16  C   UNL     1       4.063  -0.429  22.966  0.00  0.00    +0.067 C 
ATOM     18  C   UNL     1       4.643  -1.469  23.916  0.00  0.00    +0.027 C 
ATOM     19  C   UNL     1       4.773   0.911  23.113  0.00  0.00    +0.027 C 
ENDBRANCH   7  16
ENDBRANCH  13  14
ENDBRANCH  11  13
TORSDOF 9
ENDMDL
MODEL 6
REMARK VINA RESULT:      -5.3      3.636      6.866
REMARK  Name = 40777837
REMARK  11 active torsions:
REMARK  status: ('A' for Active; 'I' for Inactive)
REMARK    1  A    between atoms: O_3  and  C_8
REMARK    2  A    between atoms: O_4  and  C_9
REMARK    3  A    between atoms: N_6  and  C_12
REMARK    4  A    between atoms: N_6  and  C_15
REMARK    5  A    between atoms: N_7  and  C_16
REMARK    6  A    between atoms: C_10  and  C_12
REMARK    7  A    between atoms: C_11  and  C_13
REMARK    8  A    between atoms: C_13  and  C_14
REMARK    9  A    between atoms: C_15  and  C_17
REMARK   10  A    between atoms: C_16  and  C_18
REMARK   11  A    between atoms: C_16  and  C_19
REMARK                            x       y       z     vdW  Elec       q    Type
REMARK                         _______ _______ _______ _____ _____    ______ ____
ROOT
ATOM      2  O   UNL     1      -2.487  -0.574  23.667  0.00  0.00    -0.366 OA
ATOM      8  C   UNL     1      -4.452  -1.663  24.448  0.00  0.00    +0.175 C 
ATOM      9  C   UNL     1      -3.242  -2.249  25.144  0.00  0.00    +0.175 C 
ATOM     10  C   UNL     1      -3.898  -0.354  23.895  0.00  0.00    +0.163 C 
ATOM     11  C   UNL     1      -2.125  -1.865  24.188  0.00  0.00    +0.158 C 
ENDROOT
BRANCH   8   3
ATOM      3  O   UNL     1      -4.835  -2.483  23.344  0.00  0.00    -0.387 OA
ATOM     25  H   UNL     1      -4.054  -2.586  22.774  0.00  0.00    +0.210 HD
ENDBRANCH   8   3
BRANCH   9   4
ATOM      4  O   UNL     1      -3.324  -3.646  25.327  0.00  0.00    -0.387 OA
ATOM     26  H   UNL     1      -3.309  -3.815  26.285  0.00  0.00    +0.210 HD
ENDBRANCH   9   4
BRANCH  10  12
ATOM     12  C   UNL     1      -4.036   0.810  24.867  0.00  0.00    +0.115 C 
BRANCH  12   6
ATOM      6  N   UNL     1      -5.426   1.001  25.260  0.00  0.00    -0.309 NA
ATOM     27  H   UNL     1      -6.030   0.475  24.630  0.00  0.00    +0.122 HD
BRANCH   6  15
ATOM     15  C   UNL     1      -5.787   2.412  25.226  0.00  0.00    +0.116 C 
BRANCH  15  17
ATOM      1  F   UNL     1      -1.243   5.744  25.218  0.00  0.00    -0.205 F 
ATOM     17  C   UNL     1      -4.573   3.302  25.224  0.00  0.00    -0.033 A 
ATOM     20  C   UNL     1      -3.955   3.640  26.427  0.00  0.00    +0.008 A 
ATOM     21  C   UNL     1      -4.067   3.788  24.018  0.00  0.00    +0.008 A 
ATOM     22  C   UNL     1      -2.829   4.466  26.426  0.00  0.00    +0.038 A 
ATOM     23  C   UNL     1      -2.943   4.613  24.017  0.00  0.00    +0.038 A 
ATOM     24  C   UNL     1      -2.324   4.953  25.220  0.00  0.00    +0.123 A 
ENDBRANCH  15  17
ENDBRANCH   6  15
ENDBRANCH  12   6
ENDBRANCH  10  12
BRANCH  11  13
ATOM     13  C   UNL     1      -0.763  -1.783  24.855  0.00  0.00    +0.130 C 
BRANCH  13  14
ATOM      5  O   UNL     1       0.800  -0.515  23.514  0.00  0.00    -0.276 OA
ATOM      7  N   UNL     1      -0.295   0.535  25.275  0.00  0.00    -0.313 N 
ATOM     14  C   UNL     1       0.009  -0.540  24.453  0.00  0.00    +0.216 C 
ATOM     28  H   UNL     1      -1.009   0.421  25.988  0.00  0.00    +0.149 HD
BRANCH   7  16
ATOM     16  C   UNL     1       0.301   1.842  25.116  0.00  0.00    +0.067 C 
ATOM     18  C   UNL     1       0.168   2.645  26.404  0.00  0.00    +0.027 C 
ATOM     19  C   UNL     1      -0.329   2.577  23.940  0.00  0.00    +0.027 C 
ENDBRANCH   7  16
ENDBRANCH  13  14
ENDBRANCH  11  13
TORSDOF 9
ENDMDL
MODEL 7
REMARK VINA RESULT:      -5.2      2.488      6.047
REMARK  Name = 40777837
REMARK  11 active torsions:
REMARK  status: ('A' for Active; 'I' for Inactive)
REMARK    1  A    between atoms: O_3  and  C_8
REMARK    2  A    between atoms: O_4  and  C_9
REMARK    3  A    between atoms: N_6  and  C_12
REMARK    4  A    between atoms: N_6  and  C_15
REMARK    5  A    between atoms: N_7  and  C_16
REMARK    6  A    between atoms: C_10  and  C_12
REMARK    7  A    between atoms: C_11  and  C_13
REMARK    8  A    between atoms: C_13  and  C_14
REMARK    9  A    between atoms: C_15  and  C_17
REMARK   10  A    between atoms: C_16  and  C_18
REMARK   11  A    between atoms: C_16  and  C_19
REMARK                            x       y       z     vdW  Elec       q    Type
REMARK                         _______ _______ _______ _____ _____    ______ ____
ROOT
ATOM      2  O   UNL     1      -2.164   3.191  26.286  0.00  0.00    -0.366 OA
ATOM      8  C   UNL     1      -2.055   4.828  24.565  0.00  0.00    +0.175 C 
ATOM      9  C   UNL     1      -1.042   3.737  24.286  0.00  0.00    +0.175 C 
ATOM     10  C   UNL     1      -2.974   4.157  25.579  0.00  0.00    +0.163 C 
ATOM     11  C   UNL     1      -0.868   3.123  25.666  0.00  0.00    +0.158 C 
ENDROOT
BRANCH   8   3
ATOM      3  O   UNL     1      -1.425   5.938  25.206  0.00  0.00    -0.387 OA
ATOM     25  H   UNL     1      -0.713   5.584  25.766  0.00  0.00    +0.210 HD
ENDBRANCH   8   3
BRANCH   9   4
ATOM      4  O   UNL     1       0.176   4.225  23.766  0.00  0.00    -0.387 OA
ATOM     26  H   UNL     1       0.020   4.467  22.837  0.00  0.00    +0.210 HD
ENDBRANCH   9   4
BRANCH  10  12
ATOM     12  C   UNL     1      -4.131   3.408  24.930  0.00  0.00    +0.115 C 
BRANCH  12   6
ATOM      6  N   UNL     1      -4.556   2.286  25.756  0.00  0.00    -0.309 NA
ATOM     27  H   UNL     1      -3.751   1.910  26.255  0.00  0.00    +0.122 HD
BRANCH   6  15
ATOM     15  C   UNL     1      -5.165   1.241  24.944  0.00  0.00    +0.116 C 
BRANCH  15  17
ATOM      1  F   UNL     1      -1.936  -3.369  24.689  0.00  0.00    -0.205 F 
ATOM     17  C   UNL     1      -4.302   0.009  24.876  0.00  0.00    -0.033 A 
ATOM     20  C   UNL     1      -3.211  -0.125  25.734  0.00  0.00    +0.008 A 
ATOM     21  C   UNL     1      -4.595  -0.997  23.955  0.00  0.00    +0.008 A 
ATOM     22  C   UNL     1      -2.411  -1.267  25.671  0.00  0.00    +0.038 A 
ATOM     23  C   UNL     1      -3.795  -2.137  23.892  0.00  0.00    +0.038 A 
ATOM     24  C   UNL     1      -2.703  -2.273  24.749  0.00  0.00    +0.123 A 
ENDBRANCH  15  17
ENDBRANCH   6  15
ENDBRANCH  12   6
ENDBRANCH  10  12
BRANCH  11  13
ATOM     13  C   UNL     1      -0.392   1.682  25.627  0.00  0.00    +0.130 C 
BRANCH  13  14
ATOM      5  O   UNL     1      -0.826   0.873  23.389  0.00  0.00    -0.276 OA
ATOM      7  N   UNL     1       1.367   1.286  24.040  0.00  0.00    -0.313 N 
ATOM     14  C   UNL     1      -0.006   1.234  24.229  0.00  0.00    +0.216 C 
ATOM     28  H   UNL     1       1.951   1.657  24.784  0.00  0.00    +0.149 HD
BRANCH   7  16
ATOM     16  C   UNL     1       2.007   0.912  22.800  0.00  0.00    +0.067 C 
ATOM     18  C   UNL     1       1.525  -0.461  22.349  0.00  0.00    +0.027 C 
ATOM     19  C   UNL     1       3.522   0.944  22.949  0.00  0.00    +0.027 C 
ENDBRANCH   7  16
ENDBRANCH  13  14
ENDBRANCH  11  13
TORSDOF 9
ENDMDL
MODEL 8
REMARK VINA RESULT:      -4.4      3.555      5.566
REMARK  Name = 40777837
REMARK  11 active torsions:
REMARK  status: ('A' for Active; 'I' for Inactive)
REMARK    1  A    between atoms: O_3  and  C_8
REMARK    2  A    between atoms: O_4  and  C_9
REMARK    3  A    between atoms: N_6  and  C_12
REMARK    4  A    between atoms: N_6  and  C_15
REMARK    5  A    between atoms: N_7  and  C_16
REMARK    6  A    between atoms: C_10  and  C_12
REMARK    7  A    between atoms: C_11  and  C_13
REMARK    8  A    between atoms: C_13  and  C_14
REMARK    9  A    between atoms: C_15  and  C_17
REMARK   10  A    between atoms: C_16  and  C_18
REMARK   11  A    between atoms: C_16  and  C_19
REMARK                            x       y       z     vdW  Elec       q    Type
REMARK                         _______ _______ _______ _____ _____    ______ ____
ROOT
ATOM      2  O   UNL     1      -2.358  -0.437  25.729  0.00  0.00    -0.366 OA
ATOM      8  C   UNL     1      -1.618  -2.293  24.441  0.00  0.00    +0.175 C 
ATOM      9  C   UNL     1      -3.078  -2.022  24.140  0.00  0.00    +0.175 C 
ATOM     10  C   UNL     1      -1.181  -0.988  25.096  0.00  0.00    +0.163 C 
ATOM     11  C   UNL     1      -3.500  -1.233  25.369  0.00  0.00    +0.158 C 
ENDROOT
BRANCH   8   3
ATOM      3  O   UNL     1      -1.496  -3.337  25.407  0.00  0.00    -0.387 OA
ATOM     25  H   UNL     1      -1.209  -2.929  26.241  0.00  0.00    +0.210 HD
ENDBRANCH   8   3
BRANCH   9   4
ATOM      4  O   UNL     1      -3.843  -3.197  23.977  0.00  0.00    -0.387 OA
ATOM     26  H   UNL     1      -3.614  -3.797  24.707  0.00  0.00    +0.210 HD
ENDBRANCH   9   4
BRANCH  10  12
ATOM     12  C   UNL     1      -0.666   0.038  24.097  0.00  0.00    +0.115 C 
BRANCH  12   6
ATOM      6  N   UNL     1       0.547   0.682  24.585  0.00  0.00    -0.309 NA
ATOM     27  H   UNL     1       0.526   0.710  25.604  0.00  0.00    +0.122 HD
BRANCH   6  15
ATOM     15  C   UNL     1       0.669   2.033  24.056  0.00  0.00    +0.116 C 
BRANCH  15  17
ATOM      1  F   UNL     1      -2.973   5.578  26.487  0.00  0.00    -0.205 F 
ATOM     17  C   UNL     1      -0.304   2.980  24.706  0.00  0.00    -0.033 A 
ATOM     20  C   UNL     1      -1.022   2.578  25.831  0.00  0.00    +0.008 A 
ATOM     21  C   UNL     1      -0.486   4.260  24.182  0.00  0.00    +0.008 A 
ATOM     22  C   UNL     1      -1.924   3.456  26.434  0.00  0.00    +0.038 A 
ATOM     23  C   UNL     1      -1.388   5.137  24.784  0.00  0.00    +0.038 A 
ATOM     24  C   UNL     1      -2.108   4.735  25.909  0.00  0.00    +0.123 A 
ENDBRANCH  15  17
ENDBRANCH   6  15
ENDBRANCH  12   6
ENDBRANCH  10  12
BRANCH  11  13
ATOM     13  C   UNL     1      -4.696  -0.332  25.124  0.00  0.00    +0.130 C 
BRANCH  13  14
ATOM      5  O   UNL     1      -4.541   2.044  25.551  0.00  0.00    -0.276 OA
ATOM      7  N   UNL     1      -3.626   1.182  23.596  0.00  0.00    -0.313 N 
ATOM     14  C   UNL     1      -4.294   1.097  24.809  0.00  0.00    +0.216 C 
ATOM     28  H   UNL     1      -3.422   0.326  23.088  0.00  0.00    +0.149 HD
BRANCH   7  16
ATOM     16  C   UNL     1      -3.132   2.426  23.052  0.00  0.00    +0.067 C 
ATOM     18  C   UNL     1      -4.222   3.490  23.091  0.00  0.00    +0.027 C 
ATOM     19  C   UNL     1      -2.611   2.221  21.636  0.00  0.00    +0.027 C 
ENDBRANCH   7  16
ENDBRANCH  13  14
ENDBRANCH  11  13
TORSDOF 9
ENDMDL
MODEL 9
REMARK VINA RESULT:      -4.3      2.737      6.807
REMARK  Name = 40777837
REMARK  11 active torsions:
REMARK  status: ('A' for Active; 'I' for Inactive)
REMARK    1  A    between atoms: O_3  and  C_8
REMARK    2  A    between atoms: O_4  and  C_9
REMARK    3  A    between atoms: N_6  and  C_12
REMARK    4  A    between atoms: N_6  and  C_15
REMARK    5  A    between atoms: N_7  and  C_16
REMARK    6  A    between atoms: C_10  and  C_12
REMARK    7  A    between atoms: C_11  and  C_13
REMARK    8  A    between atoms: C_13  and  C_14
REMARK    9  A    between atoms: C_15  and  C_17
REMARK   10  A    between atoms: C_16  and  C_18
REMARK   11  A    between atoms: C_16  and  C_19
REMARK                            x       y       z     vdW  Elec       q    Type
REMARK                         _______ _______ _______ _____ _____    ______ ____
ROOT
ATOM      2  O   UNL     1      -1.431   0.623  24.826  0.00  0.00    -0.366 OA
ATOM      8  C   UNL     1      -0.781   2.886  24.492  0.00  0.00    +0.175 C 
ATOM      9  C   UNL     1       0.121   1.979  23.682  0.00  0.00    +0.175 C 
ATOM     10  C   UNL     1      -1.959   1.969  24.802  0.00  0.00    +0.163 C 
ATOM     11  C   UNL     1      -0.058   0.651  24.400  0.00  0.00    +0.158 C 
ENDROOT
BRANCH   8   3
ATOM      3  O   UNL     1      -0.154   3.235  25.727  0.00  0.00    -0.387 OA
ATOM     25  H   UNL     1      -0.327   2.512  26.354  0.00  0.00    +0.210 HD
ENDBRANCH   8   3
BRANCH   9   4
ATOM      4  O   UNL     1       1.469   2.397  23.670  0.00  0.00    -0.387 OA
ATOM     26  H   UNL     1       1.844   2.196  24.545  0.00  0.00    +0.210 HD
ENDBRANCH   9   4
BRANCH  10  12
ATOM     12  C   UNL     1      -3.050   2.021  23.742  0.00  0.00    +0.115 C 
BRANCH  12   6
ATOM      6  N   UNL     1      -4.358   2.236  24.347  0.00  0.00    -0.309 NA
ATOM     27  H   UNL     1      -4.431   3.205  24.655  0.00  0.00    +0.122 HD
BRANCH   6  15
ATOM     15  C   UNL     1      -4.562   1.341  25.477  0.00  0.00    +0.116 C 
BRANCH  15  17
ATOM      1  F   UNL     1      -3.355  -4.005  24.168  0.00  0.00    -0.205 F 
ATOM     17  C   UNL     1      -4.240  -0.088  25.127  0.00  0.00    -0.033 A 
ATOM     20  C   UNL     1      -4.596  -0.597  23.879  0.00  0.00    +0.008 A 
ATOM     21  C   UNL     1      -3.585  -0.901  26.052  0.00  0.00    +0.008 A 
ATOM     22  C   UNL     1      -4.297  -1.921  23.554  0.00  0.00    +0.038 A 
ATOM     23  C   UNL     1      -3.287  -2.224  25.728  0.00  0.00    +0.038 A 
ATOM     24  C   UNL     1      -3.643  -2.734  24.480  0.00  0.00    +0.123 A 
ENDBRANCH  15  17
ENDBRANCH   6  15
ENDBRANCH  12   6
ENDBRANCH  10  12
BRANCH  11  13
ATOM     13  C   UNL     1       0.231  -0.552  23.521  0.00  0.00    +0.130 C 
BRANCH  13  14
ATOM      5  O   UNL     1       1.476  -0.241  21.471  0.00  0.00    -0.276 OA
ATOM      7  N   UNL     1       2.628  -0.399  23.484  0.00  0.00    -0.313 N 
ATOM     14  C   UNL     1       1.490  -0.379  22.691  0.00  0.00    +0.216 C 
ATOM     28  H   UNL     1       2.522  -0.461  24.492  0.00  0.00    +0.149 HD
BRANCH   7  16
ATOM     16  C   UNL     1       3.963  -0.257  22.951  0.00  0.00    +0.067 C 
ATOM     18  C   UNL     1       4.983  -0.857  23.910  0.00  0.00    +0.027 C 
ATOM     19  C   UNL     1       4.271   1.206  22.662  0.00  0.00    +0.027 C 
ENDBRANCH   7  16
ENDBRANCH  13  14
ENDBRANCH  11  13
TORSDOF 9
ENDMDL
MODEL 10
REMARK VINA RESULT:      -4.0      3.373      5.311
REMARK  Name = 40777837
REMARK  11 active torsions:
REMARK  status: ('A' for Active; 'I' for Inactive)
REMARK    1  A    between atoms: O_3  and  C_8
REMARK    2  A    between atoms: O_4  and  C_9
REMARK    3  A    between atoms: N_6  and  C_12
REMARK    4  A    between atoms: N_6  and  C_15
REMARK    5  A    between atoms: N_7  and  C_16
REMARK    6  A    between atoms: C_10  and  C_12
REMARK    7  A    between atoms: C_11  and  C_13
REMARK    8  A    between atoms: C_13  and  C_14
REMARK    9  A    between atoms: C_15  and  C_17
REMARK   10  A    between atoms: C_16  and  C_18
REMARK   11  A    between atoms: C_16  and  C_19
REMARK                            x       y       z     vdW  Elec       q    Type
REMARK                         _______ _______ _______ _____ _____    ______ ____
ROOT
ATOM      2  O   UNL     1      -2.285  -0.465  25.363  0.00  0.00    -0.366 OA
ATOM      8  C   UNL     1      -2.592  -2.720  24.671  0.00  0.00    +0.175 C 
ATOM      9  C   UNL     1      -3.507  -1.819  23.867  0.00  0.00    +0.175 C 
ATOM     10  C   UNL     1      -1.587  -1.726  25.241  0.00  0.00    +0.163 C 
ATOM     11  C   UNL     1      -3.586  -0.591  24.761  0.00  0.00    +0.158 C 
ENDROOT
BRANCH   8   3
ATOM      3  O   UNL     1      -3.304  -3.305  25.761  0.00  0.00    -0.387 OA
ATOM     25  H   UNL     1      -3.980  -2.665  26.042  0.00  0.00    +0.210 HD
ENDBRANCH   8   3
BRANCH   9   4
ATOM      4  O   UNL     1      -4.778  -2.382  23.629  0.00  0.00    -0.387 OA
ATOM     26  H   UNL     1      -4.864  -3.161  24.205  0.00  0.00    +0.210 HD
ENDBRANCH   9   4
BRANCH  10  12
ATOM     12  C   UNL     1      -0.384  -1.506  24.334  0.00  0.00    +0.115 C 
BRANCH  12   6
ATOM      6  N   UNL     1      -0.479  -0.228  23.641  0.00  0.00    -0.309 NA
ATOM     27  H   UNL     1      -0.425  -0.386  22.635  0.00  0.00    +0.122 HD
BRANCH   6  15
ATOM     15  C   UNL     1       0.590   0.671  24.056  0.00  0.00    +0.116 C 
BRANCH  15  17
ATOM      1  F   UNL     1      -1.377   5.763  25.451  0.00  0.00    -0.205 F 
ATOM     17  C   UNL     1       0.064   2.031  24.429  0.00  0.00    -0.033 A 
ATOM     20  C   UNL     1      -0.106   3.006  23.445  0.00  0.00    +0.008 A 
ATOM     21  C   UNL     1      -0.253   2.317  25.757  0.00  0.00    +0.008 A 
ATOM     22  C   UNL     1      -0.593   4.268  23.791  0.00  0.00    +0.038 A 
ATOM     23  C   UNL     1      -0.739   3.577  26.102  0.00  0.00    +0.038 A 
ATOM     24  C   UNL     1      -0.909   4.553  25.119  0.00  0.00    +0.123 A 
ENDBRANCH  15  17
ENDBRANCH   6  15
ENDBRANCH  12   6
ENDBRANCH  10  12
BRANCH  11  13
ATOM     13  C   UNL     1      -3.926   0.681  24.007  0.00  0.00    +0.130 C 
BRANCH  13  14
ATOM      5  O   UNL     1      -5.440   1.480  25.716  0.00  0.00    -0.276 OA
ATOM      7  N   UNL     1      -4.022   2.991  24.662  0.00  0.00    -0.313 N 
ATOM     14  C   UNL     1      -4.561   1.734  24.898  0.00  0.00    +0.216 C 
ATOM     28  H   UNL     1      -3.255   3.080  24.002  0.00  0.00    +0.149 HD
BRANCH   7  16
ATOM     16  C   UNL     1      -4.446   4.176  25.371  0.00  0.00    +0.067 C 
ATOM     18  C   UNL     1      -3.874   4.182  26.782  0.00  0.00    +0.027 C 
ATOM     19  C   UNL     1      -5.967   4.271  25.392  0.00  0.00    +0.027 C 
ENDBRANCH   7  16
ENDBRANCH  13  14
ENDBRANCH  11  13
TORSDOF 9
ENDMDL
