MODEL 1
REMARK VINA RESULT:      -3.6      0.000      0.000
REMARK  Name = 38028426
REMARK  13 active torsions:
REMARK  status: ('A' for Active; 'I' for Inactive)
REMARK    1  A    between atoms: S_1  and  N_5
REMARK    2  A    between atoms: S_1  and  C_21
REMARK    3  A    between atoms: N_5  and  C_15
REMARK    4  A    between atoms: N_6  and  C_22
REMARK    5  A    between atoms: C_8  and  C_12
REMARK    6  A    between atoms: C_9  and  C_15
REMARK    7  A    between atoms: C_11  and  C_16
REMARK    8  A    between atoms: C_12  and  C_17
REMARK    9  A    between atoms: C_12  and  C_18
REMARK   10  A    between atoms: C_13  and  C_19
REMARK   11  A    between atoms: C_16  and  C_20
REMARK   12  A    between atoms: C_22  and  C_25
REMARK   13  A    between atoms: C_28  and  C_31
REMARK                            x       y       z     vdW  Elec       q    Type
REMARK                         _______ _______ _______ _____ _____    ______ ____
ROOT
ATOM      8  C   UNL     1      -2.158   3.696  24.985  0.00  0.00    +0.000 C 
ATOM      9  C   UNL     1      -3.364   3.872  24.028  0.00  0.00    +0.030 C 
ATOM     10  C   UNL     1      -0.901   3.298  24.196  0.00  0.00    +0.012 C 
ATOM     11  C   UNL     1      -1.097   1.987  23.410  0.00  0.00    +0.023 C 
ATOM     13  C   UNL     1      -2.405   1.979  22.647  0.00  0.00    -0.073 C 
ATOM     14  C   UNL     1      -3.402   2.837  22.929  0.00  0.00    -0.023 C 
ATOM     19  C   UNL     1      -2.526   0.991  21.521  0.00  0.00    +0.039 C 
ENDROOT
BRANCH   8  12
ATOM     12  C   UNL     1      -1.882   4.967  25.794  0.00  0.00    -0.013 C 
ATOM     17  C   UNL     1      -3.149   5.428  26.507  0.00  0.00    +0.007 C 
ATOM     18  C   UNL     1      -1.341   6.068  24.887  0.00  0.00    +0.007 C 
ENDBRANCH   8  12
BRANCH   9  15
ATOM     15  C   UNL     1      -4.688   3.849  24.798  0.00  0.00    +0.113 C 
BRANCH  15   5
ATOM      5  N   UNL     1      -4.664   2.739  25.764  0.00  0.00    -0.189 NA
ATOM     34  H   UNL     1      -3.759   2.521  26.197  0.00  0.00    +0.148 HD
BRANCH   5   1
ATOM      1  S   UNL     1      -5.812   1.484  25.656  0.00  0.00    +0.058 S 
ATOM      3  O   UNL     1      -6.684   1.730  24.523  0.00  0.00    -0.153 OA
ATOM      4  O   UNL     1      -6.374   1.241  26.971  0.00  0.00    -0.153 OA
BRANCH   1  21
ATOM     21  C   UNL     1      -4.791   0.095  25.267  0.00  0.00    +0.105 A 
ATOM     23  C   UNL     1      -4.866  -0.494  24.004  0.00  0.00    +0.029 A 
ATOM     24  C   UNL     1      -3.912  -0.415  26.224  0.00  0.00    +0.029 A 
ATOM     26  C   UNL     1      -4.062  -1.592  23.699  0.00  0.00    +0.005 A 
ATOM     27  C   UNL     1      -3.108  -1.512  25.917  0.00  0.00    +0.005 A 
ATOM     28  C   UNL     1      -3.183  -2.101  24.654  0.00  0.00    -0.050 A 
ATOM     31  C   UNL     1      -2.324  -3.275  24.327  0.00  0.00    +0.044 C 
ENDBRANCH   1  21
ENDBRANCH   5   1
ENDBRANCH  15   5
ENDBRANCH   9  15
BRANCH  11  16
ATOM     16  C   UNL     1      -0.992   0.769  24.334  0.00  0.00    +0.103 C 
BRANCH  16  20
ATOM      2  O   UNL     1       0.184  -1.345  24.337  0.00  0.00    -0.276 OA
ATOM      6  N   UNL     1       0.749   0.276  22.770  0.00  0.00    -0.311 N 
ATOM     20  C   UNL     1       0.028  -0.232  23.841  0.00  0.00    +0.214 C 
ATOM     35  H   UNL     1       0.542   1.209  22.425  0.00  0.00    +0.149 HD
BRANCH   6  22
ATOM     22  C   UNL     1       1.793  -0.464  22.099  0.00  0.00    +0.141 C 
BRANCH  22  25
ATOM      7  N   UNL     1       4.871  -1.269  24.142  0.00  0.00    -0.263 NA
ATOM     25  C   UNL     1       3.121  -0.306  22.780  0.00  0.00    -0.012 A 
ATOM     29  C   UNL     1       3.828   0.890  22.704  0.00  0.00    +0.008 A 
ATOM     30  C   UNL     1       3.681  -1.345  23.505  0.00  0.00    +0.115 A 
ATOM     32  C   UNL     1       5.054   1.007  23.346  0.00  0.00    +0.020 A 
ATOM     33  C   UNL     1       5.528  -0.091  24.046  0.00  0.00    +0.111 A 
ENDBRANCH  22  25
ENDBRANCH   6  22
ENDBRANCH  16  20
ENDBRANCH  11  16
TORSDOF 9
ENDMDL
MODEL 2
REMARK VINA RESULT:      -3.0      1.393      4.522
REMARK  Name = 38028426
REMARK  13 active torsions:
REMARK  status: ('A' for Active; 'I' for Inactive)
REMARK    1  A    between atoms: S_1  and  N_5
REMARK    2  A    between atoms: S_1  and  C_21
REMARK    3  A    between atoms: N_5  and  C_15
REMARK    4  A    between atoms: N_6  and  C_22
REMARK    5  A    between atoms: C_8  and  C_12
REMARK    6  A    between atoms: C_9  and  C_15
REMARK    7  A    between atoms: C_11  and  C_16
REMARK    8  A    between atoms: C_12  and  C_17
REMARK    9  A    between atoms: C_12  and  C_18
REMARK   10  A    between atoms: C_13  and  C_19
REMARK   11  A    between atoms: C_16  and  C_20
REMARK   12  A    between atoms: C_22  and  C_25
REMARK   13  A    between atoms: C_28  and  C_31
REMARK                            x       y       z     vdW  Elec       q    Type
REMARK                         _______ _______ _______ _____ _____    ______ ____
ROOT
ATOM      8  C   UNL     1      -2.670  -1.519  24.203  0.00  0.00    +0.000 C 
ATOM      9  C   UNL     1      -3.350  -0.728  25.349  0.00  0.00    +0.030 C 
ATOM     10  C   UNL     1      -1.166  -1.671  24.476  0.00  0.00    +0.012 C 
ATOM     11  C   UNL     1      -0.458  -0.309  24.615  0.00  0.00    +0.023 C 
ATOM     13  C   UNL     1      -1.220   0.629  25.528  0.00  0.00    -0.073 C 
ATOM     14  C   UNL     1      -2.508   0.419  25.855  0.00  0.00    -0.023 C 
ATOM     19  C   UNL     1      -0.455   1.793  26.094  0.00  0.00    +0.039 C 
ENDROOT
BRANCH   8  12
ATOM     12  C   UNL     1      -3.304  -2.901  24.011  0.00  0.00    -0.013 C 
ATOM     17  C   UNL     1      -4.681  -2.768  23.369  0.00  0.00    +0.007 C 
ATOM     18  C   UNL     1      -3.398  -3.633  25.346  0.00  0.00    +0.007 C 
ENDBRANCH   8  12
BRANCH   9  15
ATOM     15  C   UNL     1      -4.723  -0.202  24.917  0.00  0.00    +0.113 C 
BRANCH  15   5
ATOM      5  N   UNL     1      -5.285   0.621  26.000  0.00  0.00    -0.189 NA
ATOM     34  H   UNL     1      -5.663   0.122  26.813  0.00  0.00    +0.148 HD
BRANCH   5   1
ATOM      1  S   UNL     1      -5.907   2.171  25.662  0.00  0.00    +0.058 S 
ATOM      3  O   UNL     1      -6.548   2.698  26.852  0.00  0.00    -0.153 OA
ATOM      4  O   UNL     1      -6.625   2.131  24.403  0.00  0.00    -0.153 OA
BRANCH   1  21
ATOM     21  C   UNL     1      -4.428   3.099  25.383  0.00  0.00    +0.105 A 
ATOM     23  C   UNL     1      -3.842   3.112  24.118  0.00  0.00    +0.029 A 
ATOM     24  C   UNL     1      -3.846   3.815  26.430  0.00  0.00    +0.029 A 
ATOM     26  C   UNL     1      -2.673   3.842  23.899  0.00  0.00    +0.005 A 
ATOM     27  C   UNL     1      -2.678   4.545  26.210  0.00  0.00    +0.005 A 
ATOM     28  C   UNL     1      -2.092   4.558  24.944  0.00  0.00    -0.050 A 
ATOM     31  C   UNL     1      -0.842   5.338  24.709  0.00  0.00    +0.044 C 
ENDBRANCH   1  21
ENDBRANCH   5   1
ENDBRANCH  15   5
ENDBRANCH   9  15
BRANCH  11  16
ATOM     16  C   UNL     1      -0.220   0.332  23.244  0.00  0.00    +0.103 C 
BRANCH  16  20
ATOM      2  O   UNL     1       1.788   1.585  23.748  0.00  0.00    -0.276 OA
ATOM      6  N   UNL     1       1.802   0.056  21.998  0.00  0.00    -0.311 N 
ATOM     20  C   UNL     1       1.222   0.745  23.052  0.00  0.00    +0.214 C 
ATOM     35  H   UNL     1       1.252  -0.626  21.483  0.00  0.00    +0.149 HD
BRANCH   6  22
ATOM     22  C   UNL     1       3.174   0.250  21.587  0.00  0.00    +0.141 C 
BRANCH  22  25
ATOM      7  N   UNL     1       5.022  -1.689  24.256  0.00  0.00    -0.263 NA
ATOM     25  C   UNL     1       4.142  -0.073  22.688  0.00  0.00    -0.012 A 
ATOM     29  C   UNL     1       5.031   0.885  23.165  0.00  0.00    +0.008 A 
ATOM     30  C   UNL     1       4.176  -1.333  23.262  0.00  0.00    +0.115 A 
ATOM     32  C   UNL     1       5.914   0.557  24.186  0.00  0.00    +0.020 A 
ATOM     33  C   UNL     1       5.870  -0.732  24.693  0.00  0.00    +0.111 A 
ENDBRANCH  22  25
ENDBRANCH   6  22
ENDBRANCH  16  20
ENDBRANCH  11  16
TORSDOF 9
ENDMDL
MODEL 3
REMARK VINA RESULT:      -1.4      2.039      7.054
REMARK  Name = 38028426
REMARK  13 active torsions:
REMARK  status: ('A' for Active; 'I' for Inactive)
REMARK    1  A    between atoms: S_1  and  N_5
REMARK    2  A    between atoms: S_1  and  C_21
REMARK    3  A    between atoms: N_5  and  C_15
REMARK    4  A    between atoms: N_6  and  C_22
REMARK    5  A    between atoms: C_8  and  C_12
REMARK    6  A    between atoms: C_9  and  C_15
REMARK    7  A    between atoms: C_11  and  C_16
REMARK    8  A    between atoms: C_12  and  C_17
REMARK    9  A    between atoms: C_12  and  C_18
REMARK   10  A    between atoms: C_13  and  C_19
REMARK   11  A    between atoms: C_16  and  C_20
REMARK   12  A    between atoms: C_22  and  C_25
REMARK   13  A    between atoms: C_28  and  C_31
REMARK                            x       y       z     vdW  Elec       q    Type
REMARK                         _______ _______ _______ _____ _____    ______ ____
ROOT
ATOM      8  C   UNL     1      -3.346  -0.953  24.950  0.00  0.00    +0.000 C 
ATOM      9  C   UNL     1      -2.163  -0.206  24.283  0.00  0.00    +0.030 C 
ATOM     10  C   UNL     1      -4.646  -0.699  24.173  0.00  0.00    +0.012 C 
ATOM     11  C   UNL     1      -4.996   0.800  24.096  0.00  0.00    +0.023 C 
ATOM     13  C   UNL     1      -3.797   1.637  23.701  0.00  0.00    -0.073 C 
ATOM     14  C   UNL     1      -2.540   1.167  23.779  0.00  0.00    -0.023 C 
ATOM     19  C   UNL     1      -4.079   3.015  23.170  0.00  0.00    +0.039 C 
ENDROOT
BRANCH   8  12
ATOM     12  C   UNL     1      -3.085  -2.459  25.048  0.00  0.00    -0.013 C 
ATOM     17  C   UNL     1      -1.660  -2.782  24.610  0.00  0.00    +0.007 C 
ATOM     18  C   UNL     1      -4.097  -3.230  24.205  0.00  0.00    +0.007 C 
ENDBRANCH   8  12
BRANCH   9  15
ATOM     15  C   UNL     1      -0.972  -0.090  25.242  0.00  0.00    +0.113 C 
BRANCH  15   5
ATOM      5  N   UNL     1       0.243  -0.560  24.559  0.00  0.00    -0.189 NA
ATOM     34  H   UNL     1       0.955  -1.015  25.141  0.00  0.00    +0.148 HD
BRANCH   5   1
ATOM      1  S   UNL     1       0.758   0.187  23.116  0.00  0.00    +0.058 S 
ATOM      3  O   UNL     1       0.443   1.602  23.172  0.00  0.00    -0.153 OA
ATOM      4  O   UNL     1       0.326  -0.613  21.987  0.00  0.00    -0.153 OA
BRANCH   1  21
ATOM     21  C   UNL     1       2.514   0.014  23.229  0.00  0.00    +0.105 A 
ATOM     23  C   UNL     1       3.344   1.072  22.857  0.00  0.00    +0.029 A 
ATOM     24  C   UNL     1       3.069  -1.182  23.686  0.00  0.00    +0.029 A 
ATOM     26  C   UNL     1       4.729   0.934  22.944  0.00  0.00    +0.005 A 
ATOM     27  C   UNL     1       4.454  -1.318  23.773  0.00  0.00    +0.005 A 
ATOM     28  C   UNL     1       5.284  -0.260  23.402  0.00  0.00    -0.050 A 
ATOM     31  C   UNL     1       6.765  -0.407  23.494  0.00  0.00    +0.044 C 
ENDBRANCH   1  21
ENDBRANCH   5   1
ENDBRANCH  15   5
ENDBRANCH   9  15
BRANCH  11  16
ATOM     16  C   UNL     1      -5.600   1.294  25.414  0.00  0.00    +0.103 C 
BRANCH  16  20
ATOM      2  O   UNL     1      -5.906   3.694  25.429  0.00  0.00    -0.276 OA
ATOM      6  N   UNL     1      -3.981   2.781  26.356  0.00  0.00    -0.311 N 
ATOM     20  C   UNL     1      -5.211   2.724  25.718  0.00  0.00    +0.214 C 
ATOM     35  H   UNL     1      -3.482   1.919  26.559  0.00  0.00    +0.149 HD
BRANCH   6  22
ATOM     22  C   UNL     1      -3.360   4.020  26.764  0.00  0.00    +0.141 C 
BRANCH  22  25
ATOM      7  N   UNL     1       0.051   3.663  25.172  0.00  0.00    -0.263 NA
ATOM     25  C   UNL     1      -2.138   4.331  25.950  0.00  0.00    -0.012 A 
ATOM     29  C   UNL     1      -2.036   5.521  25.237  0.00  0.00    +0.008 A 
ATOM     30  C   UNL     1      -1.076   3.444  25.885  0.00  0.00    +0.115 A 
ATOM     32  C   UNL     1      -0.892   5.783  24.493  0.00  0.00    +0.020 A 
ATOM     33  C   UNL     1       0.114   4.831  24.493  0.00  0.00    +0.111 A 
ENDBRANCH  22  25
ENDBRANCH   6  22
ENDBRANCH  16  20
ENDBRANCH  11  16
TORSDOF 9
ENDMDL
MODEL 4
REMARK VINA RESULT:      -0.1      1.935      6.848
REMARK  Name = 38028426
REMARK  13 active torsions:
REMARK  status: ('A' for Active; 'I' for Inactive)
REMARK    1  A    between atoms: S_1  and  N_5
REMARK    2  A    between atoms: S_1  and  C_21
REMARK    3  A    between atoms: N_5  and  C_15
REMARK    4  A    between atoms: N_6  and  C_22
REMARK    5  A    between atoms: C_8  and  C_12
REMARK    6  A    between atoms: C_9  and  C_15
REMARK    7  A    between atoms: C_11  and  C_16
REMARK    8  A    between atoms: C_12  and  C_17
REMARK    9  A    between atoms: C_12  and  C_18
REMARK   10  A    between atoms: C_13  and  C_19
REMARK   11  A    between atoms: C_16  and  C_20
REMARK   12  A    between atoms: C_22  and  C_25
REMARK   13  A    between atoms: C_28  and  C_31
REMARK                            x       y       z     vdW  Elec       q    Type
REMARK                         _______ _______ _______ _____ _____    ______ ____
ROOT
ATOM      8  C   UNL     1      -2.601   2.227  23.810  0.00  0.00    +0.000 C 
ATOM      9  C   UNL     1      -1.283   2.857  24.325  0.00  0.00    +0.030 C 
ATOM     10  C   UNL     1      -3.684   3.305  23.649  0.00  0.00    +0.012 C 
ATOM     11  C   UNL     1      -3.978   4.038  24.972  0.00  0.00    +0.023 C 
ATOM     13  C   UNL     1      -2.704   4.458  25.676  0.00  0.00    -0.073 C 
ATOM     14  C   UNL     1      -1.507   3.929  25.365  0.00  0.00    -0.023 C 
ATOM     19  C   UNL     1      -2.830   5.534  26.718  0.00  0.00    +0.039 C 
ENDROOT
BRANCH   8  12
ATOM     12  C   UNL     1      -2.400   1.491  22.481  0.00  0.00    -0.013 C 
ATOM     17  C   UNL     1      -2.768   2.398  21.311  0.00  0.00    +0.007 C 
ATOM     18  C   UNL     1      -3.226   0.209  22.452  0.00  0.00    +0.007 C 
ENDBRANCH   8  12
BRANCH   9  15
ATOM     15  C   UNL     1      -0.342   1.787  24.888  0.00  0.00    +0.113 C 
BRANCH  15   5
ATOM      5  N   UNL     1       0.760   1.567  23.938  0.00  0.00    -0.189 NA
ATOM     34  H   UNL     1       1.068   2.378  23.391  0.00  0.00    +0.148 HD
BRANCH   5   1
ATOM      1  S   UNL     1       1.025   0.019  23.278  0.00  0.00    +0.058 S 
ATOM      3  O   UNL     1       0.601   0.012  21.891  0.00  0.00    -0.153 OA
ATOM      4  O   UNL     1       0.526  -0.983  24.199  0.00  0.00    -0.153 OA
BRANCH   1  21
ATOM     21  C   UNL     1       2.790  -0.087  23.308  0.00  0.00    +0.105 A 
ATOM     23  C   UNL     1       3.561   0.988  22.866  0.00  0.00    +0.029 A 
ATOM     24  C   UNL     1       3.411  -1.248  23.772  0.00  0.00    +0.029 A 
ATOM     26  C   UNL     1       4.953   0.902  22.888  0.00  0.00    +0.005 A 
ATOM     27  C   UNL     1       4.803  -1.332  23.795  0.00  0.00    +0.005 A 
ATOM     28  C   UNL     1       5.574  -0.257  23.352  0.00  0.00    -0.050 A 
ATOM     31  C   UNL     1       7.062  -0.347  23.375  0.00  0.00    +0.044 C 
ENDBRANCH   1  21
ENDBRANCH   5   1
ENDBRANCH  15   5
ENDBRANCH   9  15
BRANCH  11  16
ATOM     16  C   UNL     1      -4.858   3.186  25.892  0.00  0.00    +0.103 C 
BRANCH  16  20
ATOM      2  O   UNL     1      -6.408   2.064  24.412  0.00  0.00    -0.276 OA
ATOM      6  N   UNL     1      -4.757   0.831  25.488  0.00  0.00    -0.311 N 
ATOM     20  C   UNL     1      -5.446   1.994  25.172  0.00  0.00    +0.214 C 
ATOM     35  H   UNL     1      -3.967   0.875  26.125  0.00  0.00    +0.149 HD
BRANCH   6  22
ATOM     22  C   UNL     1      -5.102  -0.462  24.945  0.00  0.00    +0.141 C 
BRANCH  22  25
ATOM      7  N   UNL     1      -1.652  -1.878  25.571  0.00  0.00    -0.263 NA
ATOM     25  C   UNL     1      -3.915  -1.380  24.883  0.00  0.00    -0.012 A 
ATOM     29  C   UNL     1      -3.946  -2.542  24.119  0.00  0.00    +0.008 A 
ATOM     30  C   UNL     1      -2.755  -1.096  25.584  0.00  0.00    +0.115 A 
ATOM     32  C   UNL     1      -2.832  -3.371  24.080  0.00  0.00    +0.020 A 
ATOM     33  C   UNL     1      -1.719  -2.998  24.817  0.00  0.00    +0.111 A 
ENDBRANCH  22  25
ENDBRANCH   6  22
ENDBRANCH  16  20
ENDBRANCH  11  16
TORSDOF 9
ENDMDL
