MODEL 1
REMARK VINA RESULT:      12.5      0.000      0.000
REMARK  Name = 45361711
REMARK  7 active torsions:
REMARK  status: ('A' for Active; 'I' for Inactive)
REMARK    1  A    between atoms: N_8  and  C_29
REMARK    2  A    between atoms: C_11  and  C_17
REMARK    3  A    between atoms: C_12  and  C_26
REMARK    4  A    between atoms: C_21  and  C_23
REMARK    5  A    between atoms: C_29  and  C_30
REMARK    6  A    between atoms: C_29  and  C_32
REMARK    7  A    between atoms: C_30  and  C_31
REMARK                            x       y       z     vdW  Elec       q    Type
REMARK                         _______ _______ _______ _____ _____    ______ ____
ROOT
ATOM      1  O   UNL     1      -1.513  -2.400  24.653  0.00  0.00    -0.275 OA
ATOM      2  O   UNL     1       4.222   1.626  22.502  0.00  0.00    -0.275 OA
ATOM      5  N   UNL     1      -0.009  -0.751  24.001  0.00  0.00    -0.287 N 
ATOM      6  N   UNL     1       2.715   0.149  23.478  0.00  0.00    -0.298 N 
ATOM     12  C   UNL     1       0.258   0.567  23.410  0.00  0.00    +0.179 C 
ATOM     15  C   UNL     1       1.592   0.622  22.665  0.00  0.00    +0.139 C 
ATOM     16  C   UNL     1       1.135  -1.657  24.136  0.00  0.00    +0.127 C 
ATOM     17  C   UNL     1      -1.287  -1.244  24.288  0.00  0.00    +0.219 C 
ATOM     18  C   UNL     1       2.435  -0.924  24.437  0.00  0.00    +0.127 C 
ATOM     23  C   UNL     1       3.976   0.724  23.306  0.00  0.00    +0.219 C 
ENDROOT
BRANCH  23  21
ATOM      7  N   UNL     1       6.820  -1.594  22.614  0.00  0.00    -0.316 NA
ATOM     21  C   UNL     1       5.077   0.179  24.170  0.00  0.00    +0.078 C 
ATOM     24  C   UNL     1       4.994  -1.346  24.263  0.00  0.00    +0.028 C 
ATOM     25  C   UNL     1       6.448   0.621  23.652  0.00  0.00    +0.028 C 
ATOM     27  C   UNL     1       5.475  -2.033  22.984  0.00  0.00    +0.081 C 
ATOM     28  C   UNL     1       6.868  -0.148  22.398  0.00  0.00    +0.081 C 
ATOM     40  H   UNL     1       7.108  -2.071  21.761  0.00  0.00    +0.122 HD
ENDBRANCH  23  21
BRANCH  17  11
ATOM     11  C   UNL     1      -2.431  -0.285  24.129  0.00  0.00    +0.075 C 
ATOM     13  C   UNL     1      -3.071   0.000  25.488  0.00  0.00    +0.013 C 
ATOM     14  C   UNL     1      -3.438  -0.799  23.097  0.00  0.00    +0.013 C 
ATOM     19  C   UNL     1      -3.951  -1.143  25.990  0.00  0.00    +0.001 C 
ATOM     20  C   UNL     1      -4.329  -1.923  23.623  0.00  0.00    +0.001 C 
ATOM     22  C   UNL     1      -4.986  -1.554  24.949  0.00  0.00    +0.000 C 
ENDBRANCH  17  11
BRANCH  12  26
ATOM      3  O   UNL     1       0.780   1.351  25.608  0.00  0.00    -0.274 OA
ATOM      8  N   UNL     1      -0.422   2.736  24.174  0.00  0.00    -0.302 N 
ATOM     26  C   UNL     1       0.252   1.578  24.522  0.00  0.00    +0.236 C 
ATOM     41  H   UNL     1      -0.759   2.843  23.221  0.00  0.00    +0.150 HD
BRANCH   8  29
ATOM     29  C   UNL     1      -0.590   3.854  25.074  0.00  0.00    +0.163 C 
BRANCH  29  32
ATOM      4  O   UNL     1       0.188   5.180  23.193  0.00  0.00    -0.274 OA
ATOM     10  N   UNL     1      -1.136   6.189  24.774  0.00  0.00    -0.328 N 
ATOM     32  C   UNL     1      -0.443   5.121  24.246  0.00  0.00    +0.231 C 
ATOM     43  H   UNL     1      -1.133   7.092  24.313  0.00  0.00    +0.145 HD
ATOM     44  H   UNL     1      -1.672   6.120  25.634  0.00  0.00    +0.145 HD
ENDBRANCH  29  32
BRANCH  29  30
ATOM     30  C   UNL     1      -1.952   3.831  25.778  0.00  0.00    +0.069 C 
BRANCH  30  31
ATOM      9  N   UNL     1      -4.209   2.686  23.103  0.00  0.00    -0.360 N 
ATOM     31  C   UNL     1      -3.057   3.301  24.897  0.00  0.00    -0.020 A 
ATOM     33  C   UNL     1      -4.316   2.797  25.329  0.00  0.00    +0.003 A 
ATOM     34  C   UNL     1      -3.021   3.220  23.524  0.00  0.00    +0.087 A 
ATOM     35  C   UNL     1      -5.019   2.419  24.183  0.00  0.00    +0.047 A 
ATOM     36  C   UNL     1      -4.926   2.627  26.587  0.00  0.00    +0.010 A 
ATOM     37  C   UNL     1      -6.308   1.876  24.233  0.00  0.00    +0.026 A 
ATOM     38  C   UNL     1      -6.215   2.085  26.653  0.00  0.00    +0.001 A 
ATOM     39  C   UNL     1      -6.893   1.716  25.492  0.00  0.00    +0.002 A 
ATOM     42  H   UNL     1      -4.457   2.514  22.138  0.00  0.00    +0.165 HD
ENDBRANCH  30  31
ENDBRANCH  29  30
ENDBRANCH   8  29
ENDBRANCH  12  26
TORSDOF 7
ENDMDL
MODEL 2
REMARK VINA RESULT:      12.6      1.817      6.398
REMARK  Name = 45361711
REMARK  7 active torsions:
REMARK  status: ('A' for Active; 'I' for Inactive)
REMARK    1  A    between atoms: N_8  and  C_29
REMARK    2  A    between atoms: C_11  and  C_17
REMARK    3  A    between atoms: C_12  and  C_26
REMARK    4  A    between atoms: C_21  and  C_23
REMARK    5  A    between atoms: C_29  and  C_30
REMARK    6  A    between atoms: C_29  and  C_32
REMARK    7  A    between atoms: C_30  and  C_31
REMARK                            x       y       z     vdW  Elec       q    Type
REMARK                         _______ _______ _______ _____ _____    ______ ____
ROOT
ATOM      1  O   UNL     1       2.731  -0.064  21.266  0.00  0.00    -0.275 OA
ATOM      2  O   UNL     1      -2.828  -1.495  25.825  0.00  0.00    -0.275 OA
ATOM      5  N   UNL     1       1.224  -0.248  23.028  0.00  0.00    -0.287 N 
ATOM      6  N   UNL     1      -1.408  -0.956  24.065  0.00  0.00    -0.298 N 
ATOM     12  C   UNL     1       0.942  -0.225  24.469  0.00  0.00    +0.179 C 
ATOM     15  C   UNL     1      -0.197  -1.166  24.863  0.00  0.00    +0.139 C 
ATOM     16  C   UNL     1       0.189  -0.819  22.162  0.00  0.00    +0.127 C 
ATOM     17  C   UNL     1       2.458   0.089  22.459  0.00  0.00    +0.219 C 
ATOM     18  C   UNL     1      -1.220  -0.547  22.669  0.00  0.00    +0.127 C 
ATOM     23  C   UNL     1      -2.659  -1.151  24.653  0.00  0.00    +0.219 C 
ENDROOT
BRANCH  23  21
ATOM      7  N   UNL     1      -5.058   1.691  24.323  0.00  0.00    -0.316 NA
ATOM     21  C   UNL     1      -3.851  -0.924  23.767  0.00  0.00    +0.078 C 
ATOM     24  C   UNL     1      -5.126  -0.766  24.598  0.00  0.00    +0.028 C 
ATOM     25  C   UNL     1      -3.634   0.291  22.862  0.00  0.00    +0.028 C 
ATOM     27  C   UNL     1      -5.207   0.599  25.284  0.00  0.00    +0.081 C 
ATOM     28  C   UNL     1      -3.777   1.612  23.621  0.00  0.00    +0.081 C 
ATOM     40  H   UNL     1      -5.118   2.582  24.814  0.00  0.00    +0.122 HD
ENDBRANCH  23  21
BRANCH  17  11
ATOM     11  C   UNL     1       3.493   0.664  23.383  0.00  0.00    +0.075 C 
ATOM     13  C   UNL     1       4.681   1.192  22.578  0.00  0.00    +0.013 C 
ATOM     14  C   UNL     1       3.905  -0.356  24.447  0.00  0.00    +0.013 C 
ATOM     19  C   UNL     1       5.595   0.083  22.060  0.00  0.00    +0.001 C 
ATOM     20  C   UNL     1       4.842  -1.441  23.920  0.00  0.00    +0.001 C 
ATOM     22  C   UNL     1       6.038  -0.850  23.181  0.00  0.00    +0.000 C 
ENDBRANCH  17  11
BRANCH  12  26
ATOM      3  O   UNL     1       0.603   2.099  24.024  0.00  0.00    -0.274 OA
ATOM      8  N   UNL     1       0.295   1.311  26.193  0.00  0.00    -0.302 N 
ATOM     26  C   UNL     1       0.593   1.186  24.847  0.00  0.00    +0.236 C 
ATOM     41  H   UNL     1       0.248   0.473  26.767  0.00  0.00    +0.150 HD
BRANCH   8  29
ATOM     29  C   UNL     1      -0.051   2.569  26.814  0.00  0.00    +0.163 C 
BRANCH  29  32
ATOM      4  O   UNL     1       0.126   2.576  29.237  0.00  0.00    -0.274 OA
ATOM     10  N   UNL     1       2.054   2.698  27.995  0.00  0.00    -0.328 N 
ATOM     32  C   UNL     1       0.685   2.629  28.144  0.00  0.00    +0.231 C 
ATOM     43  H   UNL     1       2.665   2.731  28.803  0.00  0.00    +0.145 HD
ATOM     44  H   UNL     1       2.503   2.719  27.084  0.00  0.00    +0.145 HD
ENDBRANCH  29  32
BRANCH  29  30
ATOM     30  C   UNL     1       0.326   3.770  25.939  0.00  0.00    +0.069 C 
BRANCH  30  31
ATOM      9  N   UNL     1      -2.103   5.547  23.815  0.00  0.00    -0.360 N 
ATOM     31  C   UNL     1      -0.865   4.385  25.245  0.00  0.00    -0.020 A 
ATOM     33  C   UNL     1      -2.231   4.227  25.610  0.00  0.00    +0.003 A 
ATOM     34  C   UNL     1      -0.819   5.201  24.138  0.00  0.00    +0.087 A 
ATOM     35  C   UNL     1      -2.986   4.968  24.698  0.00  0.00    +0.047 A 
ATOM     36  C   UNL     1      -2.900   3.526  26.634  0.00  0.00    +0.010 A 
ATOM     37  C   UNL     1      -4.383   5.041  24.757  0.00  0.00    +0.026 A 
ATOM     38  C   UNL     1      -4.296   3.590  26.705  0.00  0.00    +0.001 A 
ATOM     39  C   UNL     1      -5.024   4.337  25.780  0.00  0.00    +0.002 A 
ATOM     42  H   UNL     1      -2.366   6.142  23.043  0.00  0.00    +0.165 HD
ENDBRANCH  30  31
ENDBRANCH  29  30
ENDBRANCH   8  29
ENDBRANCH  12  26
TORSDOF 7
ENDMDL
MODEL 3
REMARK VINA RESULT:      13.1      2.130      4.379
REMARK  Name = 45361711
REMARK  7 active torsions:
REMARK  status: ('A' for Active; 'I' for Inactive)
REMARK    1  A    between atoms: N_8  and  C_29
REMARK    2  A    between atoms: C_11  and  C_17
REMARK    3  A    between atoms: C_12  and  C_26
REMARK    4  A    between atoms: C_21  and  C_23
REMARK    5  A    between atoms: C_29  and  C_30
REMARK    6  A    between atoms: C_29  and  C_32
REMARK    7  A    between atoms: C_30  and  C_31
REMARK                            x       y       z     vdW  Elec       q    Type
REMARK                         _______ _______ _______ _____ _____    ______ ____
ROOT
ATOM      1  O   UNL     1      -4.483   2.658  23.339  0.00  0.00    -0.275 OA
ATOM      2  O   UNL     1       2.833   2.198  23.427  0.00  0.00    -0.275 OA
ATOM      5  N   UNL     1      -2.203   2.755  23.789  0.00  0.00    -0.287 N 
ATOM      6  N   UNL     1       0.534   1.888  23.275  0.00  0.00    -0.298 N 
ATOM     12  C   UNL     1      -1.061   3.405  24.446  0.00  0.00    +0.179 C 
ATOM     15  C   UNL     1       0.235   3.274  23.647  0.00  0.00    +0.139 C 
ATOM     16  C   UNL     1      -1.892   1.789  22.731  0.00  0.00    +0.127 C 
ATOM     17  C   UNL     1      -3.541   3.111  23.995  0.00  0.00    +0.219 C 
ATOM     18  C   UNL     1      -0.610   1.013  22.999  0.00  0.00    +0.127 C 
ATOM     23  C   UNL     1       1.864   1.470  23.198  0.00  0.00    +0.219 C 
ENDROOT
BRANCH  23  21
ATOM      7  N   UNL     1       4.957  -0.538  22.618  0.00  0.00    -0.316 NA
ATOM     21  C   UNL     1       2.088   0.038  22.803  0.00  0.00    +0.078 C 
ATOM     24  C   UNL     1       2.825  -0.050  21.464  0.00  0.00    +0.028 C 
ATOM     25  C   UNL     1       2.847  -0.717  23.896  0.00  0.00    +0.028 C 
ATOM     27  C   UNL     1       4.311   0.286  21.598  0.00  0.00    +0.081 C 
ATOM     28  C   UNL     1       4.332  -0.353  23.927  0.00  0.00    +0.081 C 
ATOM     40  H   UNL     1       5.944  -0.289  22.677  0.00  0.00    +0.122 HD
ENDBRANCH  23  21
BRANCH  17  11
ATOM     11  C   UNL     1      -3.814   4.109  25.082  0.00  0.00    +0.075 C 
ATOM     13  C   UNL     1      -4.127   3.386  26.393  0.00  0.00    +0.013 C 
ATOM     14  C   UNL     1      -4.916   5.086  24.667  0.00  0.00    +0.013 C 
ATOM     19  C   UNL     1      -5.534   2.792  26.429  0.00  0.00    +0.001 C 
ATOM     20  C   UNL     1      -6.319   4.485  24.735  0.00  0.00    +0.001 C 
ATOM     22  C   UNL     1      -6.593   3.834  26.087  0.00  0.00    +0.000 C 
ENDBRANCH  17  11
BRANCH  12  26
ATOM      3  O   UNL     1      -1.577   3.115  26.763  0.00  0.00    -0.274 OA
ATOM      8  N   UNL     1       0.112   1.824  25.814  0.00  0.00    -0.302 N 
ATOM     26  C   UNL     1      -0.893   2.776  25.800  0.00  0.00    +0.236 C 
ATOM     41  H   UNL     1       0.565   1.573  24.940  0.00  0.00    +0.150 HD
BRANCH   8  29
ATOM     29  C   UNL     1       0.488   1.088  27.000  0.00  0.00    +0.163 C 
BRANCH  29  32
ATOM      4  O   UNL     1      -0.035   2.309  29.035  0.00  0.00    -0.274 OA
ATOM     10  N   UNL     1       1.948   2.755  27.966  0.00  0.00    -0.328 N 
ATOM     32  C   UNL     1       0.737   2.110  28.100  0.00  0.00    +0.231 C 
ATOM     43  H   UNL     1       2.245   3.452  28.641  0.00  0.00    +0.145 HD
ATOM     44  H   UNL     1       2.586   2.563  27.200  0.00  0.00    +0.145 HD
ENDBRANCH  29  32
BRANCH  29  30
ATOM     30  C   UNL     1      -0.593   0.091  27.432  0.00  0.00    +0.069 C 
BRANCH  30  31
ATOM      9  N   UNL     1      -0.949  -2.461  24.800  0.00  0.00    -0.360 N 
ATOM     31  C   UNL     1      -1.002  -0.845  26.320  0.00  0.00    -0.020 A 
ATOM     33  C   UNL     1      -2.254  -0.860  25.644  0.00  0.00    +0.003 A 
ATOM     34  C   UNL     1      -0.222  -1.840  25.779  0.00  0.00    +0.087 A 
ATOM     35  C   UNL     1      -2.194  -1.883  24.695  0.00  0.00    +0.047 A 
ATOM     36  C   UNL     1      -3.436  -0.099  25.748  0.00  0.00    +0.010 A 
ATOM     37  C   UNL     1      -3.262  -2.185  23.842  0.00  0.00    +0.026 A 
ATOM     38  C   UNL     1      -4.512  -0.390  24.901  0.00  0.00    +0.001 A 
ATOM     39  C   UNL     1      -4.423  -1.418  23.964  0.00  0.00    +0.002 A 
ATOM     42  H   UNL     1      -0.621  -3.232  24.235  0.00  0.00    +0.165 HD
ENDBRANCH  30  31
ENDBRANCH  29  30
ENDBRANCH   8  29
ENDBRANCH  12  26
TORSDOF 7
ENDMDL
MODEL 4
REMARK VINA RESULT:      13.5      1.477      1.928
REMARK  Name = 45361711
REMARK  7 active torsions:
REMARK  status: ('A' for Active; 'I' for Inactive)
REMARK    1  A    between atoms: N_8  and  C_29
REMARK    2  A    between atoms: C_11  and  C_17
REMARK    3  A    between atoms: C_12  and  C_26
REMARK    4  A    between atoms: C_21  and  C_23
REMARK    5  A    between atoms: C_29  and  C_30
REMARK    6  A    between atoms: C_29  and  C_32
REMARK    7  A    between atoms: C_30  and  C_31
REMARK                            x       y       z     vdW  Elec       q    Type
REMARK                         _______ _______ _______ _____ _____    ______ ____
ROOT
ATOM      1  O   UNL     1      -0.842  -2.667  25.477  0.00  0.00    -0.275 OA
ATOM      2  O   UNL     1       3.933   1.417  21.702  0.00  0.00    -0.275 OA
ATOM      5  N   UNL     1       0.300  -1.058  24.246  0.00  0.00    -0.287 N 
ATOM      6  N   UNL     1       2.780   0.061  23.197  0.00  0.00    -0.298 N 
ATOM     12  C   UNL     1       0.289   0.067  23.301  0.00  0.00    +0.179 C 
ATOM     15  C   UNL     1       1.538   0.113  22.421  0.00  0.00    +0.139 C 
ATOM     16  C   UNL     1       1.593  -1.706  24.485  0.00  0.00    +0.127 C 
ATOM     17  C   UNL     1      -0.848  -1.638  24.796  0.00  0.00    +0.219 C 
ATOM     18  C   UNL     1       2.760  -0.730  24.432  0.00  0.00    +0.127 C 
ATOM     23  C   UNL     1       3.905   0.749  22.738  0.00  0.00    +0.219 C 
ENDROOT
BRANCH  23  21
ATOM      7  N   UNL     1       6.301  -2.044  23.367  0.00  0.00    -0.316 NA
ATOM     21  C   UNL     1       5.141   0.641  23.585  0.00  0.00    +0.078 C 
ATOM     24  C   UNL     1       4.966  -0.421  24.672  0.00  0.00    +0.028 C 
ATOM     25  C   UNL     1       6.369   0.343  22.721  0.00  0.00    +0.028 C 
ATOM     27  C   UNL     1       5.060  -1.843  24.115  0.00  0.00    +0.081 C 
ATOM     28  C   UNL     1       6.404  -1.111  22.246  0.00  0.00    +0.081 C 
ATOM     40  H   UNL     1       6.330  -3.000  23.014  0.00  0.00    +0.122 HD
ENDBRANCH  23  21
BRANCH  17  11
ATOM     11  C   UNL     1      -2.153  -0.947  24.520  0.00  0.00    +0.075 C 
ATOM     13  C   UNL     1      -3.053  -1.012  25.754  0.00  0.00    +0.013 C 
ATOM     14  C   UNL     1      -2.822  -1.518  23.268  0.00  0.00    +0.013 C 
ATOM     19  C   UNL     1      -3.694  -2.384  25.958  0.00  0.00    +0.001 C 
ATOM     20  C   UNL     1      -3.481  -2.877  23.496  0.00  0.00    +0.001 C 
ATOM     22  C   UNL     1      -4.414  -2.861  24.702  0.00  0.00    +0.000 C 
ENDBRANCH  17  11
BRANCH  12  26
ATOM      3  O   UNL     1       0.702   2.383  23.726  0.00  0.00    -0.274 OA
ATOM      8  N   UNL     1      -0.537   1.158  25.270  0.00  0.00    -0.302 N 
ATOM     26  C   UNL     1       0.180   1.335  24.100  0.00  0.00    +0.236 C 
ATOM     41  H   UNL     1      -0.985   0.262  25.443  0.00  0.00    +0.150 HD
BRANCH   8  29
ATOM     29  C   UNL     1      -0.767   2.217  26.226  0.00  0.00    +0.163 C 
BRANCH  29  32
ATOM      4  O   UNL     1       1.543   2.935  26.456  0.00  0.00    -0.274 OA
ATOM     10  N   UNL     1       0.471   2.079  28.298  0.00  0.00    -0.328 N 
ATOM     32  C   UNL     1       0.542   2.441  26.969  0.00  0.00    +0.231 C 
ATOM     43  H   UNL     1       1.270   2.189  28.911  0.00  0.00    +0.145 HD
ATOM     44  H   UNL     1      -0.372   1.693  28.713  0.00  0.00    +0.145 HD
ENDBRANCH  29  32
BRANCH  29  30
ATOM     30  C   UNL     1      -1.228   3.515  25.552  0.00  0.00    +0.069 C 
BRANCH  30  31
ATOM      9  N   UNL     1      -4.581   4.784  26.394  0.00  0.00    -0.360 N 
ATOM     31  C   UNL     1      -2.695   3.796  25.768  0.00  0.00    -0.020 A 
ATOM     33  C   UNL     1      -3.783   2.976  25.358  0.00  0.00    +0.003 A 
ATOM     34  C   UNL     1      -3.218   4.900  26.402  0.00  0.00    +0.087 A 
ATOM     35  C   UNL     1      -4.955   3.619  25.764  0.00  0.00    +0.047 A 
ATOM     36  C   UNL     1      -3.884   1.744  24.681  0.00  0.00    +0.010 A 
ATOM     37  C   UNL     1      -6.229   3.090  25.523  0.00  0.00    +0.026 A 
ATOM     38  C   UNL     1      -5.151   1.204  24.433  0.00  0.00    +0.001 A 
ATOM     39  C   UNL     1      -6.304   1.868  24.849  0.00  0.00    +0.002 A 
ATOM     42  H   UNL     1      -5.222   5.456  26.793  0.00  0.00    +0.165 HD
ENDBRANCH  30  31
ENDBRANCH  29  30
ENDBRANCH   8  29
ENDBRANCH  12  26
TORSDOF 7
ENDMDL
MODEL 5
REMARK VINA RESULT:      14.7      2.607      4.499
REMARK  Name = 45361711
REMARK  7 active torsions:
REMARK  status: ('A' for Active; 'I' for Inactive)
REMARK    1  A    between atoms: N_8  and  C_29
REMARK    2  A    between atoms: C_11  and  C_17
REMARK    3  A    between atoms: C_12  and  C_26
REMARK    4  A    between atoms: C_21  and  C_23
REMARK    5  A    between atoms: C_29  and  C_30
REMARK    6  A    between atoms: C_29  and  C_32
REMARK    7  A    between atoms: C_30  and  C_31
REMARK                            x       y       z     vdW  Elec       q    Type
REMARK                         _______ _______ _______ _____ _____    ______ ____
ROOT
ATOM      1  O   UNL     1      -4.117  -0.102  26.131  0.00  0.00    -0.275 OA
ATOM      2  O   UNL     1       1.677  -0.227  21.642  0.00  0.00    -0.275 OA
ATOM      5  N   UNL     1      -2.535   0.186  24.451  0.00  0.00    -0.287 N 
ATOM      6  N   UNL     1       0.166  -0.167  23.408  0.00  0.00    -0.298 N 
ATOM     12  C   UNL     1      -2.197   0.557  23.071  0.00  0.00    +0.179 C 
ATOM     15  C   UNL     1      -1.002  -0.225  22.524  0.00  0.00    +0.139 C 
ATOM     16  C   UNL     1      -1.510  -0.537  25.209  0.00  0.00    +0.127 C 
ATOM     17  C   UNL     1      -3.804   0.337  25.021  0.00  0.00    +0.219 C 
ATOM     18  C   UNL     1      -0.095  -0.106  24.849  0.00  0.00    +0.127 C 
ATOM     23  C   UNL     1       1.447  -0.176  22.853  0.00  0.00    +0.219 C 
ENDROOT
BRANCH  23  21
ATOM      7  N   UNL     1       5.141   0.111  22.395  0.00  0.00    -0.316 NA
ATOM     21  C   UNL     1       2.591  -0.123  23.825  0.00  0.00    +0.078 C 
ATOM     24  C   UNL     1       3.534  -1.312  23.624  0.00  0.00    +0.028 C 
ATOM     25  C   UNL     1       3.348   1.202  23.704  0.00  0.00    +0.028 C 
ATOM     27  C   UNL     1       4.408  -1.154  22.379  0.00  0.00    +0.081 C 
ATOM     28  C   UNL     1       4.230   1.254  22.456  0.00  0.00    +0.081 C 
ATOM     40  H   UNL     1       5.713   0.181  21.554  0.00  0.00    +0.122 HD
ENDBRANCH  23  21
BRANCH  17  11
ATOM     11  C   UNL     1      -4.826   1.077  24.208  0.00  0.00    +0.075 C 
ATOM     13  C   UNL     1      -4.489   2.569  24.173  0.00  0.00    +0.013 C 
ATOM     14  C   UNL     1      -6.240   0.801  24.721  0.00  0.00    +0.013 C 
ATOM     19  C   UNL     1      -4.835   3.292  25.473  0.00  0.00    +0.001 C 
ATOM     20  C   UNL     1      -6.580   1.554  26.006  0.00  0.00    +0.001 C 
ATOM     22  C   UNL     1      -6.281   3.044  25.888  0.00  0.00    +0.000 C 
ENDBRANCH  17  11
BRANCH  12  26
ATOM      3  O   UNL     1      -2.302   2.762  22.153  0.00  0.00    -0.274 OA
ATOM      8  N   UNL     1      -1.114   2.419  24.125  0.00  0.00    -0.302 N 
ATOM     26  C   UNL     1      -1.896   2.029  23.051  0.00  0.00    +0.236 C 
ATOM     41  H   UNL     1      -0.895   1.738  24.848  0.00  0.00    +0.150 HD
BRANCH   8  29
ATOM     29  C   UNL     1      -0.667   3.778  24.326  0.00  0.00    +0.163 C 
BRANCH  29  32
ATOM      4  O   UNL     1      -2.228   4.438  26.067  0.00  0.00    -0.274 OA
ATOM     10  N   UNL     1      -2.391   5.441  24.007  0.00  0.00    -0.328 N 
ATOM     32  C   UNL     1      -1.839   4.554  24.907  0.00  0.00    +0.231 C 
ATOM     43  H   UNL     1      -3.173   6.032  24.270  0.00  0.00    +0.145 HD
ATOM     44  H   UNL     1      -2.045   5.542  23.058  0.00  0.00    +0.145 HD
ENDBRANCH  29  32
BRANCH  29  30
ATOM     30  C   UNL     1       0.544   3.857  25.264  0.00  0.00    +0.069 C 
BRANCH  30  31
ATOM      9  N   UNL     1      -0.477   1.625  28.010  0.00  0.00    -0.360 N 
ATOM     31  C   UNL     1       0.371   3.027  26.512  0.00  0.00    -0.020 A 
ATOM     33  C   UNL     1       1.268   2.958  27.614  0.00  0.00    +0.003 A 
ATOM     34  C   UNL     1      -0.692   2.197  26.785  0.00  0.00    +0.087 A 
ATOM     35  C   UNL     1       0.712   2.072  28.540  0.00  0.00    +0.047 A 
ATOM     36  C   UNL     1       2.503   3.567  27.915  0.00  0.00    +0.010 A 
ATOM     37  C   UNL     1       1.333   1.763  29.756  0.00  0.00    +0.026 A 
ATOM     38  C   UNL     1       3.135   3.267  29.127  0.00  0.00    +0.001 A 
ATOM     39  C   UNL     1       2.556   2.378  30.032  0.00  0.00    +0.002 A 
ATOM     42  H   UNL     1      -1.100   0.971  28.461  0.00  0.00    +0.165 HD
ENDBRANCH  30  31
ENDBRANCH  29  30
ENDBRANCH   8  29
ENDBRANCH  12  26
TORSDOF 7
ENDMDL
MODEL 6
REMARK VINA RESULT:      15.9      2.090      6.922
REMARK  Name = 45361711
REMARK  7 active torsions:
REMARK  status: ('A' for Active; 'I' for Inactive)
REMARK    1  A    between atoms: N_8  and  C_29
REMARK    2  A    between atoms: C_11  and  C_17
REMARK    3  A    between atoms: C_12  and  C_26
REMARK    4  A    between atoms: C_21  and  C_23
REMARK    5  A    between atoms: C_29  and  C_30
REMARK    6  A    between atoms: C_29  and  C_32
REMARK    7  A    between atoms: C_30  and  C_31
REMARK                            x       y       z     vdW  Elec       q    Type
REMARK                         _______ _______ _______ _____ _____    ______ ____
ROOT
ATOM      1  O   UNL     1       3.775   2.240  22.803  0.00  0.00    -0.275 OA
ATOM      2  O   UNL     1      -3.539   2.072  23.266  0.00  0.00    -0.275 OA
ATOM      5  N   UNL     1       1.522   1.711  23.033  0.00  0.00    -0.287 N 
ATOM      6  N   UNL     1      -1.260   2.511  23.390  0.00  0.00    -0.298 N 
ATOM     12  C   UNL     1       0.431   0.729  22.962  0.00  0.00    +0.179 C 
ATOM     15  C   UNL     1      -0.904   1.357  22.561  0.00  0.00    +0.139 C 
ATOM     16  C   UNL     1       1.135   3.122  23.101  0.00  0.00    +0.127 C 
ATOM     17  C   UNL     1       2.877   1.397  22.881  0.00  0.00    +0.219 C 
ATOM     18  C   UNL     1      -0.156   3.344  23.878  0.00  0.00    +0.127 C 
ATOM     23  C   UNL     1      -2.604   2.766  23.672  0.00  0.00    +0.219 C 
ENDROOT
BRANCH  23  21
ATOM      7  N   UNL     1      -5.205   3.487  26.251  0.00  0.00    -0.316 NA
ATOM     21  C   UNL     1      -2.887   3.972  24.521  0.00  0.00    +0.078 C 
ATOM     24  C   UNL     1      -4.274   4.541  24.216  0.00  0.00    +0.028 C 
ATOM     25  C   UNL     1      -2.748   3.637  26.008  0.00  0.00    +0.028 C 
ATOM     27  C   UNL     1      -5.395   3.689  24.815  0.00  0.00    +0.081 C 
ATOM     28  C   UNL     1      -3.932   2.823  26.531  0.00  0.00    +0.081 C 
ATOM     40  H   UNL     1      -5.969   2.919  26.615  0.00  0.00    +0.122 HD
ENDBRANCH  23  21
BRANCH  17  11
ATOM     11  C   UNL     1       3.229  -0.060  22.808  0.00  0.00    +0.075 C 
ATOM     13  C   UNL     1       3.682  -0.562  24.179  0.00  0.00    +0.013 C 
ATOM     14  C   UNL     1       4.264  -0.320  21.711  0.00  0.00    +0.013 C 
ATOM     19  C   UNL     1       5.100  -0.122  24.541  0.00  0.00    +0.001 C 
ATOM     20  C   UNL     1       5.681   0.099  22.099  0.00  0.00    +0.001 C 
ATOM     22  C   UNL     1       6.097  -0.482  23.445  0.00  0.00    +0.000 C 
ENDBRANCH  17  11
BRANCH  12  26
ATOM      3  O   UNL     1       0.333  -1.138  24.453  0.00  0.00    -0.274 OA
ATOM      8  N   UNL     1       0.142   1.012  25.325  0.00  0.00    -0.302 N 
ATOM     26  C   UNL     1       0.307   0.083  24.313  0.00  0.00    +0.236 C 
ATOM     41  H   UNL     1       0.208   2.002  25.101  0.00  0.00    +0.150 HD
BRANCH   8  29
ATOM     29  C   UNL     1      -0.023   0.649  26.714  0.00  0.00    +0.163 C 
BRANCH  29  32
ATOM      4  O   UNL     1       0.226   1.922  28.768  0.00  0.00    -0.274 OA
ATOM     10  N   UNL     1       0.655   2.968  26.768  0.00  0.00    -0.328 N 
ATOM     32  C   UNL     1       0.274   1.891  27.540  0.00  0.00    +0.231 C 
ATOM     43  H   UNL     1       0.895   3.856  27.195  0.00  0.00    +0.145 HD
ATOM     44  H   UNL     1       0.712   2.920  25.756  0.00  0.00    +0.145 HD
ENDBRANCH  29  32
BRANCH  29  30
ATOM     30  C   UNL     1      -1.435   0.132  27.014  0.00  0.00    +0.069 C 
BRANCH  30  31
ATOM      9  N   UNL     1      -1.766  -3.067  25.220  0.00  0.00    -0.360 N 
ATOM     31  C   UNL     1      -1.811  -1.063  26.172  0.00  0.00    -0.020 A 
ATOM     33  C   UNL     1      -2.956  -1.183  25.336  0.00  0.00    +0.003 A 
ATOM     34  C   UNL     1      -1.100  -2.237  26.079  0.00  0.00    +0.087 A 
ATOM     35  C   UNL     1      -2.903  -2.450  24.750  0.00  0.00    +0.047 A 
ATOM     36  C   UNL     1      -4.035  -0.333  25.019  0.00  0.00    +0.010 A 
ATOM     37  C   UNL     1      -3.881  -2.912  23.860  0.00  0.00    +0.026 A 
ATOM     38  C   UNL     1      -5.019  -0.782  24.131  0.00  0.00    +0.001 A 
ATOM     39  C   UNL     1      -4.941  -2.052  23.562  0.00  0.00    +0.002 A 
ATOM     42  H   UNL     1      -1.468  -3.999  24.965  0.00  0.00    +0.165 HD
ENDBRANCH  30  31
ENDBRANCH  29  30
ENDBRANCH   8  29
ENDBRANCH  12  26
TORSDOF 7
ENDMDL
MODEL 7
REMARK VINA RESULT:      16.4      1.881      6.600
REMARK  Name = 45361711
REMARK  7 active torsions:
REMARK  status: ('A' for Active; 'I' for Inactive)
REMARK    1  A    between atoms: N_8  and  C_29
REMARK    2  A    between atoms: C_11  and  C_17
REMARK    3  A    between atoms: C_12  and  C_26
REMARK    4  A    between atoms: C_21  and  C_23
REMARK    5  A    between atoms: C_29  and  C_30
REMARK    6  A    between atoms: C_29  and  C_32
REMARK    7  A    between atoms: C_30  and  C_31
REMARK                            x       y       z     vdW  Elec       q    Type
REMARK                         _______ _______ _______ _____ _____    ______ ____
ROOT
ATOM      1  O   UNL     1       3.620   1.471  24.175  0.00  0.00    -0.275 OA
ATOM      2  O   UNL     1      -3.507   2.305  22.676  0.00  0.00    -0.275 OA
ATOM      5  N   UNL     1       1.402   1.292  23.499  0.00  0.00    -0.287 N 
ATOM      6  N   UNL     1      -1.367   2.205  23.578  0.00  0.00    -0.298 N 
ATOM     12  C   UNL     1       0.386   0.723  22.603  0.00  0.00    +0.179 C 
ATOM     15  C   UNL     1      -0.777   1.682  22.343  0.00  0.00    +0.139 C 
ATOM     16  C   UNL     1       1.003   2.459  24.291  0.00  0.00    +0.127 C 
ATOM     17  C   UNL     1       2.744   0.897  23.523  0.00  0.00    +0.219 C 
ATOM     18  C   UNL     1      -0.460   2.416  24.711  0.00  0.00    +0.127 C 
ATOM     23  C   UNL     1      -2.736   2.478  23.622  0.00  0.00    +0.219 C 
ENDROOT
BRANCH  23  21
ATOM      7  N   UNL     1      -2.569   5.855  25.206  0.00  0.00    -0.316 NA
ATOM     21  C   UNL     1      -3.263   3.020  24.920  0.00  0.00    +0.078 C 
ATOM     24  C   UNL     1      -2.119   3.500  25.816  0.00  0.00    +0.028 C 
ATOM     25  C   UNL     1      -4.273   4.143  24.673  0.00  0.00    +0.028 C 
ATOM     27  C   UNL     1      -1.533   4.832  25.343  0.00  0.00    +0.081 C 
ATOM     28  C   UNL     1      -3.596   5.447  24.248  0.00  0.00    +0.081 C 
ATOM     40  H   UNL     1      -2.143   6.726  24.892  0.00  0.00    +0.122 HD
ENDBRANCH  23  21
BRANCH  17  11
ATOM     11  C   UNL     1       3.110  -0.298  22.691  0.00  0.00    +0.075 C 
ATOM     13  C   UNL     1       3.414  -1.494  23.594  0.00  0.00    +0.013 C 
ATOM     14  C   UNL     1       4.260   0.030  21.736  0.00  0.00    +0.013 C 
ATOM     19  C   UNL     1       4.781  -1.404  24.270  0.00  0.00    +0.001 C 
ATOM     20  C   UNL     1       5.624   0.089  22.423  0.00  0.00    +0.001 C 
ATOM     22  C   UNL     1       5.894  -1.158  23.258  0.00  0.00    +0.000 C 
ENDBRANCH  17  11
BRANCH  12  26
ATOM      3  O   UNL     1      -0.059  -1.625  22.659  0.00  0.00    -0.274 OA
ATOM      8  N   UNL     1      -0.677  -0.318  24.483  0.00  0.00    -0.302 N 
ATOM     26  C   UNL     1      -0.126  -0.541  23.234  0.00  0.00    +0.236 C 
ATOM     41  H   UNL     1      -0.614   0.611  24.892  0.00  0.00    +0.150 HD
BRANCH   8  29
ATOM     29  C   UNL     1      -1.260  -1.366  25.290  0.00  0.00    +0.163 C 
BRANCH  29  32
ATOM      4  O   UNL     1       0.685  -2.687  25.902  0.00  0.00    -0.274 OA
ATOM     10  N   UNL     1      -0.212  -1.265  27.466  0.00  0.00    -0.328 N 
ATOM     32  C   UNL     1      -0.171  -1.867  26.226  0.00  0.00    +0.231 C 
ATOM     43  H   UNL     1       0.467  -1.499  28.182  0.00  0.00    +0.145 HD
ATOM     44  H   UNL     1      -0.913  -0.572  27.712  0.00  0.00    +0.145 HD
ENDBRANCH  29  32
BRANCH  29  30
ATOM     30  C   UNL     1      -2.471  -0.875  26.092  0.00  0.00    +0.069 C 
BRANCH  30  31
ATOM      9  N   UNL     1      -5.071  -0.499  23.512  0.00  0.00    -0.360 N 
ATOM     31  C   UNL     1      -3.651  -0.531  25.217  0.00  0.00    -0.020 A 
ATOM     33  C   UNL     1      -4.687   0.397  25.518  0.00  0.00    +0.003 A 
ATOM     34  C   UNL     1      -3.916  -1.065  23.977  0.00  0.00    +0.087 A 
ATOM     35  C   UNL     1      -5.564   0.398  24.432  0.00  0.00    +0.047 A 
ATOM     36  C   UNL     1      -4.962   1.240  26.614  0.00  0.00    +0.010 A 
ATOM     37  C   UNL     1      -6.709   1.202  24.386  0.00  0.00    +0.026 A 
ATOM     38  C   UNL     1      -6.103   2.049  26.582  0.00  0.00    +0.001 A 
ATOM     39  C   UNL     1      -6.962   2.029  25.484  0.00  0.00    +0.002 A 
ATOM     42  H   UNL     1      -5.501  -0.708  22.621  0.00  0.00    +0.165 HD
ENDBRANCH  30  31
ENDBRANCH  29  30
ENDBRANCH   8  29
ENDBRANCH  12  26
TORSDOF 7
ENDMDL
MODEL 8
REMARK VINA RESULT:      16.4      3.013      7.449
REMARK  Name = 45361711
REMARK  7 active torsions:
REMARK  status: ('A' for Active; 'I' for Inactive)
REMARK    1  A    between atoms: N_8  and  C_29
REMARK    2  A    between atoms: C_11  and  C_17
REMARK    3  A    between atoms: C_12  and  C_26
REMARK    4  A    between atoms: C_21  and  C_23
REMARK    5  A    between atoms: C_29  and  C_30
REMARK    6  A    between atoms: C_29  and  C_32
REMARK    7  A    between atoms: C_30  and  C_31
REMARK                            x       y       z     vdW  Elec       q    Type
REMARK                         _______ _______ _______ _____ _____    ______ ____
ROOT
ATOM      1  O   UNL     1       1.185   0.170  21.513  0.00  0.00    -0.275 OA
ATOM      2  O   UNL     1      -4.739  -0.162  25.818  0.00  0.00    -0.275 OA
ATOM      5  N   UNL     1      -0.368   0.061  23.241  0.00  0.00    -0.287 N 
ATOM      6  N   UNL     1      -3.105   0.278  24.224  0.00  0.00    -0.298 N 
ATOM     12  C   UNL     1      -0.714  -0.308  24.620  0.00  0.00    +0.179 C 
ATOM     15  C   UNL     1      -2.179  -0.717  24.773  0.00  0.00    +0.139 C 
ATOM     16  C   UNL     1      -1.483   0.359  22.339  0.00  0.00    +0.127 C 
ATOM     17  C   UNL     1       0.923  -0.007  22.706  0.00  0.00    +0.219 C 
ATOM     18  C   UNL     1      -2.653   1.027  23.047  0.00  0.00    +0.127 C 
ATOM     23  C   UNL     1      -4.350   0.463  24.828  0.00  0.00    +0.219 C 
ENDROOT
BRANCH  23  21
ATOM      7  N   UNL     1      -5.867   3.618  26.126  0.00  0.00    -0.316 NA
ATOM     21  C   UNL     1      -5.245   1.494  24.202  0.00  0.00    +0.078 C 
ATOM     24  C   UNL     1      -6.585   1.572  24.936  0.00  0.00    +0.028 C 
ATOM     25  C   UNL     1      -4.559   2.862  24.166  0.00  0.00    +0.028 C 
ATOM     27  C   UNL     1      -6.469   2.295  26.279  0.00  0.00    +0.081 C 
ATOM     28  C   UNL     1      -4.528   3.530  25.542  0.00  0.00    +0.081 C 
ATOM     40  H   UNL     1      -5.807   4.069  27.038  0.00  0.00    +0.122 HD
ENDBRANCH  23  21
BRANCH  17  11
ATOM     11  C   UNL     1       2.036  -0.322  23.663  0.00  0.00    +0.075 C 
ATOM     13  C   UNL     1       2.740   0.965  24.093  0.00  0.00    +0.013 C 
ATOM     14  C   UNL     1       2.997  -1.353  23.068  0.00  0.00    +0.013 C 
ATOM     19  C   UNL     1       3.671   1.526  23.019  0.00  0.00    +0.001 C 
ATOM     20  C   UNL     1       3.940  -0.770  22.017  0.00  0.00    +0.001 C 
ATOM     22  C   UNL     1       4.659   0.475  22.526  0.00  0.00    +0.000 C 
ENDBRANCH  17  11
BRANCH  12  26
ATOM      3  O   UNL     1      -0.495   0.806  26.724  0.00  0.00    -0.274 OA
ATOM      8  N   UNL     1      -0.088   2.002  24.769  0.00  0.00    -0.302 N 
ATOM     26  C   UNL     1      -0.418   0.874  25.500  0.00  0.00    +0.236 C 
ATOM     41  H   UNL     1       0.014   1.923  23.760  0.00  0.00    +0.150 HD
BRANCH   8  29
ATOM     29  C   UNL     1       0.218   3.277  25.376  0.00  0.00    +0.163 C 
BRANCH  29  32
ATOM      4  O   UNL     1      -0.251   4.635  23.417  0.00  0.00    -0.274 OA
ATOM     10  N   UNL     1      -1.563   4.908  25.281  0.00  0.00    -0.328 N 
ATOM     32  C   UNL     1      -0.521   4.341  24.579  0.00  0.00    +0.231 C 
ATOM     43  H   UNL     1      -2.147   5.623  24.861  0.00  0.00    +0.145 HD
ATOM     44  H   UNL     1      -1.788   4.639  26.234  0.00  0.00    +0.145 HD
ENDBRANCH  29  32
BRANCH  29  30
ATOM     30  C   UNL     1      -0.196   3.330  26.851  0.00  0.00    +0.069 C 
BRANCH  30  31
ATOM      9  N   UNL     1       2.905   2.300  28.551  0.00  0.00    -0.360 N 
ATOM     31  C   UNL     1       0.913   2.907  27.785  0.00  0.00    -0.020 A 
ATOM     33  C   UNL     1       0.804   2.698  29.188  0.00  0.00    +0.003 A 
ATOM     34  C   UNL     1       2.216   2.655  27.423  0.00  0.00    +0.087 A 
ATOM     35  C   UNL     1       2.068   2.318  29.644  0.00  0.00    +0.047 A 
ATOM     36  C   UNL     1      -0.252   2.795  30.116  0.00  0.00    +0.010 A 
ATOM     37  C   UNL     1       2.331   2.029  30.988  0.00  0.00    +0.026 A 
ATOM     38  C   UNL     1      -0.003   2.510  31.464  0.00  0.00    +0.001 A 
ATOM     39  C   UNL     1       1.269   2.133  31.890  0.00  0.00    +0.002 A 
ATOM     42  H   UNL     1       3.886   2.060  28.579  0.00  0.00    +0.165 HD
ENDBRANCH  30  31
ENDBRANCH  29  30
ENDBRANCH   8  29
ENDBRANCH  12  26
TORSDOF 7
ENDMDL
