MODEL 1
REMARK VINA RESULT:      -4.6      0.000      0.000
REMARK  Name = 25338997
REMARK  9 active torsions:
REMARK  status: ('A' for Active; 'I' for Inactive)
REMARK    1  A    between atoms: O_1  and  C_15
REMARK    2  A    between atoms: O_1  and  C_20
REMARK    3  A    between atoms: O_4  and  C_19
REMARK    4  A    between atoms: O_4  and  C_21
REMARK    5  A    between atoms: N_6  and  C_13
REMARK    6  A    between atoms: C_8  and  C_15
REMARK    7  A    between atoms: C_13  and  C_17
REMARK    8  A    between atoms: C_13  and  C_18
REMARK    9  A    between atoms: C_16  and  C_19
REMARK                            x       y       z     vdW  Elec       q    Type
REMARK                         _______ _______ _______ _____ _____    ______ ____
ROOT
ATOM      3  O   UNL     1      -2.392   4.863  25.777  0.00  0.00    -0.273 OA
ATOM      5  N   UNL     1      -2.198   2.622  25.161  0.00  0.00    -0.280 N 
ATOM      6  N   UNL     1      -2.488  -1.087  24.700  0.00  0.00    -0.330 N 
ATOM      7  N   UNL     1      -0.692  -1.186  26.024  0.00  0.00    -0.240 NA
ATOM      8  C   UNL     1      -0.763   2.569  25.550  0.00  0.00    +0.191 C 
ATOM      9  C   UNL     1      -2.148   0.203  24.982  0.00  0.00    +0.059 A 
ATOM     10  C   UNL     1      -0.355   1.302  26.333  0.00  0.00    +0.091 C 
ATOM     11  C   UNL     1      -2.810   1.431  24.507  0.00  0.00    +0.163 C 
ATOM     12  C   UNL     1      -1.043   0.114  25.792  0.00  0.00    +0.066 A 
ATOM     14  C   UNL     1      -1.582  -1.887  25.350  0.00  0.00    +0.200 A 
ATOM     16  C   UNL     1      -2.862   3.855  25.245  0.00  0.00    +0.242 C 
ENDROOT
BRANCH   6  13
ATOM     13  C   UNL     1      -3.582  -1.541  23.875  0.00  0.00    +0.082 C 
ATOM     17  C   UNL     1      -4.858  -0.739  24.140  0.00  0.00    +0.030 C 
ATOM     18  C   UNL     1      -3.833  -3.040  24.051  0.00  0.00    +0.030 C 
ENDBRANCH   6  13
BRANCH   8  15
ATOM      2  O   UNL     1      -0.227   3.554  23.416  0.00  0.00    -0.249 OA
ATOM     15  C   UNL     1       0.019   2.718  24.276  0.00  0.00    +0.328 C 
BRANCH  15   1
ATOM      1  O   UNL     1       1.018   1.791  24.243  0.00  0.00    -0.467 OA
ATOM     20  C   UNL     1       0.937   0.838  23.178  0.00  0.00    +0.280 C 
ENDBRANCH  15   1
ENDBRANCH   8  15
BRANCH  16  19
ATOM     19  C   UNL     1      -4.244   3.914  24.641  0.00  0.00    +0.255 C 
BRANCH  19   4
ATOM      4  O   UNL     1      -5.154   3.819  25.709  0.00  0.00    -0.374 OA
ATOM     21  C   UNL     1      -5.822   2.559  25.735  0.00  0.00    +0.194 C 
ENDBRANCH  19   4
ENDBRANCH  16  19
TORSDOF 5
ENDMDL
MODEL 2
REMARK VINA RESULT:      -4.1      2.266      4.720
REMARK  Name = 25338997
REMARK  9 active torsions:
REMARK  status: ('A' for Active; 'I' for Inactive)
REMARK    1  A    between atoms: O_1  and  C_15
REMARK    2  A    between atoms: O_1  and  C_20
REMARK    3  A    between atoms: O_4  and  C_19
REMARK    4  A    between atoms: O_4  and  C_21
REMARK    5  A    between atoms: N_6  and  C_13
REMARK    6  A    between atoms: C_8  and  C_15
REMARK    7  A    between atoms: C_13  and  C_17
REMARK    8  A    between atoms: C_13  and  C_18
REMARK    9  A    between atoms: C_16  and  C_19
REMARK                            x       y       z     vdW  Elec       q    Type
REMARK                         _______ _______ _______ _____ _____    ______ ____
ROOT
ATOM      3  O   UNL     1      -1.084  -2.138  24.103  0.00  0.00    -0.273 OA
ATOM      5  N   UNL     1      -2.116  -0.070  24.414  0.00  0.00    -0.280 N 
ATOM      6  N   UNL     1      -4.419   2.882  24.599  0.00  0.00    -0.330 N 
ATOM      7  N   UNL     1      -3.350   3.572  22.764  0.00  0.00    -0.240 NA
ATOM      8  C   UNL     1      -1.106   0.635  23.580  0.00  0.00    +0.191 C 
ATOM      9  C   UNL     1      -3.456   1.951  24.343  0.00  0.00    +0.059 A 
ATOM     10  C   UNL     1      -1.694   1.667  22.594  0.00  0.00    +0.091 C 
ATOM     11  C   UNL     1      -3.155   0.734  25.118  0.00  0.00    +0.163 C 
ATOM     12  C   UNL     1      -2.814   2.400  23.216  0.00  0.00    +0.066 A 
ATOM     14  C   UNL     1      -4.315   3.838  23.621  0.00  0.00    +0.200 A 
ATOM     16  C   UNL     1      -1.931  -1.438  24.663  0.00  0.00    +0.242 C 
ENDROOT
BRANCH   6  13
ATOM     13  C   UNL     1      -5.368   2.880  25.687  0.00  0.00    +0.082 C 
ATOM     17  C   UNL     1      -6.403   1.764  25.530  0.00  0.00    +0.030 C 
ATOM     18  C   UNL     1      -6.051   4.241  25.839  0.00  0.00    +0.030 C 
ENDBRANCH   6  13
BRANCH   8  15
ATOM      2  O   UNL     1      -0.420   1.573  25.693  0.00  0.00    -0.249 OA
ATOM     15  C   UNL     1      -0.138   1.265  24.542  0.00  0.00    +0.328 C 
BRANCH  15   1
ATOM      1  O   UNL     1       1.070   1.428  23.933  0.00  0.00    -0.467 OA
ATOM     20  C   UNL     1       1.499   0.333  23.117  0.00  0.00    +0.280 C 
ENDBRANCH  15   1
ENDBRANCH   8  15
BRANCH  16  19
ATOM     19  C   UNL     1      -2.850  -2.064  25.683  0.00  0.00    +0.255 C 
BRANCH  19   4
ATOM      4  O   UNL     1      -3.609  -3.032  25.000  0.00  0.00    -0.374 OA
ATOM     21  C   UNL     1      -4.336  -2.471  23.908  0.00  0.00    +0.194 C 
ENDBRANCH  19   4
ENDBRANCH  16  19
TORSDOF 5
ENDMDL
MODEL 3
REMARK VINA RESULT:      -3.8      1.831      3.162
REMARK  Name = 25338997
REMARK  9 active torsions:
REMARK  status: ('A' for Active; 'I' for Inactive)
REMARK    1  A    between atoms: O_1  and  C_15
REMARK    2  A    between atoms: O_1  and  C_20
REMARK    3  A    between atoms: O_4  and  C_19
REMARK    4  A    between atoms: O_4  and  C_21
REMARK    5  A    between atoms: N_6  and  C_13
REMARK    6  A    between atoms: C_8  and  C_15
REMARK    7  A    between atoms: C_13  and  C_17
REMARK    8  A    between atoms: C_13  and  C_18
REMARK    9  A    between atoms: C_16  and  C_19
REMARK                            x       y       z     vdW  Elec       q    Type
REMARK                         _______ _______ _______ _____ _____    ______ ____
ROOT
ATOM      3  O   UNL     1       1.004   2.283  26.377  0.00  0.00    -0.273 OA
ATOM      5  N   UNL     1      -0.966   1.469  25.432  0.00  0.00    -0.280 N 
ATOM      6  N   UNL     1      -4.424   0.243  24.662  0.00  0.00    -0.330 N 
ATOM      7  N   UNL     1      -3.501  -1.789  24.747  0.00  0.00    -0.240 NA
ATOM      8  C   UNL     1      -0.303   0.226  24.954  0.00  0.00    +0.191 C 
ATOM      9  C   UNL     1      -3.095   0.434  24.898  0.00  0.00    +0.059 A 
ATOM     10  C   UNL     1      -1.116  -1.066  25.185  0.00  0.00    +0.091 C 
ATOM     11  C   UNL     1      -2.387   1.718  25.054  0.00  0.00    +0.163 C 
ATOM     12  C   UNL     1      -2.552  -0.826  24.942  0.00  0.00    +0.066 A 
ATOM     14  C   UNL     1      -4.620  -1.113  24.579  0.00  0.00    +0.200 A 
ATOM     16  C   UNL     1      -0.173   2.448  26.049  0.00  0.00    +0.242 C 
ENDROOT
BRANCH   6  13
ATOM     13  C   UNL     1      -5.441   1.257  24.519  0.00  0.00    +0.082 C 
ATOM     17  C   UNL     1      -4.862   2.561  23.965  0.00  0.00    +0.030 C 
ATOM     18  C   UNL     1      -6.179   1.503  25.836  0.00  0.00    +0.030 C 
ENDBRANCH   6  13
BRANCH   8  15
ATOM      2  O   UNL     1      -0.524   1.322  22.817  0.00  0.00    -0.249 OA
ATOM     15  C   UNL     1      -0.003   0.449  23.498  0.00  0.00    +0.328 C 
BRANCH  15   1
ATOM      1  O   UNL     1       0.922  -0.461  23.079  0.00  0.00    -0.467 OA
ATOM     20  C   UNL     1       2.156   0.090  22.608  0.00  0.00    +0.280 C 
ENDBRANCH  15   1
ENDBRANCH   8  15
BRANCH  16  19
ATOM     19  C   UNL     1      -0.837   3.776  26.321  0.00  0.00    +0.255 C 
BRANCH  19   4
ATOM      4  O   UNL     1      -0.661   4.558  25.165  0.00  0.00    -0.374 OA
ATOM     21  C   UNL     1      -1.688   5.536  25.017  0.00  0.00    +0.194 C 
ENDBRANCH  19   4
ENDBRANCH  16  19
TORSDOF 5
ENDMDL
MODEL 4
REMARK VINA RESULT:      -3.7      1.782      4.465
REMARK  Name = 25338997
REMARK  9 active torsions:
REMARK  status: ('A' for Active; 'I' for Inactive)
REMARK    1  A    between atoms: O_1  and  C_15
REMARK    2  A    between atoms: O_1  and  C_20
REMARK    3  A    between atoms: O_4  and  C_19
REMARK    4  A    between atoms: O_4  and  C_21
REMARK    5  A    between atoms: N_6  and  C_13
REMARK    6  A    between atoms: C_8  and  C_15
REMARK    7  A    between atoms: C_13  and  C_17
REMARK    8  A    between atoms: C_13  and  C_18
REMARK    9  A    between atoms: C_16  and  C_19
REMARK                            x       y       z     vdW  Elec       q    Type
REMARK                         _______ _______ _______ _____ _____    ______ ____
ROOT
ATOM      3  O   UNL     1       1.409   2.174  23.418  0.00  0.00    -0.273 OA
ATOM      5  N   UNL     1      -0.692   1.554  24.219  0.00  0.00    -0.280 N 
ATOM      6  N   UNL     1      -4.175   0.278  24.756  0.00  0.00    -0.330 N 
ATOM      7  N   UNL     1      -4.773   2.419  24.539  0.00  0.00    -0.240 NA
ATOM      8  C   UNL     1      -1.026   2.948  24.618  0.00  0.00    +0.191 C 
ATOM      9  C   UNL     1      -3.021   0.984  24.586  0.00  0.00    +0.059 A 
ATOM     10  C   UNL     1      -2.457   3.395  24.251  0.00  0.00    +0.091 C 
ATOM     11  C   UNL     1      -1.644   0.459  24.563  0.00  0.00    +0.163 C 
ATOM     12  C   UNL     1      -3.416   2.292  24.460  0.00  0.00    +0.066 A 
ATOM     14  C   UNL     1      -5.204   1.186  24.720  0.00  0.00    +0.200 A 
ATOM     16  C   UNL     1       0.592   1.299  23.714  0.00  0.00    +0.242 C 
ENDROOT
BRANCH   6  13
ATOM     13  C   UNL     1      -4.308  -1.147  24.944  0.00  0.00    +0.082 C 
ATOM     17  C   UNL     1      -3.352  -1.665  26.021  0.00  0.00    +0.030 C 
ATOM     18  C   UNL     1      -4.115  -1.908  23.631  0.00  0.00    +0.030 C 
ENDBRANCH   6  13
BRANCH   8  15
ATOM      2  O   UNL     1      -1.597   3.421  26.912  0.00  0.00    -0.249 OA
ATOM     15  C   UNL     1      -0.773   3.029  26.097  0.00  0.00    +0.328 C 
BRANCH  15   1
ATOM      1  O   UNL     1       0.494   2.603  26.366  0.00  0.00    -0.467 OA
ATOM     20  C   UNL     1       0.832   2.521  27.755  0.00  0.00    +0.280 C 
ENDBRANCH  15   1
ENDBRANCH   8  15
BRANCH  16  19
ATOM     19  C   UNL     1       0.963  -0.152  23.527  0.00  0.00    +0.255 C 
BRANCH  19   4
ATOM      4  O   UNL     1       1.862  -0.200  22.445  0.00  0.00    -0.374 OA
ATOM     21  C   UNL     1       3.214  -0.344  22.876  0.00  0.00    +0.194 C 
ENDBRANCH  19   4
ENDBRANCH  16  19
TORSDOF 5
ENDMDL
MODEL 5
REMARK VINA RESULT:      -3.6      1.929      4.766
REMARK  Name = 25338997
REMARK  9 active torsions:
REMARK  status: ('A' for Active; 'I' for Inactive)
REMARK    1  A    between atoms: O_1  and  C_15
REMARK    2  A    between atoms: O_1  and  C_20
REMARK    3  A    between atoms: O_4  and  C_19
REMARK    4  A    between atoms: O_4  and  C_21
REMARK    5  A    between atoms: N_6  and  C_13
REMARK    6  A    between atoms: C_8  and  C_15
REMARK    7  A    between atoms: C_13  and  C_17
REMARK    8  A    between atoms: C_13  and  C_18
REMARK    9  A    between atoms: C_16  and  C_19
REMARK                            x       y       z     vdW  Elec       q    Type
REMARK                         _______ _______ _______ _____ _____    ______ ____
ROOT
ATOM      3  O   UNL     1       2.171   2.062  23.126  0.00  0.00    -0.273 OA
ATOM      5  N   UNL     1       0.149   1.190  23.892  0.00  0.00    -0.280 N 
ATOM      6  N   UNL     1      -3.106  -0.596  24.413  0.00  0.00    -0.330 N 
ATOM      7  N   UNL     1      -4.032   1.365  23.880  0.00  0.00    -0.240 NA
ATOM      8  C   UNL     1      -0.441   2.543  24.082  0.00  0.00    +0.191 C 
ATOM      9  C   UNL     1      -2.075   0.273  24.211  0.00  0.00    +0.059 A 
ATOM     10  C   UNL     1      -1.895   2.686  23.585  0.00  0.00    +0.091 C 
ATOM     11  C   UNL     1      -0.632  -0.003  24.330  0.00  0.00    +0.163 C 
ATOM     12  C   UNL     1      -2.670   1.467  23.889  0.00  0.00    +0.066 A 
ATOM     14  C   UNL     1      -4.265   0.108  24.202  0.00  0.00    +0.200 A 
ATOM     16  C   UNL     1       1.491   1.102  23.494  0.00  0.00    +0.242 C 
ENDROOT
BRANCH   6  13
ATOM     13  C   UNL     1      -3.015  -1.989  24.784  0.00  0.00    +0.082 C 
ATOM     17  C   UNL     1      -4.023  -2.843  24.012  0.00  0.00    +0.030 C 
ATOM     18  C   UNL     1      -3.178  -2.181  26.292  0.00  0.00    +0.030 C 
ENDBRANCH   6  13
BRANCH   8  15
ATOM      2  O   UNL     1       0.579   2.416  26.264  0.00  0.00    -0.249 OA
ATOM     15  C   UNL     1      -0.315   2.848  25.549  0.00  0.00    +0.328 C 
BRANCH  15   1
ATOM      1  O   UNL     1      -1.337   3.664  25.933  0.00  0.00    -0.467 OA
ATOM     20  C   UNL     1      -1.369   4.947  25.299  0.00  0.00    +0.280 C 
ENDBRANCH  15   1
ENDBRANCH   8  15
BRANCH  16  19
ATOM     19  C   UNL     1       2.110  -0.275  23.523  0.00  0.00    +0.255 C 
BRANCH  19   4
ATOM      4  O   UNL     1       3.260  -0.214  22.715  0.00  0.00    -0.374 OA
ATOM     21  C   UNL     1       4.459  -0.344  23.478  0.00  0.00    +0.194 C 
ENDBRANCH  19   4
ENDBRANCH  16  19
TORSDOF 5
ENDMDL
MODEL 6
REMARK VINA RESULT:      -3.6      2.314      4.525
REMARK  Name = 25338997
REMARK  9 active torsions:
REMARK  status: ('A' for Active; 'I' for Inactive)
REMARK    1  A    between atoms: O_1  and  C_15
REMARK    2  A    between atoms: O_1  and  C_20
REMARK    3  A    between atoms: O_4  and  C_19
REMARK    4  A    between atoms: O_4  and  C_21
REMARK    5  A    between atoms: N_6  and  C_13
REMARK    6  A    between atoms: C_8  and  C_15
REMARK    7  A    between atoms: C_13  and  C_17
REMARK    8  A    between atoms: C_13  and  C_18
REMARK    9  A    between atoms: C_16  and  C_19
REMARK                            x       y       z     vdW  Elec       q    Type
REMARK                         _______ _______ _______ _____ _____    ______ ____
ROOT
ATOM      3  O   UNL     1       1.813   1.316  23.656  0.00  0.00    -0.273 OA
ATOM      5  N   UNL     1      -0.343   1.746  24.432  0.00  0.00    -0.280 N 
ATOM      6  N   UNL     1      -3.988   2.490  24.893  0.00  0.00    -0.330 N 
ATOM      7  N   UNL     1      -3.298   4.566  25.346  0.00  0.00    -0.240 NA
ATOM      8  C   UNL     1       0.106   2.914  25.238  0.00  0.00    +0.191 C 
ATOM      9  C   UNL     1      -2.627   2.464  24.828  0.00  0.00    +0.059 A 
ATOM     10  C   UNL     1      -0.810   4.152  25.142  0.00  0.00    +0.091 C 
ATOM     11  C   UNL     1      -1.764   1.306  24.535  0.00  0.00    +0.163 C 
ATOM     12  C   UNL     1      -2.229   3.747  25.113  0.00  0.00    +0.066 A 
ATOM     14  C   UNL     1      -4.345   3.778  25.208  0.00  0.00    +0.200 A 
ATOM     16  C   UNL     1       0.630   0.988  23.764  0.00  0.00    +0.242 C 
ENDROOT
BRANCH   6  13
ATOM     13  C   UNL     1      -4.894   1.387  24.681  0.00  0.00    +0.082 C 
ATOM     17  C   UNL     1      -6.307   1.717  25.168  0.00  0.00    +0.030 C 
ATOM     18  C   UNL     1      -4.379   0.102  25.332  0.00  0.00    +0.030 C 
ENDBRANCH   6  13
BRANCH   8  15
ATOM      2  O   UNL     1      -0.529   1.615  27.168  0.00  0.00    -0.249 OA
ATOM     15  C   UNL     1       0.236   2.418  26.651  0.00  0.00    +0.328 C 
BRANCH  15   1
ATOM      1  O   UNL     1       1.320   2.999  27.239  0.00  0.00    -0.467 OA
ATOM     20  C   UNL     1       1.559   2.618  28.598  0.00  0.00    +0.280 C 
ENDBRANCH  15   1
ENDBRANCH   8  15
BRANCH  16  19
ATOM     19  C   UNL     1       0.161  -0.304  23.141  0.00  0.00    +0.255 C 
BRANCH  19   4
ATOM      4  O   UNL     1       0.143  -1.263  24.171  0.00  0.00    -0.374 OA
ATOM     21  C   UNL     1      -1.081  -1.996  24.200  0.00  0.00    +0.194 C 
ENDBRANCH  19   4
ENDBRANCH  16  19
TORSDOF 5
ENDMDL
MODEL 7
REMARK VINA RESULT:      -3.5      2.179      4.574
REMARK  Name = 25338997
REMARK  9 active torsions:
REMARK  status: ('A' for Active; 'I' for Inactive)
REMARK    1  A    between atoms: O_1  and  C_15
REMARK    2  A    between atoms: O_1  and  C_20
REMARK    3  A    between atoms: O_4  and  C_19
REMARK    4  A    between atoms: O_4  and  C_21
REMARK    5  A    between atoms: N_6  and  C_13
REMARK    6  A    between atoms: C_8  and  C_15
REMARK    7  A    between atoms: C_13  and  C_17
REMARK    8  A    between atoms: C_13  and  C_18
REMARK    9  A    between atoms: C_16  and  C_19
REMARK                            x       y       z     vdW  Elec       q    Type
REMARK                         _______ _______ _______ _____ _____    ______ ____
ROOT
ATOM      3  O   UNL     1      -5.532   0.776  25.760  0.00  0.00    -0.273 OA
ATOM      5  N   UNL     1      -3.412   1.143  24.859  0.00  0.00    -0.280 N 
ATOM      6  N   UNL     1       0.217   1.147  23.922  0.00  0.00    -0.330 N 
ATOM      7  N   UNL     1       0.340   2.959  25.222  0.00  0.00    -0.240 NA
ATOM      8  C   UNL     1      -3.426   2.582  25.237  0.00  0.00    +0.191 C 
ATOM      9  C   UNL     1      -1.049   1.386  24.369  0.00  0.00    +0.059 A 
ATOM     10  C   UNL     1      -2.107   3.098  25.850  0.00  0.00    +0.091 C 
ATOM     11  C   UNL     1      -2.270   0.622  24.056  0.00  0.00    +0.163 C 
ATOM     12  C   UNL     1      -0.946   2.503  25.159  0.00  0.00    +0.066 A 
ATOM     14  C   UNL     1       1.018   2.122  24.463  0.00  0.00    +0.200 A 
ATOM     16  C   UNL     1      -4.566   0.383  25.102  0.00  0.00    +0.242 C 
ENDROOT
BRANCH   6  13
ATOM     13  C   UNL     1       0.649   0.084  23.046  0.00  0.00    +0.082 C 
ATOM     17  C   UNL     1       0.358  -1.293  23.646  0.00  0.00    +0.030 C 
ATOM     18  C   UNL     1       2.129   0.220  22.683  0.00  0.00    +0.030 C 
ENDBRANCH   6  13
BRANCH   8  15
ATOM      2  O   UNL     1      -3.446   3.016  22.866  0.00  0.00    -0.249 OA
ATOM     15  C   UNL     1      -3.801   3.335  23.992  0.00  0.00    +0.328 C 
BRANCH  15   1
ATOM      1  O   UNL     1      -4.581   4.403  24.323  0.00  0.00    -0.467 OA
ATOM     20  C   UNL     1      -5.487   4.188  25.411  0.00  0.00    +0.280 C 
ENDBRANCH  15   1
ENDBRANCH   8  15
BRANCH  16  19
ATOM     19  C   UNL     1      -4.591  -1.006  24.511  0.00  0.00    +0.255 C 
BRANCH  19   4
ATOM      4  O   UNL     1      -3.818  -1.818  25.361  0.00  0.00    -0.374 OA
ATOM     21  C   UNL     1      -3.263  -2.939  24.674  0.00  0.00    +0.194 C 
ENDBRANCH  19   4
ENDBRANCH  16  19
TORSDOF 5
ENDMDL
MODEL 8
REMARK VINA RESULT:      -3.2     16.686     18.812
REMARK  Name = 25338997
REMARK  9 active torsions:
REMARK  status: ('A' for Active; 'I' for Inactive)
REMARK    1  A    between atoms: O_1  and  C_15
REMARK    2  A    between atoms: O_1  and  C_20
REMARK    3  A    between atoms: O_4  and  C_19
REMARK    4  A    between atoms: O_4  and  C_21
REMARK    5  A    between atoms: N_6  and  C_13
REMARK    6  A    between atoms: C_8  and  C_15
REMARK    7  A    between atoms: C_13  and  C_17
REMARK    8  A    between atoms: C_13  and  C_18
REMARK    9  A    between atoms: C_16  and  C_19
REMARK                            x       y       z     vdW  Elec       q    Type
REMARK                         _______ _______ _______ _____ _____    ______ ____
ROOT
ATOM      3  O   UNL     1     -10.384  -9.401  11.965  0.00  0.00    -0.273 OA
ATOM      5  N   UNL     1      -8.144  -9.717  11.399  0.00  0.00    -0.280 N 
ATOM      6  N   UNL     1      -4.404  -9.814  11.171  0.00  0.00    -0.330 N 
ATOM      7  N   UNL     1      -4.655  -8.164   9.688  0.00  0.00    -0.240 NA
ATOM      8  C   UNL     1      -8.314  -9.053  10.078  0.00  0.00    +0.191 C 
ATOM      9  C   UNL     1      -5.746  -9.615  11.043  0.00  0.00    +0.059 A 
ATOM     10  C   UNL     1      -7.183  -8.071   9.702  0.00  0.00    +0.091 C 
ATOM     11  C   UNL     1      -6.831 -10.343  11.726  0.00  0.00    +0.163 C 
ATOM     12  C   UNL     1      -5.873  -8.602  10.126  0.00  0.00    +0.066 A 
ATOM     14  C   UNL     1      -3.788  -8.917  10.335  0.00  0.00    +0.200 A 
ATOM     16  C   UNL     1      -9.281  -9.900  12.199  0.00  0.00    +0.242 C 
ENDROOT
BRANCH   6  13
ATOM     13  C   UNL     1      -3.741 -10.781  12.014  0.00  0.00    +0.082 C 
ATOM     17  C   UNL     1      -4.167 -10.639  13.477  0.00  0.00    +0.030 C 
ATOM     18  C   UNL     1      -2.220 -10.696  11.878  0.00  0.00    +0.030 C 
ENDBRANCH   6  13
BRANCH   8  15
ATOM      2  O   UNL     1      -7.512 -10.781   8.600  0.00  0.00    -0.249 OA
ATOM     15  C   UNL     1      -8.455 -10.160   9.071  0.00  0.00    +0.328 C 
BRANCH  15   1
ATOM      1  O   UNL     1      -9.774 -10.349   8.784  0.00  0.00    -0.467 OA
ATOM     20  C   UNL     1     -10.528  -9.155   8.546  0.00  0.00    +0.280 C 
ENDBRANCH  15   1
ENDBRANCH   8  15
BRANCH  16  19
ATOM     19  C   UNL     1      -9.107 -10.764  13.424  0.00  0.00    +0.255 C 
BRANCH  19   4
ATOM      4  O   UNL     1      -8.871  -9.890  14.502  0.00  0.00    -0.374 OA
ATOM     21  C   UNL     1      -7.736 -10.282  15.272  0.00  0.00    +0.194 C 
ENDBRANCH  19   4
ENDBRANCH  16  19
TORSDOF 5
ENDMDL
MODEL 9
REMARK VINA RESULT:      -3.2      1.591      4.130
REMARK  Name = 25338997
REMARK  9 active torsions:
REMARK  status: ('A' for Active; 'I' for Inactive)
REMARK    1  A    between atoms: O_1  and  C_15
REMARK    2  A    between atoms: O_1  and  C_20
REMARK    3  A    between atoms: O_4  and  C_19
REMARK    4  A    between atoms: O_4  and  C_21
REMARK    5  A    between atoms: N_6  and  C_13
REMARK    6  A    between atoms: C_8  and  C_15
REMARK    7  A    between atoms: C_13  and  C_17
REMARK    8  A    between atoms: C_13  and  C_18
REMARK    9  A    between atoms: C_16  and  C_19
REMARK                            x       y       z     vdW  Elec       q    Type
REMARK                         _______ _______ _______ _____ _____    ______ ____
ROOT
ATOM      3  O   UNL     1      -0.349   4.638  25.053  0.00  0.00    -0.273 OA
ATOM      5  N   UNL     1      -1.588   2.662  25.058  0.00  0.00    -0.280 N 
ATOM      6  N   UNL     1      -2.970  -0.794  24.616  0.00  0.00    -0.330 N 
ATOM      7  N   UNL     1      -4.284   0.150  23.077  0.00  0.00    -0.240 NA
ATOM      8  C   UNL     1      -2.783   3.330  24.476  0.00  0.00    +0.191 C 
ATOM      9  C   UNL     1      -2.672   0.536  24.620  0.00  0.00    +0.059 A 
ATOM     10  C   UNL     1      -3.482   2.533  23.354  0.00  0.00    +0.091 C 
ATOM     11  C   UNL     1      -1.693   1.234  25.473  0.00  0.00    +0.163 C 
ATOM     12  C   UNL     1      -3.494   1.091  23.671  0.00  0.00    +0.066 A 
ATOM     14  C   UNL     1      -3.947  -0.978  23.670  0.00  0.00    +0.200 A 
ATOM     16  C   UNL     1      -0.475   3.455  25.376  0.00  0.00    +0.242 C 
ENDROOT
BRANCH   6  13
ATOM     13  C   UNL     1      -2.386  -1.823  25.443  0.00  0.00    +0.082 C 
ATOM     17  C   UNL     1      -0.927  -2.087  25.066  0.00  0.00    +0.030 C 
ATOM     18  C   UNL     1      -3.205  -3.114  25.396  0.00  0.00    +0.030 C 
ENDBRANCH   6  13
BRANCH   8  15
ATOM      2  O   UNL     1      -3.329   3.945  26.743  0.00  0.00    -0.249 OA
ATOM     15  C   UNL     1      -3.707   3.608  25.629  0.00  0.00    +0.328 C 
BRANCH  15   1
ATOM      1  O   UNL     1      -4.998   3.425  25.232  0.00  0.00    -0.467 OA
ATOM     20  C   UNL     1      -5.766   2.523  26.036  0.00  0.00    +0.280 C 
ENDBRANCH  15   1
ENDBRANCH   8  15
BRANCH  16  19
ATOM     19  C   UNL     1       0.626   2.782  26.159  0.00  0.00    +0.255 C 
BRANCH  19   4
ATOM      4  O   UNL     1       0.152   2.637  27.476  0.00  0.00    -0.374 OA
ATOM     21  C   UNL     1       1.215   2.541  28.422  0.00  0.00    +0.194 C 
ENDBRANCH  19   4
ENDBRANCH  16  19
TORSDOF 5
ENDMDL
MODEL 10
REMARK VINA RESULT:      -3.1      2.586      5.622
REMARK  Name = 25338997
REMARK  9 active torsions:
REMARK  status: ('A' for Active; 'I' for Inactive)
REMARK    1  A    between atoms: O_1  and  C_15
REMARK    2  A    between atoms: O_1  and  C_20
REMARK    3  A    between atoms: O_4  and  C_19
REMARK    4  A    between atoms: O_4  and  C_21
REMARK    5  A    between atoms: N_6  and  C_13
REMARK    6  A    between atoms: C_8  and  C_15
REMARK    7  A    between atoms: C_13  and  C_17
REMARK    8  A    between atoms: C_13  and  C_18
REMARK    9  A    between atoms: C_16  and  C_19
REMARK                            x       y       z     vdW  Elec       q    Type
REMARK                         _______ _______ _______ _____ _____    ______ ____
ROOT
ATOM      3  O   UNL     1      -0.532  -1.692  25.094  0.00  0.00    -0.273 OA
ATOM      5  N   UNL     1      -2.144  -0.034  24.789  0.00  0.00    -0.280 N 
ATOM      6  N   UNL     1      -4.323   3.014  24.879  0.00  0.00    -0.330 N 
ATOM      7  N   UNL     1      -5.713   1.735  26.072  0.00  0.00    -0.240 NA
ATOM      8  C   UNL     1      -3.261  -0.973  25.078  0.00  0.00    +0.191 C 
ATOM      9  C   UNL     1      -3.744   1.782  24.951  0.00  0.00    +0.059 A 
ATOM     10  C   UNL     1      -4.359  -0.401  26.001  0.00  0.00    +0.091 C 
ATOM     11  C   UNL     1      -2.465   1.355  24.355  0.00  0.00    +0.163 C 
ATOM     12  C   UNL     1      -4.617   1.017  25.683  0.00  0.00    +0.066 A 
ATOM     14  C   UNL     1      -5.507   2.936  25.569  0.00  0.00    +0.200 A 
ATOM     16  C   UNL     1      -0.840  -0.550  24.745  0.00  0.00    +0.242 C 
ENDROOT
BRANCH   6  13
ATOM     13  C   UNL     1      -3.809   4.184  24.207  0.00  0.00    +0.082 C 
ATOM     17  C   UNL     1      -3.718   3.970  22.694  0.00  0.00    +0.030 C 
ATOM     18  C   UNL     1      -2.457   4.612  24.780  0.00  0.00    +0.030 C 
ENDBRANCH   6  13
BRANCH   8  15
ATOM      2  O   UNL     1      -3.865  -0.653  22.765  0.00  0.00    -0.249 OA
ATOM     15  C   UNL     1      -3.810  -1.389  23.742  0.00  0.00    +0.328 C 
BRANCH  15   1
ATOM      1  O   UNL     1      -4.224  -2.686  23.803  0.00  0.00    -0.467 OA
ATOM     20  C   UNL     1      -3.395  -3.559  24.579  0.00  0.00    +0.280 C 
ENDBRANCH  15   1
ENDBRANCH   8  15
BRANCH  16  19
ATOM     19  C   UNL     1       0.233   0.382  24.239  0.00  0.00    +0.255 C 
BRANCH  19   4
ATOM      4  O   UNL     1       0.666  -0.136  23.005  0.00  0.00    -0.374 OA
ATOM     21  C   UNL     1       2.040   0.156  22.752  0.00  0.00    +0.194 C 
ENDBRANCH  19   4
ENDBRANCH  16  19
TORSDOF 5
ENDMDL
