MODEL 1
REMARK VINA RESULT:      14.0      0.000      0.000
REMARK  Name = 51136890
REMARK  7 active torsions:
REMARK  status: ('A' for Active; 'I' for Inactive)
REMARK    1  A    between atoms: O_4  and  C_32
REMARK    2  A    between atoms: O_4  and  C_33
REMARK    3  A    between atoms: N_5  and  C_10
REMARK    4  A    between atoms: N_9  and  C_25
REMARK    5  A    between atoms: C_11  and  C_19
REMARK    6  A    between atoms: C_20  and  C_21
REMARK    7  A    between atoms: C_26  and  C_27
REMARK                            x       y       z     vdW  Elec       q    Type
REMARK                         _______ _______ _______ _____ _____    ______ ____
ROOT
ATOM      8  N   UNL     1       2.186   2.237  23.702  0.00  0.00    -0.239 NA
ATOM     21  C   UNL     1      -0.070   1.504  23.235  0.00  0.00    +0.041 A 
ATOM     22  C   UNL     1       0.419   0.315  22.705  0.00  0.00    +0.016 A 
ATOM     23  C   UNL     1       0.846   2.425  23.716  0.00  0.00    +0.124 A 
ATOM     24  C   UNL     1       1.790   0.086  22.673  0.00  0.00    +0.044 A 
ATOM     25  C   UNL     1       2.623   1.070  23.180  0.00  0.00    +0.125 A 
ENDROOT
BRANCH  21  20
ATOM      2  O   UNL     1      -3.405   2.612  22.904  0.00  0.00    -0.336 OA
ATOM      6  N   UNL     1      -2.314   1.065  24.101  0.00  0.00    -0.190 NA
ATOM      7  N   UNL     1      -2.058   2.712  22.533  0.00  0.00    -0.056 NA
ATOM     19  C   UNL     1      -3.468   1.620  23.830  0.00  0.00    +0.245 A 
ATOM     20  C   UNL     1      -1.479   1.769  23.281  0.00  0.00    +0.204 A 
BRANCH  19  11
ATOM      5  N   UNL     1      -4.772   0.572  25.673  0.00  0.00    -0.288 NA
ATOM     11  C   UNL     1      -4.839   1.311  24.396  0.00  0.00    +0.146 C 
ATOM     12  C   UNL     1      -5.968   0.944  26.428  0.00  0.00    +0.085 C 
ATOM     13  C   UNL     1      -5.647   2.581  24.721  0.00  0.00    +0.030 C 
ATOM     14  C   UNL     1      -6.042   2.438  26.184  0.00  0.00    +0.017 C 
BRANCH   5  10
ATOM      1  O   UNL     1      -3.242  -3.120  24.386  0.00  0.00    -0.380 OA
ATOM     10  C   UNL     1      -4.659  -0.873  25.497  0.00  0.00    +0.062 C 
ATOM     15  C   UNL     1      -4.733  -1.236  24.011  0.00  0.00    +0.047 C 
ATOM     16  C   UNL     1      -3.357  -1.403  26.103  0.00  0.00    +0.047 C 
ATOM     17  C   UNL     1      -4.493  -2.730  23.818  0.00  0.00    +0.161 C 
ATOM     18  C   UNL     1      -3.194  -2.887  25.795  0.00  0.00    +0.161 C 
ENDBRANCH   5  10
ENDBRANCH  19  11
ENDBRANCH  21  20
BRANCH  25   9
ATOM      3  O   UNL     1       4.180  -1.399  23.868  0.00  0.00    -0.270 OA
ATOM      9  N   UNL     1       4.002   0.830  23.143  0.00  0.00    -0.266 N 
ATOM     26  C   UNL     1       4.677  -0.349  23.477  0.00  0.00    +0.249 C 
ATOM     34  H   UNL     1       4.529   1.622  22.789  0.00  0.00    +0.157 HD
BRANCH  26  27
ATOM     27  C   UNL     1       6.153  -0.303  23.307  0.00  0.00    +0.037 A 
ATOM     28  C   UNL     1       6.796  -1.275  22.539  0.00  0.00    +0.016 A 
ATOM     29  C   UNL     1       6.894   0.711  23.913  0.00  0.00    +0.016 A 
ATOM     30  C   UNL     1       8.182  -1.233  22.380  0.00  0.00    +0.046 A 
ATOM     31  C   UNL     1       8.279   0.753  23.753  0.00  0.00    +0.046 A 
ATOM     32  C   UNL     1       8.923  -0.219  22.987  0.00  0.00    +0.120 A 
BRANCH  32   4
ATOM      4  O   UNL     1      10.274  -0.179  22.830  0.00  0.00    -0.495 OA
ATOM     33  C   UNL     1      10.801   0.859  22.005  0.00  0.00    +0.277 C 
ENDBRANCH  32   4
ENDBRANCH  26  27
ENDBRANCH  25   9
TORSDOF 6
ENDMDL
MODEL 2
REMARK VINA RESULT:      14.4      1.036      1.443
REMARK  Name = 51136890
REMARK  7 active torsions:
REMARK  status: ('A' for Active; 'I' for Inactive)
REMARK    1  A    between atoms: O_4  and  C_32
REMARK    2  A    between atoms: O_4  and  C_33
REMARK    3  A    between atoms: N_5  and  C_10
REMARK    4  A    between atoms: N_9  and  C_25
REMARK    5  A    between atoms: C_11  and  C_19
REMARK    6  A    between atoms: C_20  and  C_21
REMARK    7  A    between atoms: C_26  and  C_27
REMARK                            x       y       z     vdW  Elec       q    Type
REMARK                         _______ _______ _______ _____ _____    ______ ____
ROOT
ATOM      8  N   UNL     1       2.811   1.893  23.481  0.00  0.00    -0.239 NA
ATOM     21  C   UNL     1       0.439   1.424  23.527  0.00  0.00    +0.041 A 
ATOM     22  C   UNL     1       0.685   0.109  23.150  0.00  0.00    +0.016 A 
ATOM     23  C   UNL     1       1.527   2.270  23.678  0.00  0.00    +0.124 A 
ATOM     24  C   UNL     1       1.992  -0.316  22.937  0.00  0.00    +0.044 A 
ATOM     25  C   UNL     1       3.010   0.607  23.114  0.00  0.00    +0.125 A 
ENDROOT
BRANCH  21  20
ATOM      2  O   UNL     1      -2.582   3.168  24.066  0.00  0.00    -0.336 OA
ATOM      6  N   UNL     1      -1.947   1.028  23.885  0.00  0.00    -0.190 NA
ATOM      7  N   UNL     1      -1.199   3.190  23.851  0.00  0.00    -0.056 NA
ATOM     19  C   UNL     1      -2.941   1.857  24.073  0.00  0.00    +0.245 A 
ATOM     20  C   UNL     1      -0.897   1.892  23.754  0.00  0.00    +0.204 A 
BRANCH  19  11
ATOM      5  N   UNL     1      -4.657   0.793  25.528  0.00  0.00    -0.288 NA
ATOM     11  C   UNL     1      -4.411   1.561  24.290  0.00  0.00    +0.146 C 
ATOM     12  C   UNL     1      -5.994   1.170  25.988  0.00  0.00    +0.085 C 
ATOM     13  C   UNL     1      -5.257   2.838  24.447  0.00  0.00    +0.030 C 
ATOM     14  C   UNL     1      -5.990   2.670  25.771  0.00  0.00    +0.017 C 
BRANCH   5  10
ATOM      1  O   UNL     1      -3.040  -2.875  24.283  0.00  0.00    -0.380 OA
ATOM     10  C   UNL     1      -4.525  -0.650  25.346  0.00  0.00    +0.062 C 
ATOM     15  C   UNL     1      -4.530  -1.002  23.856  0.00  0.00    +0.047 C 
ATOM     16  C   UNL     1      -3.246  -1.173  26.005  0.00  0.00    +0.047 C 
ATOM     17  C   UNL     1      -4.268  -2.492  23.663  0.00  0.00    +0.161 C 
ATOM     18  C   UNL     1      -3.056  -2.653  25.694  0.00  0.00    +0.161 C 
ENDBRANCH   5  10
ENDBRANCH  19  11
ENDBRANCH  21  20
BRANCH  25   9
ATOM      3  O   UNL     1       5.452   0.874  24.835  0.00  0.00    -0.270 OA
ATOM      9  N   UNL     1       4.322   0.170  22.897  0.00  0.00    -0.266 N 
ATOM     26  C   UNL     1       5.428   0.322  23.740  0.00  0.00    +0.249 C 
ATOM     34  H   UNL     1       4.425  -0.348  22.030  0.00  0.00    +0.157 HD
BRANCH  26  27
ATOM     27  C   UNL     1       6.692  -0.280  23.240  0.00  0.00    +0.037 A 
ATOM     28  C   UNL     1       7.915   0.322  23.538  0.00  0.00    +0.016 A 
ATOM     29  C   UNL     1       6.655  -1.444  22.475  0.00  0.00    +0.016 A 
ATOM     30  C   UNL     1       9.102  -0.242  23.069  0.00  0.00    +0.046 A 
ATOM     31  C   UNL     1       7.842  -2.008  22.006  0.00  0.00    +0.046 A 
ATOM     32  C   UNL     1       9.066  -1.407  22.303  0.00  0.00    +0.120 A 
BRANCH  32   4
ATOM      4  O   UNL     1      10.224  -1.956  21.846  0.00  0.00    -0.495 OA
ATOM     33  C   UNL     1      10.141  -3.261  21.275  0.00  0.00    +0.277 C 
ENDBRANCH  32   4
ENDBRANCH  26  27
ENDBRANCH  25   9
TORSDOF 6
ENDMDL
MODEL 3
REMARK VINA RESULT:      16.4      1.787      3.347
REMARK  Name = 51136890
REMARK  7 active torsions:
REMARK  status: ('A' for Active; 'I' for Inactive)
REMARK    1  A    between atoms: O_4  and  C_32
REMARK    2  A    between atoms: O_4  and  C_33
REMARK    3  A    between atoms: N_5  and  C_10
REMARK    4  A    between atoms: N_9  and  C_25
REMARK    5  A    between atoms: C_11  and  C_19
REMARK    6  A    between atoms: C_20  and  C_21
REMARK    7  A    between atoms: C_26  and  C_27
REMARK                            x       y       z     vdW  Elec       q    Type
REMARK                         _______ _______ _______ _____ _____    ______ ____
ROOT
ATOM      8  N   UNL     1       2.099   1.519  23.886  0.00  0.00    -0.239 NA
ATOM     21  C   UNL     1      -0.032   0.385  23.735  0.00  0.00    +0.041 A 
ATOM     22  C   UNL     1       0.607  -0.772  23.303  0.00  0.00    +0.016 A 
ATOM     23  C   UNL     1       0.752   1.494  24.011  0.00  0.00    +0.124 A 
ATOM     24  C   UNL     1       1.991  -0.785  23.162  0.00  0.00    +0.044 A 
ATOM     25  C   UNL     1       2.684   0.376  23.465  0.00  0.00    +0.125 A 
ENDROOT
BRANCH  21  20
ATOM      2  O   UNL     1      -3.543   0.035  23.655  0.00  0.00    -0.336 OA
ATOM      6  N   UNL     1      -2.055   1.275  24.779  0.00  0.00    -0.190 NA
ATOM      7  N   UNL     1      -2.282  -0.345  23.180  0.00  0.00    -0.056 NA
ATOM     19  C   UNL     1      -3.319   0.992  24.593  0.00  0.00    +0.245 A 
ATOM     20  C   UNL     1      -1.457   0.430  23.890  0.00  0.00    +0.204 A 
BRANCH  19  11
ATOM      5  N   UNL     1      -5.064   2.766  24.569  0.00  0.00    -0.288 NA
ATOM     11  C   UNL     1      -4.543   1.575  25.269  0.00  0.00    +0.146 C 
ATOM     12  C   UNL     1      -6.505   2.797  24.823  0.00  0.00    +0.085 C 
ATOM     13  C   UNL     1      -5.728   0.592  25.302  0.00  0.00    +0.030 C 
ATOM     14  C   UNL     1      -6.885   1.340  24.655  0.00  0.00    +0.017 C 
BRANCH   5  10
ATOM      1  O   UNL     1      -1.989   5.401  25.675  0.00  0.00    -0.380 OA
ATOM     10  C   UNL     1      -4.408   4.006  24.975  0.00  0.00    +0.062 C 
ATOM     15  C   UNL     1      -3.720   3.825  26.331  0.00  0.00    +0.047 C 
ATOM     16  C   UNL     1      -3.390   4.460  23.926  0.00  0.00    +0.047 C 
ATOM     17  C   UNL     1      -2.933   5.079  26.697  0.00  0.00    +0.161 C 
ATOM     18  C   UNL     1      -2.621   5.679  24.425  0.00  0.00    +0.161 C 
ENDBRANCH   5  10
ENDBRANCH  19  11
ENDBRANCH  21  20
BRANCH  25   9
ATOM      3  O   UNL     1       4.671  -1.752  24.180  0.00  0.00    -0.270 OA
ATOM      9  N   UNL     1       4.076   0.353  23.319  0.00  0.00    -0.266 N 
ATOM     26  C   UNL     1       4.959  -0.673  23.672  0.00  0.00    +0.249 C 
ATOM     34  H   UNL     1       4.437   1.184  22.863  0.00  0.00    +0.157 HD
BRANCH  26  27
ATOM     27  C   UNL     1       6.389  -0.412  23.365  0.00  0.00    +0.037 A 
ATOM     28  C   UNL     1       7.103  -1.299  22.559  0.00  0.00    +0.016 A 
ATOM     29  C   UNL     1       7.018   0.720  23.883  0.00  0.00    +0.016 A 
ATOM     30  C   UNL     1       8.446  -1.055  22.272  0.00  0.00    +0.046 A 
ATOM     31  C   UNL     1       8.361   0.965  23.595  0.00  0.00    +0.046 A 
ATOM     32  C   UNL     1       9.075   0.077  22.789  0.00  0.00    +0.120 A 
BRANCH  32   4
ATOM      4  O   UNL     1      10.385   0.316  22.508  0.00  0.00    -0.495 OA
ATOM     33  C   UNL     1      10.678   1.461  21.709  0.00  0.00    +0.277 C 
ENDBRANCH  32   4
ENDBRANCH  26  27
ENDBRANCH  25   9
TORSDOF 6
ENDMDL
