MODEL 1
REMARK VINA RESULT:       4.6      0.000      0.000
REMARK  Name = 51136597
REMARK  10 active torsions:
REMARK  status: ('A' for Active; 'I' for Inactive)
REMARK    1  A    between atoms: O_2  and  C_18
REMARK    2  A    between atoms: O_4  and  C_25
REMARK    3  A    between atoms: O_4  and  C_32
REMARK    4  A    between atoms: O_5  and  C_26
REMARK    5  A    between atoms: O_5  and  C_33
REMARK    6  A    between atoms: C_8  and  C_13
REMARK    7  A    between atoms: C_9  and  C_14
REMARK    8  A    between atoms: C_13  and  C_15
REMARK    9  A    between atoms: C_14  and  C_18
REMARK   10  A    between atoms: C_16  and  C_22
REMARK                            x       y       z     vdW  Elec       q    Type
REMARK                         _______ _______ _______ _____ _____    ______ ____
ROOT
ATOM      1  O   UNL     1      -0.027   1.300  27.489  0.00  0.00    -0.270 OA
ATOM      6  N   UNL     1      -0.178   0.249  25.404  0.00  0.00    -0.297 N 
ATOM      8  C   UNL     1      -1.562  -0.712  23.576  0.00  0.00    +0.016 C 
ATOM      9  C   UNL     1      -1.190  -2.126  24.092  0.00  0.00    +0.006 C 
ATOM     10  C   UNL     1      -0.858  -2.112  25.594  0.00  0.00    +0.023 C 
ATOM     11  C   UNL     1      -0.461   0.293  23.963  0.00  0.00    +0.112 C 
ATOM     12  C   UNL     1       0.206  -1.066  25.915  0.00  0.00    +0.108 C 
ATOM     16  C   UNL     1      -0.256   1.333  26.281  0.00  0.00    +0.247 C 
ENDROOT
BRANCH  16  22
ATOM     22  C   UNL     1      -0.645   2.637  25.733  0.00  0.00    +0.037 A 
ATOM     27  C   UNL     1      -1.662   3.374  26.340  0.00  0.00    +0.013 A 
ATOM     28  C   UNL     1       0.004   3.143  24.606  0.00  0.00    +0.013 A 
ATOM     29  C   UNL     1      -2.031   4.615  25.819  0.00  0.00    +0.001 A 
ATOM     30  C   UNL     1      -0.364   4.383  24.086  0.00  0.00    +0.001 A 
ATOM     31  C   UNL     1      -1.382   5.119  24.693  0.00  0.00    +0.000 A 
ENDBRANCH  16  22
BRANCH   8  13
ATOM     13  C   UNL     1      -2.930  -0.214  24.058  0.00  0.00    +0.061 C 
BRANCH  13  15
ATOM      7  N   UNL     1      -2.837   1.249  22.156  0.00  0.00    -0.287 NA
ATOM     15  C   UNL     1      -3.281   1.076  23.357  0.00  0.00    +0.044 C 
ATOM     17  C   UNL     1      -4.108   2.079  24.075  0.00  0.00    +0.003 A 
ATOM     19  C   UNL     1      -4.091   3.387  23.573  0.00  0.00    -0.033 A 
ATOM     20  C   UNL     1      -3.243   3.688  22.373  0.00  0.00    +0.059 C 
ATOM     21  C   UNL     1      -3.228   2.475  21.452  0.00  0.00    +0.146 C 
ATOM     23  C   UNL     1      -4.863   1.765  25.207  0.00  0.00    +0.059 A 
ATOM     24  C   UNL     1      -4.816   4.387  24.229  0.00  0.00    +0.053 A 
ATOM     25  C   UNL     1      -5.595   2.766  25.845  0.00  0.00    +0.162 A 
ATOM     26  C   UNL     1      -5.570   4.074  25.360  0.00  0.00    +0.162 A 
BRANCH  25   4
ATOM      4  O   UNL     1      -6.333   2.455  26.948  0.00  0.00    -0.491 OA
ATOM     32  C   UNL     1      -6.666   1.081  27.136  0.00  0.00    +0.277 C 
ENDBRANCH  25   4
BRANCH  26   5
ATOM      5  O   UNL     1      -6.278   5.057  25.984  0.00  0.00    -0.491 OA
ATOM     33  C   UNL     1      -6.701   6.159  25.182  0.00  0.00    +0.277 C 
ENDBRANCH  26   5
ENDBRANCH  13  15
ENDBRANCH   8  13
BRANCH   9  14
ATOM     14  C   UNL     1      -2.258  -3.176  23.786  0.00  0.00    +0.124 C 
BRANCH  14  18
ATOM      3  O   UNL     1      -3.633  -2.804  25.764  0.00  0.00    -0.251 OA
ATOM     18  C   UNL     1      -3.526  -2.917  24.553  0.00  0.00    +0.305 C 
BRANCH  18   2
ATOM      2  O   UNL     1      -4.570  -2.821  23.691  0.00  0.00    -0.481 OA
ATOM     34  H   UNL     1      -5.431  -2.787  24.161  0.00  0.00    +0.295 HD
ENDBRANCH  18   2
ENDBRANCH  14  18
ENDBRANCH   9  14
TORSDOF 8
ENDMDL
MODEL 2
REMARK VINA RESULT:       5.0      2.635      4.726
REMARK  Name = 51136597
REMARK  10 active torsions:
REMARK  status: ('A' for Active; 'I' for Inactive)
REMARK    1  A    between atoms: O_2  and  C_18
REMARK    2  A    between atoms: O_4  and  C_25
REMARK    3  A    between atoms: O_4  and  C_32
REMARK    4  A    between atoms: O_5  and  C_26
REMARK    5  A    between atoms: O_5  and  C_33
REMARK    6  A    between atoms: C_8  and  C_13
REMARK    7  A    between atoms: C_9  and  C_14
REMARK    8  A    between atoms: C_13  and  C_15
REMARK    9  A    between atoms: C_14  and  C_18
REMARK   10  A    between atoms: C_16  and  C_22
REMARK                            x       y       z     vdW  Elec       q    Type
REMARK                         _______ _______ _______ _____ _____    ______ ____
ROOT
ATOM      1  O   UNL     1      -1.627  -3.102  23.301  0.00  0.00    -0.270 OA
ATOM      6  N   UNL     1      -0.328  -1.462  24.348  0.00  0.00    -0.297 N 
ATOM      8  C   UNL     1       0.481   0.885  24.472  0.00  0.00    +0.016 C 
ATOM      9  C   UNL     1       1.832   0.409  23.880  0.00  0.00    +0.006 C 
ATOM     10  C   UNL     1       1.661  -0.858  23.024  0.00  0.00    +0.023 C 
ATOM     11  C   UNL     1      -0.207  -0.278  25.211  0.00  0.00    +0.112 C 
ATOM     12  C   UNL     1       0.934  -1.954  23.800  0.00  0.00    +0.108 C 
ATOM     16  C   UNL     1      -1.520  -2.115  24.027  0.00  0.00    +0.247 C 
ENDROOT
BRANCH  16  22
ATOM     22  C   UNL     1      -2.768  -1.593  24.596  0.00  0.00    +0.037 A 
ATOM     27  C   UNL     1      -2.798  -1.139  25.915  0.00  0.00    +0.013 A 
ATOM     28  C   UNL     1      -3.924  -1.546  23.816  0.00  0.00    +0.013 A 
ATOM     29  C   UNL     1      -3.984  -0.641  26.454  0.00  0.00    +0.001 A 
ATOM     30  C   UNL     1      -5.109  -1.048  24.356  0.00  0.00    +0.001 A 
ATOM     31  C   UNL     1      -5.139  -0.595  25.675  0.00  0.00    +0.000 A 
ENDBRANCH  16  22
BRANCH   8  13
ATOM     13  C   UNL     1      -0.471   1.495  23.437  0.00  0.00    +0.061 C 
BRANCH  13  15
ATOM      7  N   UNL     1       0.109   3.805  23.745  0.00  0.00    -0.287 NA
ATOM     15  C   UNL     1      -0.819   2.910  23.831  0.00  0.00    +0.044 C 
ATOM     17  C   UNL     1      -2.197   3.204  24.302  0.00  0.00    +0.003 A 
ATOM     19  C   UNL     1      -2.380   4.398  25.012  0.00  0.00    -0.033 A 
ATOM     20  C   UNL     1      -1.192   5.279  25.259  0.00  0.00    +0.059 C 
ATOM     21  C   UNL     1      -0.244   5.191  24.070  0.00  0.00    +0.146 C 
ATOM     23  C   UNL     1      -3.273   2.343  24.074  0.00  0.00    +0.059 A 
ATOM     24  C   UNL     1      -3.645   4.713  25.517  0.00  0.00    +0.053 A 
ATOM     25  C   UNL     1      -4.534   2.675  24.569  0.00  0.00    +0.162 A 
ATOM     26  C   UNL     1      -4.720   3.853  25.290  0.00  0.00    +0.162 A 
BRANCH  25   4
ATOM      4  O   UNL     1      -5.583   1.833  24.342  0.00  0.00    -0.491 OA
ATOM     32  C   UNL     1      -6.641   1.847  25.298  0.00  0.00    +0.277 C 
ENDBRANCH  25   4
BRANCH  26   5
ATOM      5  O   UNL     1      -5.949   4.177  25.782  0.00  0.00    -0.491 OA
ATOM     33  C   UNL     1      -6.484   5.445  25.405  0.00  0.00    +0.277 C 
ENDBRANCH  26   5
ENDBRANCH  13  15
ENDBRANCH   8  13
BRANCH   9  14
ATOM     14  C   UNL     1       2.559   1.498  23.090  0.00  0.00    +0.124 C 
BRANCH  14  18
ATOM      3  O   UNL     1       4.905   0.914  23.404  0.00  0.00    -0.251 OA
ATOM     18  C   UNL     1       3.935   1.056  22.674  0.00  0.00    +0.305 C 
BRANCH  18   2
ATOM      2  O   UNL     1       3.957   0.827  21.336  0.00  0.00    -0.481 OA
ATOM     34  H   UNL     1       3.387   1.460  20.848  0.00  0.00    +0.295 HD
ENDBRANCH  18   2
ENDBRANCH  14  18
ENDBRANCH   9  14
TORSDOF 8
ENDMDL
MODEL 3
REMARK VINA RESULT:       5.6      2.695      5.946
REMARK  Name = 51136597
REMARK  10 active torsions:
REMARK  status: ('A' for Active; 'I' for Inactive)
REMARK    1  A    between atoms: O_2  and  C_18
REMARK    2  A    between atoms: O_4  and  C_25
REMARK    3  A    between atoms: O_4  and  C_32
REMARK    4  A    between atoms: O_5  and  C_26
REMARK    5  A    between atoms: O_5  and  C_33
REMARK    6  A    between atoms: C_8  and  C_13
REMARK    7  A    between atoms: C_9  and  C_14
REMARK    8  A    between atoms: C_13  and  C_15
REMARK    9  A    between atoms: C_14  and  C_18
REMARK   10  A    between atoms: C_16  and  C_22
REMARK                            x       y       z     vdW  Elec       q    Type
REMARK                         _______ _______ _______ _____ _____    ______ ____
ROOT
ATOM      1  O   UNL     1      -6.157   2.671  23.885  0.00  0.00    -0.270 OA
ATOM      6  N   UNL     1      -5.071   0.955  25.048  0.00  0.00    -0.297 N 
ATOM      8  C   UNL     1      -3.176  -0.641  25.248  0.00  0.00    +0.016 C 
ATOM      9  C   UNL     1      -4.130  -1.770  24.779  0.00  0.00    +0.006 C 
ATOM     10  C   UNL     1      -5.273  -1.220  23.909  0.00  0.00    +0.023 C 
ATOM     11  C   UNL     1      -3.986   0.484  25.920  0.00  0.00    +0.112 C 
ATOM     12  C   UNL     1      -6.005  -0.081  24.614  0.00  0.00    +0.108 C 
ATOM     16  C   UNL     1      -5.255   2.272  24.620  0.00  0.00    +0.247 C 
ENDROOT
BRANCH  16  22
ATOM     22  C   UNL     1      -4.297   3.286  25.075  0.00  0.00    +0.037 A 
ATOM     27  C   UNL     1      -4.314   3.717  26.402  0.00  0.00    +0.013 A 
ATOM     28  C   UNL     1      -3.366   3.817  24.182  0.00  0.00    +0.013 A 
ATOM     29  C   UNL     1      -3.402   4.680  26.834  0.00  0.00    +0.001 A 
ATOM     30  C   UNL     1      -2.454   4.779  24.615  0.00  0.00    +0.001 A 
ATOM     31  C   UNL     1      -2.473   5.211  25.942  0.00  0.00    +0.000 A 
ENDBRANCH  16  22
BRANCH   8  13
ATOM     13  C   UNL     1      -2.294  -0.068  24.133  0.00  0.00    +0.061 C 
BRANCH  13  15
ATOM      7  N   UNL     1      -1.482   1.464  25.794  0.00  0.00    -0.287 NA
ATOM     15  C   UNL     1      -1.202   0.786  24.731  0.00  0.00    +0.044 C 
ATOM     17  C   UNL     1       0.129   0.810  24.073  0.00  0.00    +0.003 A 
ATOM     19  C   UNL     1       0.977   1.875  24.403  0.00  0.00    -0.033 A 
ATOM     20  C   UNL     1       0.490   2.911  25.372  0.00  0.00    +0.059 C 
ATOM     21  C   UNL     1      -0.405   2.246  26.410  0.00  0.00    +0.146 C 
ATOM     23  C   UNL     1       0.535  -0.160  23.153  0.00  0.00    +0.059 A 
ATOM     24  C   UNL     1       2.228   1.978  23.787  0.00  0.00    +0.053 A 
ATOM     25  C   UNL     1       1.792  -0.056  22.556  0.00  0.00    +0.162 A 
ATOM     26  C   UNL     1       2.635   1.010  22.868  0.00  0.00    +0.162 A 
BRANCH  25   4
ATOM      4  O   UNL     1       2.186  -1.007  21.661  0.00  0.00    -0.491 OA
ATOM     32  C   UNL     1       1.195  -1.495  20.759  0.00  0.00    +0.277 C 
ENDBRANCH  25   4
BRANCH  26   5
ATOM      5  O   UNL     1       3.860   1.119  22.281  0.00  0.00    -0.491 OA
ATOM     33  C   UNL     1       4.958   0.510  22.958  0.00  0.00    +0.277 C 
ENDBRANCH  26   5
ENDBRANCH  13  15
ENDBRANCH   8  13
BRANCH   9  14
ATOM     14  C   UNL     1      -3.405  -2.908  24.060  0.00  0.00    +0.124 C 
BRANCH  14  18
ATOM      3  O   UNL     1      -1.439  -2.765  25.495  0.00  0.00    -0.251 OA
ATOM     18  C   UNL     1      -1.938  -2.928  24.391  0.00  0.00    +0.305 C 
BRANCH  18   2
ATOM      2  O   UNL     1      -1.218  -3.160  23.264  0.00  0.00    -0.481 OA
ATOM     34  H   UNL     1      -1.237  -2.392  22.654  0.00  0.00    +0.295 HD
ENDBRANCH  18   2
ENDBRANCH  14  18
ENDBRANCH   9  14
TORSDOF 8
ENDMDL
MODEL 4
REMARK VINA RESULT:       6.3      2.902      7.717
REMARK  Name = 51136597
REMARK  10 active torsions:
REMARK  status: ('A' for Active; 'I' for Inactive)
REMARK    1  A    between atoms: O_2  and  C_18
REMARK    2  A    between atoms: O_4  and  C_25
REMARK    3  A    between atoms: O_4  and  C_32
REMARK    4  A    between atoms: O_5  and  C_26
REMARK    5  A    between atoms: O_5  and  C_33
REMARK    6  A    between atoms: C_8  and  C_13
REMARK    7  A    between atoms: C_9  and  C_14
REMARK    8  A    between atoms: C_13  and  C_15
REMARK    9  A    between atoms: C_14  and  C_18
REMARK   10  A    between atoms: C_16  and  C_22
REMARK                            x       y       z     vdW  Elec       q    Type
REMARK                         _______ _______ _______ _____ _____    ______ ____
ROOT
ATOM      1  O   UNL     1      -5.624   1.073  25.887  0.00  0.00    -0.270 OA
ATOM      6  N   UNL     1      -4.179   1.656  24.141  0.00  0.00    -0.297 N 
ATOM      8  C   UNL     1      -1.880   2.116  23.316  0.00  0.00    +0.016 C 
ATOM      9  C   UNL     1      -2.218   3.629  23.337  0.00  0.00    +0.006 C 
ATOM     10  C   UNL     1      -3.311   3.951  24.371  0.00  0.00    +0.023 C 
ATOM     11  C   UNL     1      -3.170   1.293  23.137  0.00  0.00    +0.112 C 
ATOM     12  C   UNL     1      -4.542   3.071  24.164  0.00  0.00    +0.108 C 
ATOM     16  C   UNL     1      -4.783   0.774  25.041  0.00  0.00    +0.247 C 
ENDROOT
BRANCH  16  22
ATOM     22  C   UNL     1      -4.393  -0.640  24.988  0.00  0.00    +0.037 A 
ATOM     27  C   UNL     1      -4.671  -1.398  23.851  0.00  0.00    +0.013 A 
ATOM     28  C   UNL     1      -3.742  -1.225  26.075  0.00  0.00    +0.013 A 
ATOM     29  C   UNL     1      -4.299  -2.742  23.801  0.00  0.00    +0.001 A 
ATOM     30  C   UNL     1      -3.371  -2.568  26.024  0.00  0.00    +0.001 A 
ATOM     31  C   UNL     1      -3.649  -3.326  24.887  0.00  0.00    +0.000 A 
ENDBRANCH  16  22
BRANCH   8  13
ATOM     13  C   UNL     1      -1.108   1.633  24.550  0.00  0.00    +0.061 C 
BRANCH  13  15
ATOM      7  N   UNL     1      -1.450  -0.741  24.439  0.00  0.00    -0.287 NA
ATOM     15  C   UNL     1      -0.604   0.229  24.322  0.00  0.00    +0.044 C 
ATOM     17  C   UNL     1       0.827   0.029  23.982  0.00  0.00    +0.003 A 
ATOM     19  C   UNL     1       1.343  -1.262  24.157  0.00  0.00    -0.033 A 
ATOM     20  C   UNL     1       0.436  -2.336  24.681  0.00  0.00    +0.059 C 
ATOM     21  C   UNL     1      -0.975  -2.100  24.159  0.00  0.00    +0.146 C 
ATOM     23  C   UNL     1       1.647   1.063  23.523  0.00  0.00    +0.059 A 
ATOM     24  C   UNL     1       2.694  -1.507  23.894  0.00  0.00    +0.053 A 
ATOM     25  C   UNL     1       2.990   0.804  23.248  0.00  0.00    +0.162 A 
ATOM     26  C   UNL     1       3.513  -0.475  23.435  0.00  0.00    +0.162 A 
BRANCH  25   4
ATOM      4  O   UNL     1       3.786   1.815  22.797  0.00  0.00    -0.491 OA
ATOM     32  C   UNL     1       4.243   1.726  21.450  0.00  0.00    +0.277 C 
ENDBRANCH  25   4
BRANCH  26   5
ATOM      5  O   UNL     1       4.827  -0.730  23.175  0.00  0.00    -0.491 OA
ATOM     33  C   UNL     1       5.726  -0.684  24.282  0.00  0.00    +0.277 C 
ENDBRANCH  26   5
ENDBRANCH  13  15
ENDBRANCH   8  13
BRANCH   9  14
ATOM     14  C   UNL     1      -0.992   4.515  23.558  0.00  0.00    +0.124 C 
BRANCH  14  18
ATOM      3  O   UNL     1      -1.448   6.138  25.319  0.00  0.00    -0.251 OA
ATOM     18  C   UNL     1      -0.959   5.080  24.951  0.00  0.00    +0.305 C 
BRANCH  18   2
ATOM      2  O   UNL     1      -0.294   4.230  25.774  0.00  0.00    -0.481 OA
ATOM     34  H   UNL     1       0.014   4.678  26.591  0.00  0.00    +0.295 HD
ENDBRANCH  18   2
ENDBRANCH  14  18
ENDBRANCH   9  14
TORSDOF 8
ENDMDL
MODEL 5
REMARK VINA RESULT:       6.8      2.502      5.557
REMARK  Name = 51136597
REMARK  10 active torsions:
REMARK  status: ('A' for Active; 'I' for Inactive)
REMARK    1  A    between atoms: O_2  and  C_18
REMARK    2  A    between atoms: O_4  and  C_25
REMARK    3  A    between atoms: O_4  and  C_32
REMARK    4  A    between atoms: O_5  and  C_26
REMARK    5  A    between atoms: O_5  and  C_33
REMARK    6  A    between atoms: C_8  and  C_13
REMARK    7  A    between atoms: C_9  and  C_14
REMARK    8  A    between atoms: C_13  and  C_15
REMARK    9  A    between atoms: C_14  and  C_18
REMARK   10  A    between atoms: C_16  and  C_22
REMARK                            x       y       z     vdW  Elec       q    Type
REMARK                         _______ _______ _______ _____ _____    ______ ____
ROOT
ATOM      1  O   UNL     1      -0.966   5.535  25.244  0.00  0.00    -0.270 OA
ATOM      6  N   UNL     1      -0.743   3.669  23.849  0.00  0.00    -0.297 N 
ATOM      8  C   UNL     1      -0.378   1.226  23.569  0.00  0.00    +0.016 C 
ATOM      9  C   UNL     1       1.078   1.534  23.135  0.00  0.00    +0.006 C 
ATOM     10  C   UNL     1       1.581   2.858  23.737  0.00  0.00    +0.023 C 
ATOM     11  C   UNL     1      -1.282   2.434  23.263  0.00  0.00    +0.112 C 
ATOM     12  C   UNL     1       0.618   4.003  23.434  0.00  0.00    +0.108 C 
ATOM     16  C   UNL     1      -1.415   4.504  24.745  0.00  0.00    +0.247 C 
ENDROOT
BRANCH  16  22
ATOM     22  C   UNL     1      -2.780   4.137  25.140  0.00  0.00    +0.037 A 
ATOM     27  C   UNL     1      -3.079   3.904  26.482  0.00  0.00    +0.013 A 
ATOM     28  C   UNL     1      -3.779   4.025  24.173  0.00  0.00    +0.013 A 
ATOM     29  C   UNL     1      -4.377   3.556  26.857  0.00  0.00    +0.001 A 
ATOM     30  C   UNL     1      -5.077   3.678  24.548  0.00  0.00    +0.001 A 
ATOM     31  C   UNL     1      -5.376   3.444  25.890  0.00  0.00    +0.000 A 
ENDBRANCH  16  22
BRANCH   8  13
ATOM     13  C   UNL     1      -0.515   0.818  25.041  0.00  0.00    +0.061 C 
BRANCH  13  15
ATOM      7  N   UNL     1       0.164  -1.428  25.550  0.00  0.00    -0.287 NA
ATOM     15  C   UNL     1      -0.792  -0.662  25.138  0.00  0.00    +0.044 C 
ATOM     17  C   UNL     1      -2.136  -1.166  24.755  0.00  0.00    +0.003 A 
ATOM     19  C   UNL     1      -2.243  -2.537  24.486  0.00  0.00    -0.033 A 
ATOM     20  C   UNL     1      -1.013  -3.389  24.586  0.00  0.00    +0.059 C 
ATOM     21  C   UNL     1      -0.124  -2.858  25.703  0.00  0.00    +0.146 C 
ATOM     23  C   UNL     1      -3.252  -0.333  24.646  0.00  0.00    +0.059 A 
ATOM     24  C   UNL     1      -3.471  -3.066  24.080  0.00  0.00    +0.053 A 
ATOM     25  C   UNL     1      -4.477  -0.875  24.255  0.00  0.00    +0.162 A 
ATOM     26  C   UNL     1      -4.587  -2.235  23.970  0.00  0.00    +0.162 A 
BRANCH  25   4
ATOM      4  O   UNL     1      -5.565  -0.059  24.152  0.00  0.00    -0.491 OA
ATOM     32  C   UNL     1      -5.871   0.755  25.282  0.00  0.00    +0.277 C 
ENDBRANCH  25   4
BRANCH  26   5
ATOM      5  O   UNL     1      -5.780  -2.767  23.581  0.00  0.00    -0.491 OA
ATOM     33  C   UNL     1      -5.732  -3.935  22.762  0.00  0.00    +0.277 C 
ENDBRANCH  26   5
ENDBRANCH  13  15
ENDBRANCH   8  13
BRANCH   9  14
ATOM     14  C   UNL     1       2.051   0.397  23.448  0.00  0.00    +0.124 C 
BRANCH  14  18
ATOM      3  O   UNL     1       4.440   0.882  23.423  0.00  0.00    -0.251 OA
ATOM     18  C   UNL     1       3.401   0.636  22.829  0.00  0.00    +0.305 C 
BRANCH  18   2
ATOM      2  O   UNL     1       3.309   0.537  21.478  0.00  0.00    -0.481 OA
ATOM     34  H   UNL     1       3.597  -0.344  21.156  0.00  0.00    +0.295 HD
ENDBRANCH  18   2
ENDBRANCH  14  18
ENDBRANCH   9  14
TORSDOF 8
ENDMDL
MODEL 6
REMARK VINA RESULT:       7.1      2.108      4.485
REMARK  Name = 51136597
REMARK  10 active torsions:
REMARK  status: ('A' for Active; 'I' for Inactive)
REMARK    1  A    between atoms: O_2  and  C_18
REMARK    2  A    between atoms: O_4  and  C_25
REMARK    3  A    between atoms: O_4  and  C_32
REMARK    4  A    between atoms: O_5  and  C_26
REMARK    5  A    between atoms: O_5  and  C_33
REMARK    6  A    between atoms: C_8  and  C_13
REMARK    7  A    between atoms: C_9  and  C_14
REMARK    8  A    between atoms: C_13  and  C_15
REMARK    9  A    between atoms: C_14  and  C_18
REMARK   10  A    between atoms: C_16  and  C_22
REMARK                            x       y       z     vdW  Elec       q    Type
REMARK                         _______ _______ _______ _____ _____    ______ ____
ROOT
ATOM      1  O   UNL     1      -4.596  -2.081  23.279  0.00  0.00    -0.270 OA
ATOM      6  N   UNL     1      -2.689  -1.857  24.618  0.00  0.00    -0.297 N 
ATOM      8  C   UNL     1      -0.554  -0.697  25.140  0.00  0.00    +0.016 C 
ATOM      9  C   UNL     1       0.205  -1.902  24.527  0.00  0.00    +0.006 C 
ATOM     10  C   UNL     1      -0.648  -2.633  23.475  0.00  0.00    +0.023 C 
ATOM     11  C   UNL     1      -1.930  -1.154  25.660  0.00  0.00    +0.112 C 
ATOM     12  C   UNL     1      -2.013  -3.018  24.042  0.00  0.00    +0.108 C 
ATOM     16  C   UNL     1      -3.958  -1.499  24.156  0.00  0.00    +0.247 C 
ENDROOT
BRANCH  16  22
ATOM     22  C   UNL     1      -4.607  -0.328  24.757  0.00  0.00    +0.037 A 
ATOM     27  C   UNL     1      -5.688   0.276  24.116  0.00  0.00    +0.013 A 
ATOM     28  C   UNL     1      -4.144   0.179  25.972  0.00  0.00    +0.013 A 
ATOM     29  C   UNL     1      -6.305   1.389  24.689  0.00  0.00    +0.001 A 
ATOM     30  C   UNL     1      -4.761   1.290  26.544  0.00  0.00    +0.001 A 
ATOM     31  C   UNL     1      -5.843   1.895  25.902  0.00  0.00    +0.000 A 
ENDBRANCH  16  22
BRANCH   8  13
ATOM     13  C   UNL     1      -0.714   0.490  24.182  0.00  0.00    +0.061 C 
BRANCH  13  15
ATOM      7  N   UNL     1       0.223   2.013  25.784  0.00  0.00    -0.287 NA
ATOM     15  C   UNL     1      -0.749   1.779  24.966  0.00  0.00    +0.044 C 
ATOM     17  C   UNL     1      -1.891   2.707  24.766  0.00  0.00    +0.003 A 
ATOM     19  C   UNL     1      -2.098   3.676  25.757  0.00  0.00    -0.033 A 
ATOM     20  C   UNL     1      -1.178   3.703  26.941  0.00  0.00    +0.059 C 
ATOM     21  C   UNL     1       0.221   3.293  26.500  0.00  0.00    +0.146 C 
ATOM     23  C   UNL     1      -2.743   2.631  23.662  0.00  0.00    +0.059 A 
ATOM     24  C   UNL     1      -3.181   4.553  25.649  0.00  0.00    +0.053 A 
ATOM     25  C   UNL     1      -3.811   3.522  23.555  0.00  0.00    +0.162 A 
ATOM     26  C   UNL     1      -4.032   4.478  24.546  0.00  0.00    +0.162 A 
BRANCH  25   4
ATOM      4  O   UNL     1      -4.639   3.446  22.474  0.00  0.00    -0.491 OA
ATOM     32  C   UNL     1      -4.026   3.491  21.187  0.00  0.00    +0.277 C 
ENDBRANCH  25   4
BRANCH  26   5
ATOM      5  O   UNL     1      -5.079   5.345  24.450  0.00  0.00    -0.491 OA
ATOM     33  C   UNL     1      -6.114   5.222  25.425  0.00  0.00    +0.277 C 
ENDBRANCH  26   5
ENDBRANCH  13  15
ENDBRANCH   8  13
BRANCH   9  14
ATOM     14  C   UNL     1       1.566  -1.522  23.945  0.00  0.00    +0.124 C 
BRANCH  14  18
ATOM      3  O   UNL     1       0.879  -0.551  21.818  0.00  0.00    -0.251 OA
ATOM     18  C   UNL     1       1.442  -0.450  22.898  0.00  0.00    +0.305 C 
BRANCH  18   2
ATOM      2  O   UNL     1       2.056   0.682  23.326  0.00  0.00    -0.481 OA
ATOM     34  H   UNL     1       2.085   1.369  22.626  0.00  0.00    +0.295 HD
ENDBRANCH  18   2
ENDBRANCH  14  18
ENDBRANCH   9  14
TORSDOF 8
ENDMDL
MODEL 7
REMARK VINA RESULT:       7.2      2.608      3.759
REMARK  Name = 51136597
REMARK  10 active torsions:
REMARK  status: ('A' for Active; 'I' for Inactive)
REMARK    1  A    between atoms: O_2  and  C_18
REMARK    2  A    between atoms: O_4  and  C_25
REMARK    3  A    between atoms: O_4  and  C_32
REMARK    4  A    between atoms: O_5  and  C_26
REMARK    5  A    between atoms: O_5  and  C_33
REMARK    6  A    between atoms: C_8  and  C_13
REMARK    7  A    between atoms: C_9  and  C_14
REMARK    8  A    between atoms: C_13  and  C_15
REMARK    9  A    between atoms: C_14  and  C_18
REMARK   10  A    between atoms: C_16  and  C_22
REMARK                            x       y       z     vdW  Elec       q    Type
REMARK                         _______ _______ _______ _____ _____    ______ ____
ROOT
ATOM      1  O   UNL     1       2.764  -2.557  24.657  0.00  0.00    -0.270 OA
ATOM      6  N   UNL     1       0.960  -1.506  23.600  0.00  0.00    -0.297 N 
ATOM      8  C   UNL     1      -0.776   0.272  23.572  0.00  0.00    +0.016 C 
ATOM      9  C   UNL     1      -1.825  -0.801  23.961  0.00  0.00    +0.006 C 
ATOM     10  C   UNL     1      -1.182  -1.971  24.725  0.00  0.00    +0.023 C 
ATOM     11  C   UNL     1       0.399  -0.389  22.828  0.00  0.00    +0.112 C 
ATOM     12  C   UNL     1       0.001  -2.551  23.955  0.00  0.00    +0.108 C 
ATOM     16  C   UNL     1       2.292  -1.627  24.006  0.00  0.00    +0.247 C 
ENDROOT
BRANCH  16  22
ATOM     22  C   UNL     1       3.226  -0.559  23.632  0.00  0.00    +0.037 A 
ATOM     27  C   UNL     1       4.576  -0.664  23.967  0.00  0.00    +0.013 A 
ATOM     28  C   UNL     1       2.765   0.560  22.938  0.00  0.00    +0.013 A 
ATOM     29  C   UNL     1       5.464   0.351  23.610  0.00  0.00    +0.001 A 
ATOM     30  C   UNL     1       3.653   1.574  22.581  0.00  0.00    +0.001 A 
ATOM     31  C   UNL     1       5.003   1.469  22.917  0.00  0.00    +0.000 A 
ENDBRANCH  16  22
BRANCH   8  13
ATOM     13  C   UNL     1      -0.259   1.095  24.758  0.00  0.00    +0.061 C 
BRANCH  13  15
ATOM      7  N   UNL     1       0.254   3.347  24.104  0.00  0.00    -0.287 NA
ATOM     15  C   UNL     1      -0.639   2.545  24.580  0.00  0.00    +0.044 C 
ATOM     17  C   UNL     1      -2.008   2.979  24.961  0.00  0.00    +0.003 A 
ATOM     19  C   UNL     1      -2.204   4.352  25.152  0.00  0.00    -0.033 A 
ATOM     20  C   UNL     1      -1.038   5.279  24.975  0.00  0.00    +0.059 C 
ATOM     21  C   UNL     1      -0.133   4.743  23.873  0.00  0.00    +0.146 C 
ATOM     23  C   UNL     1      -3.062   2.080  25.143  0.00  0.00    +0.059 A 
ATOM     24  C   UNL     1      -3.459   4.821  25.552  0.00  0.00    +0.053 A 
ATOM     25  C   UNL     1      -4.314   2.560  25.527  0.00  0.00    +0.162 A 
ATOM     26  C   UNL     1      -4.513   3.925  25.734  0.00  0.00    +0.162 A 
BRANCH  25   4
ATOM      4  O   UNL     1      -5.341   1.680  25.701  0.00  0.00    -0.491 OA
ATOM     32  C   UNL     1      -6.377   1.694  24.721  0.00  0.00    +0.277 C 
ENDBRANCH  25   4
BRANCH  26   5
ATOM      5  O   UNL     1      -5.733   4.396  26.116  0.00  0.00    -0.491 OA
ATOM     33  C   UNL     1      -6.320   5.410  25.301  0.00  0.00    +0.277 C 
ENDBRANCH  26   5
ENDBRANCH  13  15
ENDBRANCH   8  13
BRANCH   9  14
ATOM     14  C   UNL     1      -3.006  -0.230  24.745  0.00  0.00    +0.124 C 
BRANCH  14  18
ATOM      3  O   UNL     1      -3.826  -1.509  26.651  0.00  0.00    -0.251 OA
ATOM     18  C   UNL     1      -3.781  -1.311  25.446  0.00  0.00    +0.305 C 
BRANCH  18   2
ATOM      2  O   UNL     1      -4.449  -2.062  24.533  0.00  0.00    -0.481 OA
ATOM     34  H   UNL     1      -5.044  -1.515  23.976  0.00  0.00    +0.295 HD
ENDBRANCH  18   2
ENDBRANCH  14  18
ENDBRANCH   9  14
TORSDOF 8
ENDMDL
MODEL 8
REMARK VINA RESULT:       8.2      2.280      6.597
REMARK  Name = 51136597
REMARK  10 active torsions:
REMARK  status: ('A' for Active; 'I' for Inactive)
REMARK    1  A    between atoms: O_2  and  C_18
REMARK    2  A    between atoms: O_4  and  C_25
REMARK    3  A    between atoms: O_4  and  C_32
REMARK    4  A    between atoms: O_5  and  C_26
REMARK    5  A    between atoms: O_5  and  C_33
REMARK    6  A    between atoms: C_8  and  C_13
REMARK    7  A    between atoms: C_9  and  C_14
REMARK    8  A    between atoms: C_13  and  C_15
REMARK    9  A    between atoms: C_14  and  C_18
REMARK   10  A    between atoms: C_16  and  C_22
REMARK                            x       y       z     vdW  Elec       q    Type
REMARK                         _______ _______ _______ _____ _____    ______ ____
ROOT
ATOM      1  O   UNL     1      -4.613  -1.905  26.050  0.00  0.00    -0.270 OA
ATOM      6  N   UNL     1      -4.259  -0.201  24.486  0.00  0.00    -0.297 N 
ATOM      8  C   UNL     1      -3.385   2.059  23.931  0.00  0.00    +0.016 C 
ATOM      9  C   UNL     1      -4.844   2.583  23.943  0.00  0.00    +0.006 C 
ATOM     10  C   UNL     1      -5.744   1.731  24.855  0.00  0.00    +0.023 C 
ATOM     11  C   UNL     1      -3.371   0.556  23.593  0.00  0.00    +0.112 C 
ATOM     12  C   UNL     1      -5.649   0.250  24.496  0.00  0.00    +0.108 C 
ATOM     16  C   UNL     1      -3.875  -1.272  25.296  0.00  0.00    +0.247 C 
ENDROOT
BRANCH  16  22
ATOM     22  C   UNL     1      -2.471  -1.697  25.260  0.00  0.00    +0.037 A 
ATOM     27  C   UNL     1      -1.548  -1.131  26.139  0.00  0.00    +0.013 A 
ATOM     28  C   UNL     1      -2.060  -2.671  24.349  0.00  0.00    +0.013 A 
ATOM     29  C   UNL     1      -0.213  -1.536  26.105  0.00  0.00    +0.001 A 
ATOM     30  C   UNL     1      -0.726  -3.076  24.316  0.00  0.00    +0.001 A 
ATOM     31  C   UNL     1       0.197  -2.508  25.195  0.00  0.00    +0.000 A 
ENDBRANCH  16  22
BRANCH   8  13
ATOM     13  C   UNL     1      -2.618   2.319  25.233  0.00  0.00    +0.061 C 
BRANCH  13  15
ATOM      7  N   UNL     1      -1.525   4.455  25.319  0.00  0.00    -0.287 NA
ATOM     15  C   UNL     1      -1.436   3.217  24.961  0.00  0.00    +0.044 C 
ATOM     17  C   UNL     1      -0.239   2.642  24.295  0.00  0.00    +0.003 A 
ATOM     19  C   UNL     1       0.658   3.550  23.716  0.00  0.00    -0.033 A 
ATOM     20  C   UNL     1       0.350   5.015  23.793  0.00  0.00    +0.059 C 
ATOM     21  C   UNL     1      -0.354   5.313  25.110  0.00  0.00    +0.146 C 
ATOM     23  C   UNL     1      -0.002   1.268  24.222  0.00  0.00    +0.059 A 
ATOM     24  C   UNL     1       1.783   3.071  23.039  0.00  0.00    +0.053 A 
ATOM     25  C   UNL     1       1.132   0.801  23.558  0.00  0.00    +0.162 A 
ATOM     26  C   UNL     1       2.021   1.698  22.965  0.00  0.00    +0.162 A 
BRANCH  25   4
ATOM      4  O   UNL     1       1.361  -0.542  23.490  0.00  0.00    -0.491 OA
ATOM     32  C   UNL     1       1.426  -1.122  22.189  0.00  0.00    +0.277 C 
ENDBRANCH  25   4
BRANCH  26   5
ATOM      5  O   UNL     1       3.126   1.246  22.309  0.00  0.00    -0.491 OA
ATOM     33  C   UNL     1       4.281   0.968  23.100  0.00  0.00    +0.277 C 
ENDBRANCH  26   5
ENDBRANCH  13  15
ENDBRANCH   8  13
BRANCH   9  14
ATOM     14  C   UNL     1      -4.947   4.062  24.315  0.00  0.00    +0.124 C 
BRANCH  14  18
ATOM      3  O   UNL     1      -4.648   3.980  26.733  0.00  0.00    -0.251 OA
ATOM     18  C   UNL     1      -5.333   4.246  25.757  0.00  0.00    +0.305 C 
BRANCH  18   2
ATOM      2  O   UNL     1      -6.585   4.764  25.833  0.00  0.00    -0.481 OA
ATOM     34  H   UNL     1      -6.633   5.513  26.466  0.00  0.00    +0.295 HD
ENDBRANCH  18   2
ENDBRANCH  14  18
ENDBRANCH   9  14
TORSDOF 8
ENDMDL
MODEL 9
REMARK VINA RESULT:       8.3      2.554      4.930
REMARK  Name = 51136597
REMARK  10 active torsions:
REMARK  status: ('A' for Active; 'I' for Inactive)
REMARK    1  A    between atoms: O_2  and  C_18
REMARK    2  A    between atoms: O_4  and  C_25
REMARK    3  A    between atoms: O_4  and  C_32
REMARK    4  A    between atoms: O_5  and  C_26
REMARK    5  A    between atoms: O_5  and  C_33
REMARK    6  A    between atoms: C_8  and  C_13
REMARK    7  A    between atoms: C_9  and  C_14
REMARK    8  A    between atoms: C_13  and  C_15
REMARK    9  A    between atoms: C_14  and  C_18
REMARK   10  A    between atoms: C_16  and  C_22
REMARK                            x       y       z     vdW  Elec       q    Type
REMARK                         _______ _______ _______ _____ _____    ______ ____
ROOT
ATOM      1  O   UNL     1      -1.616  -3.089  24.188  0.00  0.00    -0.270 OA
ATOM      6  N   UNL     1      -0.438  -1.126  24.673  0.00  0.00    -0.297 N 
ATOM      8  C   UNL     1       0.428   1.093  23.961  0.00  0.00    +0.016 C 
ATOM      9  C   UNL     1       1.837   0.459  23.837  0.00  0.00    +0.006 C 
ATOM     10  C   UNL     1       1.756  -1.051  23.553  0.00  0.00    +0.023 C 
ATOM     11  C   UNL     1      -0.411   0.309  24.988  0.00  0.00    +0.112 C 
ATOM     12  C   UNL     1       0.876  -1.759  24.580  0.00  0.00    +0.108 C 
ATOM     16  C   UNL     1      -1.588  -1.889  24.458  0.00  0.00    +0.247 C 
ENDROOT
BRANCH  16  22
ATOM     22  C   UNL     1      -2.890  -1.219  24.559  0.00  0.00    +0.037 A 
ATOM     27  C   UNL     1      -3.889  -1.492  23.625  0.00  0.00    +0.013 A 
ATOM     28  C   UNL     1      -3.130  -0.312  25.592  0.00  0.00    +0.013 A 
ATOM     29  C   UNL     1      -5.127  -0.856  23.722  0.00  0.00    +0.001 A 
ATOM     30  C   UNL     1      -4.367   0.323  25.689  0.00  0.00    +0.001 A 
ATOM     31  C   UNL     1      -5.366   0.051  24.754  0.00  0.00    +0.000 A 
ENDBRANCH  16  22
BRANCH   8  13
ATOM     13  C   UNL     1      -0.326   1.201  22.630  0.00  0.00    +0.061 C 
BRANCH  13  15
ATOM      7  N   UNL     1      -2.588   1.621  21.943  0.00  0.00    -0.287 NA
ATOM     15  C   UNL     1      -1.697   1.788  22.863  0.00  0.00    +0.044 C 
ATOM     17  C   UNL     1      -1.953   2.527  24.126  0.00  0.00    +0.003 A 
ATOM     19  C   UNL     1      -3.071   3.372  24.146  0.00  0.00    -0.033 A 
ATOM     20  C   UNL     1      -3.913   3.484  22.910  0.00  0.00    +0.059 C 
ATOM     21  C   UNL     1      -3.937   2.139  22.196  0.00  0.00    +0.146 C 
ATOM     23  C   UNL     1      -1.128   2.417  25.247  0.00  0.00    +0.059 A 
ATOM     24  C   UNL     1      -3.344   4.127  25.291  0.00  0.00    +0.053 A 
ATOM     25  C   UNL     1      -1.419   3.163  26.390  0.00  0.00    +0.162 A 
ATOM     26  C   UNL     1      -2.520   4.017  26.412  0.00  0.00    +0.162 A 
BRANCH  25   4
ATOM      4  O   UNL     1      -0.612   3.050  27.484  0.00  0.00    -0.491 OA
ATOM     32  C   UNL     1       0.728   2.621  27.257  0.00  0.00    +0.277 C 
ENDBRANCH  25   4
BRANCH  26   5
ATOM      5  O   UNL     1      -2.803   4.754  27.523  0.00  0.00    -0.491 OA
ATOM     33  C   UNL     1      -3.411   4.068  28.617  0.00  0.00    +0.277 C 
ENDBRANCH  26   5
ENDBRANCH  13  15
ENDBRANCH   8  13
BRANCH   9  14
ATOM     14  C   UNL     1       2.719   1.155  22.801  0.00  0.00    +0.124 C 
BRANCH  14  18
ATOM      3  O   UNL     1       4.795   0.227  21.922  0.00  0.00    -0.251 OA
ATOM     18  C   UNL     1       4.138   0.659  22.857  0.00  0.00    +0.305 C 
BRANCH  18   2
ATOM      2  O   UNL     1       4.608   0.759  24.127  0.00  0.00    -0.481 OA
ATOM     34  H   UNL     1       5.462   0.289  24.238  0.00  0.00    +0.295 HD
ENDBRANCH  18   2
ENDBRANCH  14  18
ENDBRANCH   9  14
TORSDOF 8
ENDMDL
MODEL 10
REMARK VINA RESULT:       8.5      2.297      5.643
REMARK  Name = 51136597
REMARK  10 active torsions:
REMARK  status: ('A' for Active; 'I' for Inactive)
REMARK    1  A    between atoms: O_2  and  C_18
REMARK    2  A    between atoms: O_4  and  C_25
REMARK    3  A    between atoms: O_4  and  C_32
REMARK    4  A    between atoms: O_5  and  C_26
REMARK    5  A    between atoms: O_5  and  C_33
REMARK    6  A    between atoms: C_8  and  C_13
REMARK    7  A    between atoms: C_9  and  C_14
REMARK    8  A    between atoms: C_13  and  C_15
REMARK    9  A    between atoms: C_14  and  C_18
REMARK   10  A    between atoms: C_16  and  C_22
REMARK                            x       y       z     vdW  Elec       q    Type
REMARK                         _______ _______ _______ _____ _____    ______ ____
ROOT
ATOM      1  O   UNL     1      -0.883  -2.632  24.035  0.00  0.00    -0.270 OA
ATOM      6  N   UNL     1      -2.417  -0.910  23.642  0.00  0.00    -0.297 N 
ATOM      8  C   UNL     1      -3.587   1.144  24.410  0.00  0.00    +0.016 C 
ATOM      9  C   UNL     1      -4.851   0.283  24.662  0.00  0.00    +0.006 C 
ATOM     10  C   UNL     1      -4.488  -1.185  24.949  0.00  0.00    +0.023 C 
ATOM     11  C   UNL     1      -2.717   0.492  23.319  0.00  0.00    +0.112 C 
ATOM     12  C   UNL     1      -3.590  -1.756  23.854  0.00  0.00    +0.108 C 
ATOM     16  C   UNL     1      -1.139  -1.461  23.760  0.00  0.00    +0.247 C 
ENDROOT
BRANCH  16  22
ATOM     22  C   UNL     1       0.015  -0.582  23.540  0.00  0.00    +0.037 A 
ATOM     27  C   UNL     1       0.966  -0.908  22.573  0.00  0.00    +0.013 A 
ATOM     28  C   UNL     1       0.158   0.583  24.295  0.00  0.00    +0.013 A 
ATOM     29  C   UNL     1       2.062  -0.071  22.363  0.00  0.00    +0.001 A 
ATOM     30  C   UNL     1       1.254   1.419  24.084  0.00  0.00    +0.001 A 
ATOM     31  C   UNL     1       2.206   1.093  23.118  0.00  0.00    +0.000 A 
ENDBRANCH  16  22
BRANCH   8  13
ATOM     13  C   UNL     1      -2.752   1.408  25.669  0.00  0.00    +0.061 C 
BRANCH  13  15
ATOM      7  N   UNL     1      -2.425   3.566  24.668  0.00  0.00    -0.287 NA
ATOM     15  C   UNL     1      -1.978   2.694  25.510  0.00  0.00    +0.044 C 
ATOM     17  C   UNL     1      -0.747   2.893  26.317  0.00  0.00    +0.003 A 
ATOM     19  C   UNL     1       0.140   3.885  25.881  0.00  0.00    -0.033 A 
ATOM     20  C   UNL     1      -0.197   4.659  24.641  0.00  0.00    +0.059 C 
ATOM     21  C   UNL     1      -1.707   4.840  24.557  0.00  0.00    +0.146 C 
ATOM     23  C   UNL     1      -0.456   2.131  27.451  0.00  0.00    +0.059 A 
ATOM     24  C   UNL     1       1.337   4.094  26.574  0.00  0.00    +0.053 A 
ATOM     25  C   UNL     1       0.733   2.359  28.145  0.00  0.00    +0.162 A 
ATOM     26  C   UNL     1       1.628   3.334  27.707  0.00  0.00    +0.162 A 
BRANCH  25   4
ATOM      4  O   UNL     1       1.012   1.615  29.253  0.00  0.00    -0.491 OA
ATOM     32  C   UNL     1       1.013   2.296  30.505  0.00  0.00    +0.277 C 
ENDBRANCH  25   4
BRANCH  26   5
ATOM      5  O   UNL     1       2.795   3.554  28.376  0.00  0.00    -0.491 OA
ATOM     33  C   UNL     1       3.738   2.484  28.402  0.00  0.00    +0.277 C 
ENDBRANCH  26   5
ENDBRANCH  13  15
ENDBRANCH   8  13
BRANCH   9  14
ATOM     14  C   UNL     1      -5.748   0.841  25.767  0.00  0.00    +0.124 C 
BRANCH  14  18
ATOM      3  O   UNL     1      -7.246   2.242  24.450  0.00  0.00    -0.251 OA
ATOM     18  C   UNL     1      -6.421   2.117  25.343  0.00  0.00    +0.305 C 
BRANCH  18   2
ATOM      2  O   UNL     1      -5.978   3.145  26.111  0.00  0.00    -0.481 OA
ATOM     34  H   UNL     1      -6.390   3.998  25.853  0.00  0.00    +0.295 HD
ENDBRANCH  18   2
ENDBRANCH  14  18
ENDBRANCH   9  14
TORSDOF 8
ENDMDL
