MODEL 1
REMARK VINA RESULT:      -2.7      0.000      0.000
REMARK  Name = 75537119
REMARK  5 active torsions:
REMARK  status: ('A' for Active; 'I' for Inactive)
REMARK    1  A    between atoms: O_2  and  C_24
REMARK    2  A    between atoms: O_2  and  C_25
REMARK    3  A    between atoms: N_3  and  C_7
REMARK    4  A    between atoms: N_5  and  C_18
REMARK    5  A    between atoms: C_18  and  C_19
REMARK                            x       y       z     vdW  Elec       q    Type
REMARK                         _______ _______ _______ _____ _____    ______ ____
ROOT
ATOM      1  O   UNL     1     -10.671  -7.247  13.802  0.00  0.00    -0.252 OA
ATOM      3  N   UNL     1     -10.456  -9.531  13.250  0.00  0.00    -0.281 N 
ATOM      4  N   UNL     1     -10.093  -8.896  15.373  0.00  0.00    -0.278 N 
ATOM      5  N   UNL     1      -8.730 -10.132  17.500  0.00  0.00    -0.295 NA
ATOM      6  C   UNL     1     -10.005 -10.341  15.406  0.00  0.00    +0.109 C 
ATOM      8  C   UNL     1     -10.023 -10.739  13.932  0.00  0.00    +0.133 C 
ATOM      9  C   UNL     1      -8.760 -10.781  16.174  0.00  0.00    +0.109 C 
ATOM     12  C   UNL     1     -10.440  -8.411  14.105  0.00  0.00    +0.305 C 
ATOM     13  C   UNL     1      -9.928  -8.148  16.602  0.00  0.00    +0.125 C 
ATOM     14  C   UNL     1      -8.706  -8.661  17.367  0.00  0.00    +0.104 C 
ENDROOT
BRANCH   3   7
ATOM      7  C   UNL     1     -10.712  -9.505  11.830  0.00  0.00    +0.078 C 
ATOM     10  C   UNL     1     -10.101 -10.733  11.152  0.00  0.00    +0.022 C 
ATOM     11  C   UNL     1     -10.190  -8.207  11.208  0.00  0.00    +0.022 C 
ATOM     15  C   UNL     1     -10.313 -10.705   9.640  0.00  0.00    +0.002 C 
ATOM     16  C   UNL     1     -10.403  -8.183   9.696  0.00  0.00    +0.002 C 
ATOM     17  C   UNL     1      -9.794  -9.409   9.023  0.00  0.00    +0.000 C 
ENDBRANCH   3   7
BRANCH   5  18
ATOM     18  C   UNL     1      -7.574 -10.593  18.268  0.00  0.00    +0.119 C 
BRANCH  18  19
ATOM     19  C   UNL     1      -6.326 -10.642  17.427  0.00  0.00    -0.033 A 
ATOM     20  C   UNL     1      -5.072 -10.651  18.038  0.00  0.00    +0.008 A 
ATOM     21  C   UNL     1      -6.424 -10.677  16.036  0.00  0.00    +0.008 A 
ATOM     22  C   UNL     1      -3.917 -10.697  17.258  0.00  0.00    +0.046 A 
ATOM     23  C   UNL     1      -5.269 -10.723  15.256  0.00  0.00    +0.046 A 
ATOM     24  C   UNL     1      -4.015 -10.732  15.867  0.00  0.00    +0.120 A 
BRANCH  24   2
ATOM      2  O   UNL     1      -2.887 -10.777  15.106  0.00  0.00    -0.495 OA
ATOM     25  C   UNL     1      -1.638 -10.781  15.796  0.00  0.00    +0.277 C 
ENDBRANCH  24   2
ENDBRANCH  18  19
ENDBRANCH   5  18
TORSDOF 4
ENDMDL
