MODEL 1
REMARK VINA RESULT:      -5.3      0.000      0.000
REMARK  Name = 56774033
REMARK  11 active torsions:
REMARK  status: ('A' for Active; 'I' for Inactive)
REMARK    1  A    between atoms: N_3  and  C_9
REMARK    2  A    between atoms: N_5  and  C_19
REMARK    3  A    between atoms: N_6  and  C_18
REMARK    4  A    between atoms: N_6  and  C_21
REMARK    5  A    between atoms: N_6  and  C_22
REMARK    6  A    between atoms: C_7  and  C_12
REMARK    7  A    between atoms: C_7  and  C_13
REMARK    8  A    between atoms: C_8  and  C_11
REMARK    9  A    between atoms: C_11  and  C_14
REMARK   10  A    between atoms: C_17  and  C_18
REMARK   11  A    between atoms: C_19  and  C_20
REMARK                            x       y       z     vdW  Elec       q    Type
REMARK                         _______ _______ _______ _____ _____    ______ ____
ROOT
ATOM      7  C   UNL     1      -3.343  -1.665  24.495  0.00  0.00    -0.013 C 
ATOM      8  C   UNL     1      -3.986  -0.726  25.538  0.00  0.00    +0.004 C 
ATOM      9  C   UNL     1      -1.984  -1.331  25.144  0.00  0.00    +0.081 C 
ATOM     10  C   UNL     1      -2.623  -0.008  25.619  0.00  0.00    +0.027 C 
ATOM     12  C   UNL     1      -3.431  -1.204  23.051  0.00  0.00    +0.013 C 
ATOM     13  C   UNL     1      -3.803  -3.100  24.609  0.00  0.00    +0.013 C 
ENDROOT
BRANCH   9   3
ATOM      2  O   UNL     1      -0.111   0.866  25.098  0.00  0.00    -0.253 OA
ATOM      3  N   UNL     1      -0.860  -1.142  24.212  0.00  0.00    -0.296 N 
ATOM      5  N   UNL     1       0.971  -0.100  23.284  0.00  0.00    -0.300 N 
ATOM     15  C   UNL     1      -0.007  -0.041  24.273  0.00  0.00    +0.300 C 
ATOM     23  H   UNL     1      -0.681  -1.827  23.482  0.00  0.00    +0.151 HD
ATOM     24  H   UNL     1       0.971  -0.886  22.641  0.00  0.00    +0.150 HD
BRANCH   5  19
ATOM     19  C   UNL     1       1.982   0.918  23.126  0.00  0.00    +0.102 C 
ATOM     20  C   UNL     1       3.274   0.338  22.591  0.00  0.00    +0.024 C 
ENDBRANCH   5  19
ENDBRANCH   9   3
BRANCH   8  11
ATOM     11  C   UNL     1      -5.133   0.140  25.076  0.00  0.00    +0.063 C 
BRANCH  11  14
ATOM      1  O   UNL     1      -4.821   3.684  25.681  0.00  0.00    -0.358 OA
ATOM      4  N   UNL     1      -5.438   2.453  25.870  0.00  0.00    -0.083 NA
ATOM     14  C   UNL     1      -4.741   1.598  25.117  0.00  0.00    +0.084 A 
ATOM     16  C   UNL     1      -3.683   2.225  24.437  0.00  0.00    +0.072 A 
ATOM     17  C   UNL     1      -3.776   3.535  24.826  0.00  0.00    +0.151 A 
BRANCH  17  18
ATOM     18  C   UNL     1      -3.008   4.745  24.515  0.00  0.00    +0.161 C 
BRANCH  18   6
ATOM      6  N   UNL     1      -1.831   4.926  25.383  0.00  0.00    -0.301 NA
ATOM     21  C   UNL     1      -1.563   3.699  26.126  0.00  0.00    +0.105 C 
ATOM     22  C   UNL     1      -0.674   5.314  24.583  0.00  0.00    +0.105 C 
ENDBRANCH  18   6
ENDBRANCH  17  18
ENDBRANCH  11  14
ENDBRANCH   8  11
TORSDOF 6
ENDMDL
MODEL 2
REMARK VINA RESULT:      -5.1      1.863      5.335
REMARK  Name = 56774033
REMARK  11 active torsions:
REMARK  status: ('A' for Active; 'I' for Inactive)
REMARK    1  A    between atoms: N_3  and  C_9
REMARK    2  A    between atoms: N_5  and  C_19
REMARK    3  A    between atoms: N_6  and  C_18
REMARK    4  A    between atoms: N_6  and  C_21
REMARK    5  A    between atoms: N_6  and  C_22
REMARK    6  A    between atoms: C_7  and  C_12
REMARK    7  A    between atoms: C_7  and  C_13
REMARK    8  A    between atoms: C_8  and  C_11
REMARK    9  A    between atoms: C_11  and  C_14
REMARK   10  A    between atoms: C_17  and  C_18
REMARK   11  A    between atoms: C_19  and  C_20
REMARK                            x       y       z     vdW  Elec       q    Type
REMARK                         _______ _______ _______ _____ _____    ______ ____
ROOT
ATOM      7  C   UNL     1      -4.427   3.433  24.911  0.00  0.00    -0.013 C 
ATOM      8  C   UNL     1      -3.344   3.727  25.972  0.00  0.00    +0.004 C 
ATOM      9  C   UNL     1      -4.598   2.052  25.579  0.00  0.00    +0.081 C 
ATOM     10  C   UNL     1      -3.145   2.200  26.080  0.00  0.00    +0.027 C 
ATOM     12  C   UNL     1      -3.936   3.334  23.478  0.00  0.00    +0.013 C 
ATOM     13  C   UNL     1      -5.616   4.363  24.987  0.00  0.00    +0.013 C 
ENDROOT
BRANCH   9   3
ATOM      2  O   UNL     1      -3.679  -0.661  25.943  0.00  0.00    -0.253 OA
ATOM      3  N   UNL     1      -4.793   0.918  24.660  0.00  0.00    -0.296 N 
ATOM      5  N   UNL     1      -4.625  -1.250  23.905  0.00  0.00    -0.300 N 
ATOM     15  C   UNL     1      -4.308  -0.361  24.928  0.00  0.00    +0.300 C 
ATOM     23  H   UNL     1      -5.294   1.050  23.785  0.00  0.00    +0.151 HD
ATOM     24  H   UNL     1      -5.141  -0.907  23.100  0.00  0.00    +0.150 HD
BRANCH   5  19
ATOM     19  C   UNL     1      -4.239  -2.641  23.934  0.00  0.00    +0.102 C 
ATOM     20  C   UNL     1      -2.777  -2.803  24.289  0.00  0.00    +0.024 C 
ENDBRANCH   5  19
ENDBRANCH   9   3
BRANCH   8  11
ATOM     11  C   UNL     1      -2.125   4.495  25.522  0.00  0.00    +0.063 C 
BRANCH  11  14
ATOM      1  O   UNL     1       0.738   2.310  25.738  0.00  0.00    -0.358 OA
ATOM      4  N   UNL     1      -0.210   3.154  26.302  0.00  0.00    -0.083 NA
ATOM     14  C   UNL     1      -0.970   3.553  25.278  0.00  0.00    +0.084 A 
ATOM     16  C   UNL     1      -0.553   2.998  24.057  0.00  0.00    +0.072 A 
ATOM     17  C   UNL     1       0.524   2.225  24.400  0.00  0.00    +0.151 A 
BRANCH  17  18
ATOM     18  C   UNL     1       1.442   1.367  23.643  0.00  0.00    +0.161 C 
BRANCH  18   6
ATOM      6  N   UNL     1       0.760   0.275  22.926  0.00  0.00    -0.301 NA
ATOM     21  C   UNL     1       1.701  -0.414  22.049  0.00  0.00    +0.105 C 
ATOM     22  C   UNL     1       0.162  -0.653  23.879  0.00  0.00    +0.105 C 
ENDBRANCH  18   6
ENDBRANCH  17  18
ENDBRANCH  11  14
ENDBRANCH   8  11
TORSDOF 6
ENDMDL
MODEL 3
REMARK VINA RESULT:      -4.6      1.658      4.762
REMARK  Name = 56774033
REMARK  11 active torsions:
REMARK  status: ('A' for Active; 'I' for Inactive)
REMARK    1  A    between atoms: N_3  and  C_9
REMARK    2  A    between atoms: N_5  and  C_19
REMARK    3  A    between atoms: N_6  and  C_18
REMARK    4  A    between atoms: N_6  and  C_21
REMARK    5  A    between atoms: N_6  and  C_22
REMARK    6  A    between atoms: C_7  and  C_12
REMARK    7  A    between atoms: C_7  and  C_13
REMARK    8  A    between atoms: C_8  and  C_11
REMARK    9  A    between atoms: C_11  and  C_14
REMARK   10  A    between atoms: C_17  and  C_18
REMARK   11  A    between atoms: C_19  and  C_20
REMARK                            x       y       z     vdW  Elec       q    Type
REMARK                         _______ _______ _______ _____ _____    ______ ____
ROOT
ATOM      7  C   UNL     1      -3.238  -1.873  24.969  0.00  0.00    -0.013 C 
ATOM      8  C   UNL     1      -2.139  -1.569  23.929  0.00  0.00    +0.004 C 
ATOM      9  C   UNL     1      -4.137  -0.887  24.194  0.00  0.00    +0.081 C 
ATOM     10  C   UNL     1      -2.840  -0.214  23.698  0.00  0.00    +0.027 C 
ATOM     12  C   UNL     1      -2.950  -1.412  26.387  0.00  0.00    +0.013 C 
ATOM     13  C   UNL     1      -3.682  -3.318  24.975  0.00  0.00    +0.013 C 
ENDROOT
BRANCH   9   3
ATOM      2  O   UNL     1      -4.501   1.961  23.890  0.00  0.00    -0.253 OA
ATOM      3  N   UNL     1      -4.980  -0.007  25.020  0.00  0.00    -0.296 N 
ATOM      5  N   UNL     1      -5.947   1.966  25.708  0.00  0.00    -0.300 N 
ATOM     15  C   UNL     1      -5.090   1.364  24.791  0.00  0.00    +0.300 C 
ATOM     23  H   UNL     1      -5.510  -0.390  25.799  0.00  0.00    +0.151 HD
ATOM     24  H   UNL     1      -6.382   1.391  26.423  0.00  0.00    +0.150 HD
BRANCH   5  19
ATOM     19  C   UNL     1      -6.235   3.380  25.692  0.00  0.00    +0.102 C 
ATOM     20  C   UNL     1      -4.987   4.198  25.436  0.00  0.00    +0.024 C 
ENDBRANCH   5  19
ENDBRANCH   9   3
BRANCH   8  11
ATOM     11  C   UNL     1      -0.719  -1.471  24.432  0.00  0.00    +0.063 C 
BRANCH  11  14
ATOM      1  O   UNL     1       0.873   1.722  23.888  0.00  0.00    -0.358 OA
ATOM      4  N   UNL     1       0.708   0.368  23.621  0.00  0.00    -0.083 NA
ATOM     14  C   UNL     1      -0.265  -0.031  24.446  0.00  0.00    +0.084 A 
ATOM     16  C   UNL     1      -0.745   1.017  25.250  0.00  0.00    +0.072 A 
ATOM     17  C   UNL     1       0.002   2.097  24.860  0.00  0.00    +0.151 A 
BRANCH  17  18
ATOM     18  C   UNL     1       0.041   3.506  25.267  0.00  0.00    +0.161 C 
BRANCH  18   6
ATOM      6  N   UNL     1      -1.236   4.209  25.054  0.00  0.00    -0.301 NA
ATOM     21  C   UNL     1      -2.118   4.004  26.197  0.00  0.00    +0.105 C 
ATOM     22  C   UNL     1      -0.994   5.630  24.831  0.00  0.00    +0.105 C 
ENDBRANCH  18   6
ENDBRANCH  17  18
ENDBRANCH  11  14
ENDBRANCH   8  11
TORSDOF 6
ENDMDL
MODEL 4
REMARK VINA RESULT:      -4.5      2.796      5.429
REMARK  Name = 56774033
REMARK  11 active torsions:
REMARK  status: ('A' for Active; 'I' for Inactive)
REMARK    1  A    between atoms: N_3  and  C_9
REMARK    2  A    between atoms: N_5  and  C_19
REMARK    3  A    between atoms: N_6  and  C_18
REMARK    4  A    between atoms: N_6  and  C_21
REMARK    5  A    between atoms: N_6  and  C_22
REMARK    6  A    between atoms: C_7  and  C_12
REMARK    7  A    between atoms: C_7  and  C_13
REMARK    8  A    between atoms: C_8  and  C_11
REMARK    9  A    between atoms: C_11  and  C_14
REMARK   10  A    between atoms: C_17  and  C_18
REMARK   11  A    between atoms: C_19  and  C_20
REMARK                            x       y       z     vdW  Elec       q    Type
REMARK                         _______ _______ _______ _____ _____    ______ ____
ROOT
ATOM      7  C   UNL     1      -1.542   3.863  25.174  0.00  0.00    -0.013 C 
ATOM      8  C   UNL     1      -1.859   3.127  23.854  0.00  0.00    +0.004 C 
ATOM      9  C   UNL     1      -0.434   2.815  25.404  0.00  0.00    +0.081 C 
ATOM     10  C   UNL     1      -1.252   1.865  24.503  0.00  0.00    +0.027 C 
ATOM     12  C   UNL     1      -2.627   3.812  26.234  0.00  0.00    +0.013 C 
ATOM     13  C   UNL     1      -1.081   5.289  24.975  0.00  0.00    +0.013 C 
ENDROOT
BRANCH   9   3
ATOM      2  O   UNL     1       1.721   3.405  27.233  0.00  0.00    -0.253 OA
ATOM      3  N   UNL     1      -0.287   2.334  26.788  0.00  0.00    -0.296 N 
ATOM      5  N   UNL     1       0.697   2.095  28.855  0.00  0.00    -0.300 N 
ATOM     15  C   UNL     1       0.796   2.678  27.595  0.00  0.00    +0.300 C 
ATOM     23  H   UNL     1      -0.990   1.719  27.192  0.00  0.00    +0.151 HD
ATOM     24  H   UNL     1      -0.101   1.500  29.059  0.00  0.00    +0.150 HD
BRANCH   5  19
ATOM     19  C   UNL     1       1.690   2.291  29.884  0.00  0.00    +0.102 C 
ATOM     20  C   UNL     1       3.027   2.689  29.295  0.00  0.00    +0.024 C 
ENDBRANCH   5  19
ENDBRANCH   9   3
BRANCH   8  11
ATOM     11  C   UNL     1      -3.312   3.003  23.463  0.00  0.00    +0.063 C 
BRANCH  11  14
ATOM      1  O   UNL     1      -5.112   0.160  24.767  0.00  0.00    -0.358 OA
ATOM      4  N   UNL     1      -4.893   1.527  24.644  0.00  0.00    -0.083 NA
ATOM     14  C   UNL     1      -3.840   1.636  23.828  0.00  0.00    +0.084 A 
ATOM     16  C   UNL     1      -3.357   0.385  23.410  0.00  0.00    +0.072 A 
ATOM     17  C   UNL     1      -4.190  -0.510  24.027  0.00  0.00    +0.151 A 
BRANCH  17  18
ATOM     18  C   UNL     1      -4.277  -1.974  24.043  0.00  0.00    +0.161 C 
BRANCH  18   6
ATOM      6  N   UNL     1      -3.321  -2.603  24.971  0.00  0.00    -0.301 NA
ATOM     21  C   UNL     1      -2.017  -2.740  24.331  0.00  0.00    +0.105 C 
ATOM     22  C   UNL     1      -3.219  -1.816  26.195  0.00  0.00    +0.105 C 
ENDBRANCH  18   6
ENDBRANCH  17  18
ENDBRANCH  11  14
ENDBRANCH   8  11
TORSDOF 6
ENDMDL
MODEL 5
REMARK VINA RESULT:      -4.2      1.963      2.923
REMARK  Name = 56774033
REMARK  11 active torsions:
REMARK  status: ('A' for Active; 'I' for Inactive)
REMARK    1  A    between atoms: N_3  and  C_9
REMARK    2  A    between atoms: N_5  and  C_19
REMARK    3  A    between atoms: N_6  and  C_18
REMARK    4  A    between atoms: N_6  and  C_21
REMARK    5  A    between atoms: N_6  and  C_22
REMARK    6  A    between atoms: C_7  and  C_12
REMARK    7  A    between atoms: C_7  and  C_13
REMARK    8  A    between atoms: C_8  and  C_11
REMARK    9  A    between atoms: C_11  and  C_14
REMARK   10  A    between atoms: C_17  and  C_18
REMARK   11  A    between atoms: C_19  and  C_20
REMARK                            x       y       z     vdW  Elec       q    Type
REMARK                         _______ _______ _______ _____ _____    ______ ____
ROOT
ATOM      7  C   UNL     1      -1.356   0.274  23.760  0.00  0.00    -0.013 C 
ATOM      8  C   UNL     1      -2.172  -1.014  24.001  0.00  0.00    +0.004 C 
ATOM      9  C   UNL     1      -0.204  -0.636  23.286  0.00  0.00    +0.081 C 
ATOM     10  C   UNL     1      -0.824  -1.746  24.161  0.00  0.00    +0.027 C 
ATOM     12  C   UNL     1      -1.000   1.072  25.001  0.00  0.00    +0.013 C 
ATOM     13  C   UNL     1      -1.959   1.186  22.715  0.00  0.00    +0.013 C 
ENDROOT
BRANCH   9   3
ATOM      2  O   UNL     1       2.078  -0.122  21.593  0.00  0.00    -0.253 OA
ATOM      3  N   UNL     1       1.146  -0.233  23.714  0.00  0.00    -0.296 N 
ATOM      5  N   UNL     1       3.357   0.363  23.471  0.00  0.00    -0.300 N 
ATOM     15  C   UNL     1       2.186  -0.007  22.814  0.00  0.00    +0.300 C 
ATOM     23  H   UNL     1       1.354  -0.113  24.702  0.00  0.00    +0.151 HD
ATOM     24  H   UNL     1       3.351   0.423  24.485  0.00  0.00    +0.150 HD
BRANCH   5  19
ATOM     19  C   UNL     1       4.585   0.655  22.771  0.00  0.00    +0.102 C 
ATOM     20  C   UNL     1       5.781   0.047  23.473  0.00  0.00    +0.024 C 
ENDBRANCH   5  19
ENDBRANCH   9   3
BRANCH   8  11
ATOM     11  C   UNL     1      -3.063  -1.051  25.219  0.00  0.00    +0.063 C 
BRANCH  11  14
ATOM      1  O   UNL     1      -5.880   1.151  24.730  0.00  0.00    -0.358 OA
ATOM      4  N   UNL     1      -5.231  -0.068  24.579  0.00  0.00    -0.083 NA
ATOM     14  C   UNL     1      -4.050   0.092  25.184  0.00  0.00    +0.084 A 
ATOM     16  C   UNL     1      -3.900   1.378  25.729  0.00  0.00    +0.072 A 
ATOM     17  C   UNL     1      -5.077   2.005  25.417  0.00  0.00    +0.151 A 
BRANCH  17  18
ATOM     18  C   UNL     1      -5.612   3.348  25.668  0.00  0.00    +0.161 C 
BRANCH  18   6
ATOM      6  N   UNL     1      -4.655   4.423  25.351  0.00  0.00    -0.301 NA
ATOM     21  C   UNL     1      -3.595   4.461  26.353  0.00  0.00    +0.105 C 
ATOM     22  C   UNL     1      -4.103   4.225  24.016  0.00  0.00    +0.105 C 
ENDBRANCH  18   6
ENDBRANCH  17  18
ENDBRANCH  11  14
ENDBRANCH   8  11
TORSDOF 6
ENDMDL
MODEL 6
REMARK VINA RESULT:      -3.8      1.886      4.748
REMARK  Name = 56774033
REMARK  11 active torsions:
REMARK  status: ('A' for Active; 'I' for Inactive)
REMARK    1  A    between atoms: N_3  and  C_9
REMARK    2  A    between atoms: N_5  and  C_19
REMARK    3  A    between atoms: N_6  and  C_18
REMARK    4  A    between atoms: N_6  and  C_21
REMARK    5  A    between atoms: N_6  and  C_22
REMARK    6  A    between atoms: C_7  and  C_12
REMARK    7  A    between atoms: C_7  and  C_13
REMARK    8  A    between atoms: C_8  and  C_11
REMARK    9  A    between atoms: C_11  and  C_14
REMARK   10  A    between atoms: C_17  and  C_18
REMARK   11  A    between atoms: C_19  and  C_20
REMARK                            x       y       z     vdW  Elec       q    Type
REMARK                         _______ _______ _______ _____ _____    ______ ____
ROOT
ATOM      7  C   UNL     1      -1.910   3.799  25.023  0.00  0.00    -0.013 C 
ATOM      8  C   UNL     1      -3.205   3.208  24.428  0.00  0.00    +0.004 C 
ATOM      9  C   UNL     1      -1.204   3.363  23.722  0.00  0.00    +0.081 C 
ATOM     10  C   UNL     1      -2.304   2.290  23.576  0.00  0.00    +0.027 C 
ATOM     12  C   UNL     1      -1.364   3.092  26.250  0.00  0.00    +0.013 C 
ATOM     13  C   UNL     1      -1.985   5.288  25.275  0.00  0.00    +0.013 C 
ENDROOT
BRANCH   9   3
ATOM      2  O   UNL     1      -0.234   0.834  22.723  0.00  0.00    -0.253 OA
ATOM      3  N   UNL     1       0.148   2.804  23.885  0.00  0.00    -0.296 N 
ATOM      5  N   UNL     1       1.849   1.269  23.654  0.00  0.00    -0.300 N 
ATOM     15  C   UNL     1       0.521   1.567  23.362  0.00  0.00    +0.300 C 
ATOM     23  H   UNL     1       0.856   3.320  24.402  0.00  0.00    +0.151 HD
ATOM     24  H   UNL     1       2.392   1.935  24.197  0.00  0.00    +0.150 HD
BRANCH   5  19
ATOM     19  C   UNL     1       2.486   0.046  23.227  0.00  0.00    +0.102 C 
ATOM     20  C   UNL     1       3.865   0.308  22.660  0.00  0.00    +0.024 C 
ENDBRANCH   5  19
ENDBRANCH   9   3
BRANCH   8  11
ATOM     11  C   UNL     1      -4.134   2.484  25.374  0.00  0.00    +0.063 C 
BRANCH  11  14
ATOM      1  O   UNL     1      -4.565  -0.934  24.302  0.00  0.00    -0.358 OA
ATOM      4  N   UNL     1      -4.895   0.415  24.273  0.00  0.00    -0.083 NA
ATOM     14  C   UNL     1      -4.062   0.994  25.143  0.00  0.00    +0.084 A 
ATOM     16  C   UNL     1      -3.193   0.068  25.745  0.00  0.00    +0.072 A 
ATOM     17  C   UNL     1      -3.550  -1.129  25.182  0.00  0.00    +0.151 A 
BRANCH  17  18
ATOM     18  C   UNL     1      -3.073  -2.507  25.338  0.00  0.00    +0.161 C 
BRANCH  18   6
ATOM      6  N   UNL     1      -1.656  -2.677  24.970  0.00  0.00    -0.301 NA
ATOM     21  C   UNL     1      -1.534  -2.896  23.533  0.00  0.00    +0.105 C 
ATOM     22  C   UNL     1      -0.887  -1.510  25.387  0.00  0.00    +0.105 C 
ENDBRANCH  18   6
ENDBRANCH  17  18
ENDBRANCH  11  14
ENDBRANCH   8  11
TORSDOF 6
ENDMDL
MODEL 7
REMARK VINA RESULT:      -3.4      1.767      4.680
REMARK  Name = 56774033
REMARK  11 active torsions:
REMARK  status: ('A' for Active; 'I' for Inactive)
REMARK    1  A    between atoms: N_3  and  C_9
REMARK    2  A    between atoms: N_5  and  C_19
REMARK    3  A    between atoms: N_6  and  C_18
REMARK    4  A    between atoms: N_6  and  C_21
REMARK    5  A    between atoms: N_6  and  C_22
REMARK    6  A    between atoms: C_7  and  C_12
REMARK    7  A    between atoms: C_7  and  C_13
REMARK    8  A    between atoms: C_8  and  C_11
REMARK    9  A    between atoms: C_11  and  C_14
REMARK   10  A    between atoms: C_17  and  C_18
REMARK   11  A    between atoms: C_19  and  C_20
REMARK                            x       y       z     vdW  Elec       q    Type
REMARK                         _______ _______ _______ _____ _____    ______ ____
ROOT
ATOM      7  C   UNL     1       0.017   2.657  26.167  0.00  0.00    -0.013 C 
ATOM      8  C   UNL     1      -0.042   3.594  24.941  0.00  0.00    +0.004 C 
ATOM      9  C   UNL     1       0.155   1.487  25.170  0.00  0.00    +0.081 C 
ATOM     10  C   UNL     1      -0.561   2.383  24.137  0.00  0.00    +0.027 C 
ATOM     12  C   UNL     1      -1.253   2.574  26.995  0.00  0.00    +0.013 C 
ATOM     13  C   UNL     1       1.205   2.912  27.066  0.00  0.00    +0.013 C 
ENDROOT
BRANCH   9   3
ATOM      2  O   UNL     1      -0.613  -0.642  23.377  0.00  0.00    -0.253 OA
ATOM      3  N   UNL     1      -0.593   0.266  25.511  0.00  0.00    -0.296 N 
ATOM      5  N   UNL     1      -1.623  -1.760  25.145  0.00  0.00    -0.300 N 
ATOM     15  C   UNL     1      -0.916  -0.709  24.568  0.00  0.00    +0.300 C 
ATOM     23  H   UNL     1      -0.903   0.106  26.467  0.00  0.00    +0.151 HD
ATOM     24  H   UNL     1      -1.836  -1.722  26.137  0.00  0.00    +0.150 HD
BRANCH   5  19
ATOM     19  C   UNL     1      -2.079  -2.901  24.386  0.00  0.00    +0.102 C 
ATOM     20  C   UNL     1      -3.587  -2.905  24.245  0.00  0.00    +0.024 C 
ENDBRANCH   5  19
ENDBRANCH   9   3
BRANCH   8  11
ATOM     11  C   UNL     1      -0.993   4.765  25.010  0.00  0.00    +0.063 C 
BRANCH  11  14
ATOM      1  O   UNL     1      -4.373   3.994  26.008  0.00  0.00    -0.358 OA
ATOM      4  N   UNL     1      -3.133   4.584  26.218  0.00  0.00    -0.083 NA
ATOM     14  C   UNL     1      -2.417   4.279  25.131  0.00  0.00    +0.084 A 
ATOM     16  C   UNL     1      -3.146   3.505  24.212  0.00  0.00    +0.072 A 
ATOM     17  C   UNL     1      -4.369   3.355  24.810  0.00  0.00    +0.151 A 
BRANCH  17  18
ATOM     18  C   UNL     1      -5.610   2.672  24.428  0.00  0.00    +0.161 C 
BRANCH  18   6
ATOM      6  N   UNL     1      -5.806   1.388  25.123  0.00  0.00    -0.301 NA
ATOM     21  C   UNL     1      -4.559   0.632  25.140  0.00  0.00    +0.105 C 
ATOM     22  C   UNL     1      -6.292   1.622  26.478  0.00  0.00    +0.105 C 
ENDBRANCH  18   6
ENDBRANCH  17  18
ENDBRANCH  11  14
ENDBRANCH   8  11
TORSDOF 6
ENDMDL
MODEL 8
REMARK VINA RESULT:      -3.4      2.311      4.788
REMARK  Name = 56774033
REMARK  11 active torsions:
REMARK  status: ('A' for Active; 'I' for Inactive)
REMARK    1  A    between atoms: N_3  and  C_9
REMARK    2  A    between atoms: N_5  and  C_19
REMARK    3  A    between atoms: N_6  and  C_18
REMARK    4  A    between atoms: N_6  and  C_21
REMARK    5  A    between atoms: N_6  and  C_22
REMARK    6  A    between atoms: C_7  and  C_12
REMARK    7  A    between atoms: C_7  and  C_13
REMARK    8  A    between atoms: C_8  and  C_11
REMARK    9  A    between atoms: C_11  and  C_14
REMARK   10  A    between atoms: C_17  and  C_18
REMARK   11  A    between atoms: C_19  and  C_20
REMARK                            x       y       z     vdW  Elec       q    Type
REMARK                         _______ _______ _______ _____ _____    ______ ____
ROOT
ATOM      7  C   UNL     1      -0.448   2.201  25.548  0.00  0.00    -0.013 C 
ATOM      8  C   UNL     1      -1.488   3.094  24.838  0.00  0.00    +0.004 C 
ATOM      9  C   UNL     1       0.398   2.294  24.261  0.00  0.00    +0.081 C 
ATOM     10  C   UNL     1      -0.921   2.561  23.505  0.00  0.00    +0.027 C 
ATOM     12  C   UNL     1      -0.896   0.783  25.854  0.00  0.00    +0.013 C 
ATOM     13  C   UNL     1       0.147   2.834  26.785  0.00  0.00    +0.013 C 
ENDROOT
BRANCH   9   3
ATOM      2  O   UNL     1       3.088   2.028  23.245  0.00  0.00    -0.253 OA
ATOM      3  N   UNL     1       1.073   1.052  23.849  0.00  0.00    -0.296 N 
ATOM      5  N   UNL     1       2.783  -0.267  23.051  0.00  0.00    -0.300 N 
ATOM     15  C   UNL     1       2.381   1.028  23.370  0.00  0.00    +0.300 C 
ATOM     23  H   UNL     1       0.582   0.162  23.903  0.00  0.00    +0.151 HD
ATOM     24  H   UNL     1       2.125  -1.030  23.179  0.00  0.00    +0.150 HD
BRANCH   5  19
ATOM     19  C   UNL     1       4.096  -0.569  22.533  0.00  0.00    +0.102 C 
ATOM     20  C   UNL     1       5.141  -0.555  23.628  0.00  0.00    +0.024 C 
ENDBRANCH   5  19
ENDBRANCH   9   3
BRANCH   8  11
ATOM     11  C   UNL     1      -2.946   2.783  25.076  0.00  0.00    +0.063 C 
BRANCH  11  14
ATOM      1  O   UNL     1      -3.667   0.033  22.853  0.00  0.00    -0.358 OA
ATOM      4  N   UNL     1      -3.281   1.344  23.103  0.00  0.00    -0.083 NA
ATOM     14  C   UNL     1      -3.315   1.467  24.434  0.00  0.00    +0.084 A 
ATOM     16  C   UNL     1      -3.712   0.278  25.069  0.00  0.00    +0.072 A 
ATOM     17  C   UNL     1      -3.921  -0.592  24.032  0.00  0.00    +0.151 A 
BRANCH  17  18
ATOM     18  C   UNL     1      -4.344  -1.994  23.951  0.00  0.00    +0.161 C 
BRANCH  18   6
ATOM      6  N   UNL     1      -3.404  -2.924  24.602  0.00  0.00    -0.301 NA
ATOM     21  C   UNL     1      -2.116  -2.895  23.917  0.00  0.00    +0.105 C 
ATOM     22  C   UNL     1      -3.253  -2.578  26.010  0.00  0.00    +0.105 C 
ENDBRANCH  18   6
ENDBRANCH  17  18
ENDBRANCH  11  14
ENDBRANCH   8  11
TORSDOF 6
ENDMDL
MODEL 9
REMARK VINA RESULT:      -3.3      1.745      4.791
REMARK  Name = 56774033
REMARK  11 active torsions:
REMARK  status: ('A' for Active; 'I' for Inactive)
REMARK    1  A    between atoms: N_3  and  C_9
REMARK    2  A    between atoms: N_5  and  C_19
REMARK    3  A    between atoms: N_6  and  C_18
REMARK    4  A    between atoms: N_6  and  C_21
REMARK    5  A    between atoms: N_6  and  C_22
REMARK    6  A    between atoms: C_7  and  C_12
REMARK    7  A    between atoms: C_7  and  C_13
REMARK    8  A    between atoms: C_8  and  C_11
REMARK    9  A    between atoms: C_11  and  C_14
REMARK   10  A    between atoms: C_17  and  C_18
REMARK   11  A    between atoms: C_19  and  C_20
REMARK                            x       y       z     vdW  Elec       q    Type
REMARK                         _______ _______ _______ _____ _____    ______ ____
ROOT
ATOM      7  C   UNL     1      -1.927   4.369  24.965  0.00  0.00    -0.013 C 
ATOM      8  C   UNL     1      -3.262   4.356  24.189  0.00  0.00    +0.004 C 
ATOM      9  C   UNL     1      -1.317   3.597  23.776  0.00  0.00    +0.081 C 
ATOM     10  C   UNL     1      -2.743   3.093  23.471  0.00  0.00    +0.027 C 
ATOM     12  C   UNL     1      -1.907   3.569  26.255  0.00  0.00    +0.013 C 
ATOM     13  C   UNL     1      -1.383   5.758  25.210  0.00  0.00    +0.013 C 
ENDROOT
BRANCH   9   3
ATOM      2  O   UNL     1      -1.572   0.787  23.164  0.00  0.00    -0.253 OA
ATOM      3  N   UNL     1      -0.374   2.523  24.129  0.00  0.00    -0.296 N 
ATOM      5  N   UNL     1       0.449   0.375  24.234  0.00  0.00    -0.300 N 
ATOM     15  C   UNL     1      -0.588   1.189  23.785  0.00  0.00    +0.300 C 
ATOM     23  H   UNL     1       0.473   2.737  24.649  0.00  0.00    +0.151 HD
ATOM     24  H   UNL     1       1.217   0.798  24.747  0.00  0.00    +0.150 HD
BRANCH   5  19
ATOM     19  C   UNL     1       0.473  -1.051  24.009  0.00  0.00    +0.102 C 
ATOM     20  C   UNL     1      -0.151  -1.804  25.165  0.00  0.00    +0.024 C 
ENDBRANCH   5  19
ENDBRANCH   9   3
BRANCH   8  11
ATOM     11  C   UNL     1      -4.526   4.157  24.990  0.00  0.00    +0.063 C 
BRANCH  11  14
ATOM      1  O   UNL     1      -5.842   0.892  25.783  0.00  0.00    -0.358 OA
ATOM      4  N   UNL     1      -5.768   2.267  25.969  0.00  0.00    -0.083 NA
ATOM     14  C   UNL     1      -4.867   2.688  25.077  0.00  0.00    +0.084 A 
ATOM     16  C   UNL     1      -4.343   1.634  24.309  0.00  0.00    +0.072 A 
ATOM     17  C   UNL     1      -4.989   0.527  24.791  0.00  0.00    +0.151 A 
BRANCH  17  18
ATOM     18  C   UNL     1      -4.940  -0.902  24.462  0.00  0.00    +0.161 C 
BRANCH  18   6
ATOM      6  N   UNL     1      -3.632  -1.519  24.742  0.00  0.00    -0.301 NA
ATOM     21  C   UNL     1      -3.297  -1.366  26.154  0.00  0.00    +0.105 C 
ATOM     22  C   UNL     1      -3.651  -2.927  24.362  0.00  0.00    +0.105 C 
ENDBRANCH  18   6
ENDBRANCH  17  18
ENDBRANCH  11  14
ENDBRANCH   8  11
TORSDOF 6
ENDMDL
MODEL 10
REMARK VINA RESULT:      -2.9      1.818      6.428
REMARK  Name = 56774033
REMARK  11 active torsions:
REMARK  status: ('A' for Active; 'I' for Inactive)
REMARK    1  A    between atoms: N_3  and  C_9
REMARK    2  A    between atoms: N_5  and  C_19
REMARK    3  A    between atoms: N_6  and  C_18
REMARK    4  A    between atoms: N_6  and  C_21
REMARK    5  A    between atoms: N_6  and  C_22
REMARK    6  A    between atoms: C_7  and  C_12
REMARK    7  A    between atoms: C_7  and  C_13
REMARK    8  A    between atoms: C_8  and  C_11
REMARK    9  A    between atoms: C_11  and  C_14
REMARK   10  A    between atoms: C_17  and  C_18
REMARK   11  A    between atoms: C_19  and  C_20
REMARK                            x       y       z     vdW  Elec       q    Type
REMARK                         _______ _______ _______ _____ _____    ______ ____
ROOT
ATOM      7  C   UNL     1      -0.928   4.100  24.769  0.00  0.00    -0.013 C 
ATOM      8  C   UNL     1      -0.018   2.970  25.298  0.00  0.00    +0.004 C 
ATOM      9  C   UNL     1      -1.767   3.920  26.051  0.00  0.00    +0.081 C 
ATOM     10  C   UNL     1      -1.236   2.472  26.103  0.00  0.00    +0.027 C 
ATOM     12  C   UNL     1      -1.709   3.782  23.508  0.00  0.00    +0.013 C 
ATOM     13  C   UNL     1      -0.218   5.426  24.617  0.00  0.00    +0.013 C 
ENDROOT
BRANCH   9   3
ATOM      2  O   UNL     1      -3.590   1.747  25.513  0.00  0.00    -0.253 OA
ATOM      3  N   UNL     1      -3.227   4.008  25.877  0.00  0.00    -0.296 N 
ATOM      5  N   UNL     1      -5.365   3.245  25.496  0.00  0.00    -0.300 N 
ATOM     15  C   UNL     1      -4.024   2.894  25.619  0.00  0.00    +0.300 C 
ATOM     23  H   UNL     1      -3.695   4.909  25.937  0.00  0.00    +0.151 HD
ATOM     24  H   UNL     1      -5.627   4.222  25.591  0.00  0.00    +0.150 HD
BRANCH   5  19
ATOM     19  C   UNL     1      -6.402   2.277  25.228  0.00  0.00    +0.102 C 
ATOM     20  C   UNL     1      -6.642   1.377  26.422  0.00  0.00    +0.024 C 
ENDBRANCH   5  19
ENDBRANCH   9   3
BRANCH   8  11
ATOM     11  C   UNL     1       0.520   1.986  24.288  0.00  0.00    +0.063 C 
BRANCH  11  14
ATOM      1  O   UNL     1      -2.071  -0.386  23.463  0.00  0.00    -0.358 OA
ATOM      4  N   UNL     1      -1.445   0.847  23.331  0.00  0.00    -0.083 NA
ATOM     14  C   UNL     1      -0.404   0.797  24.167  0.00  0.00    +0.084 A 
ATOM     16  C   UNL     1      -0.325  -0.429  24.848  0.00  0.00    +0.072 A 
ATOM     17  C   UNL     1      -1.395  -1.138  24.369  0.00  0.00    +0.151 A 
BRANCH  17  18
ATOM     18  C   UNL     1      -1.924  -2.481  24.632  0.00  0.00    +0.161 C 
BRANCH  18   6
ATOM      6  N   UNL     1      -3.329  -2.476  25.075  0.00  0.00    -0.301 NA
ATOM     21  C   UNL     1      -3.549  -1.396  26.032  0.00  0.00    +0.105 C 
ATOM     22  C   UNL     1      -4.216  -2.341  23.926  0.00  0.00    +0.105 C 
ENDBRANCH  18   6
ENDBRANCH  17  18
ENDBRANCH  11  14
ENDBRANCH   8  11
TORSDOF 6
ENDMDL
