MODEL 1
REMARK VINA RESULT:      -3.9      0.000      0.000
REMARK  Name = 56775298
REMARK  5 active torsions:
REMARK  status: ('A' for Active; 'I' for Inactive)
REMARK    1  A    between atoms: O_4  and  C_23
REMARK    2  A    between atoms: O_4  and  C_24
REMARK    3  A    between atoms: N_6  and  C_17
REMARK    4  A    between atoms: C_8  and  C_14
REMARK    5  A    between atoms: C_17  and  C_18
REMARK                            x       y       z     vdW  Elec       q    Type
REMARK                         _______ _______ _______ _____ _____    ______ ____
ROOT
ATOM      1  O   UNL     1       0.534   1.825  25.211  0.00  0.00    -0.364 OA
ATOM      2  O   UNL     1      -0.745  -2.750  24.725  0.00  0.00    -0.275 OA
ATOM      3  O   UNL     1      -1.201   4.927  25.362  0.00  0.00    -0.273 OA
ATOM      5  N   UNL     1      -1.166  -0.500  24.385  0.00  0.00    -0.297 N 
ATOM      6  N   UNL     1      -1.618   3.093  23.992  0.00  0.00    -0.288 N 
ATOM      7  C   UNL     1      -1.262   1.732  23.612  0.00  0.00    +0.124 C 
ATOM      9  C   UNL     1       0.192   1.367  23.905  0.00  0.00    +0.158 C 
ATOM     10  C   UNL     1      -2.040   0.669  24.395  0.00  0.00    +0.133 C 
ATOM     13  C   UNL     1       0.172  -0.156  23.916  0.00  0.00    +0.141 C 
ATOM     14  C   UNL     1      -1.511  -1.791  24.748  0.00  0.00    +0.219 C 
ATOM     15  C   UNL     1      -0.872   3.830  24.909  0.00  0.00    +0.242 C 
ATOM     16  C   UNL     1       0.474   3.232  25.279  0.00  0.00    +0.256 C 
ENDROOT
BRANCH  14   8
ATOM      8  C   UNL     1      -2.927  -2.013  25.167  0.00  0.00    +0.075 C 
ATOM     11  C   UNL     1      -3.642  -3.249  24.705  0.00  0.00    +0.013 C 
ATOM     12  C   UNL     1      -4.018  -1.910  24.141  0.00  0.00    +0.013 C 
ENDBRANCH  14   8
BRANCH   6  17
ATOM     17  C   UNL     1      -2.889   3.605  23.498  0.00  0.00    +0.143 C 
BRANCH  17  18
ATOM     18  C   UNL     1      -4.047   3.126  24.324  0.00  0.00    -0.030 A 
ATOM     19  C   UNL     1      -4.424   3.827  25.471  0.00  0.00    +0.009 A 
ATOM     20  C   UNL     1      -4.744   1.978  23.948  0.00  0.00    +0.009 A 
ATOM     21  C   UNL     1      -5.500   3.380  26.239  0.00  0.00    +0.046 A 
ATOM     22  C   UNL     1      -5.819   1.531  24.717  0.00  0.00    +0.046 A 
ATOM     23  C   UNL     1      -6.197   2.233  25.862  0.00  0.00    +0.120 A 
BRANCH  23   4
ATOM      4  O   UNL     1      -7.246   1.798  26.611  0.00  0.00    -0.495 OA
ATOM     24  C   UNL     1      -6.938   1.099  27.817  0.00  0.00    +0.277 C 
ENDBRANCH  23   4
ENDBRANCH  17  18
ENDBRANCH   6  17
TORSDOF 4
ENDMDL
MODEL 2
REMARK VINA RESULT:      -3.9      1.600      5.567
REMARK  Name = 56775298
REMARK  5 active torsions:
REMARK  status: ('A' for Active; 'I' for Inactive)
REMARK    1  A    between atoms: O_4  and  C_23
REMARK    2  A    between atoms: O_4  and  C_24
REMARK    3  A    between atoms: N_6  and  C_17
REMARK    4  A    between atoms: C_8  and  C_14
REMARK    5  A    between atoms: C_17  and  C_18
REMARK                            x       y       z     vdW  Elec       q    Type
REMARK                         _______ _______ _______ _____ _____    ______ ____
ROOT
ATOM      1  O   UNL     1      -3.577  -2.158  25.387  0.00  0.00    -0.364 OA
ATOM      2  O   UNL     1      -6.630   1.495  25.018  0.00  0.00    -0.275 OA
ATOM      3  O   UNL     1      -0.046  -2.475  25.686  0.00  0.00    -0.273 OA
ATOM      5  N   UNL     1      -4.515   0.607  24.714  0.00  0.00    -0.297 N 
ATOM      6  N   UNL     1      -1.267  -1.004  24.359  0.00  0.00    -0.288 N 
ATOM      7  C   UNL     1      -2.575  -0.508  23.951  0.00  0.00    +0.124 C 
ATOM      9  C   UNL     1      -3.703  -1.525  24.117  0.00  0.00    +0.158 C 
ATOM     10  C   UNL     1      -3.059   0.672  24.799  0.00  0.00    +0.133 C 
ATOM     13  C   UNL     1      -4.953  -0.656  24.131  0.00  0.00    +0.141 C 
ATOM     14  C   UNL     1      -5.409   1.588  25.107  0.00  0.00    +0.219 C 
ATOM     15  C   UNL     1      -1.117  -2.099  25.207  0.00  0.00    +0.242 C 
ATOM     16  C   UNL     1      -2.381  -2.901  25.459  0.00  0.00    +0.256 C 
ENDROOT
BRANCH  14   8
ATOM      8  C   UNL     1      -4.822   2.851  25.648  0.00  0.00    +0.075 C 
ATOM     11  C   UNL     1      -5.570   4.140  25.470  0.00  0.00    +0.013 C 
ATOM     12  C   UNL     1      -4.312   3.889  24.690  0.00  0.00    +0.013 C 
ENDBRANCH  14   8
BRANCH   6  17
ATOM     17  C   UNL     1      -0.110  -0.206  23.976  0.00  0.00    +0.143 C 
BRANCH  17  18
ATOM     18  C   UNL     1      -0.275   1.237  24.353  0.00  0.00    -0.030 A 
ATOM     19  C   UNL     1      -0.214   1.620  25.694  0.00  0.00    +0.009 A 
ATOM     20  C   UNL     1      -0.490   2.196  23.363  0.00  0.00    +0.009 A 
ATOM     21  C   UNL     1      -0.368   2.962  26.043  0.00  0.00    +0.046 A 
ATOM     22  C   UNL     1      -0.645   3.538  23.713  0.00  0.00    +0.046 A 
ATOM     23  C   UNL     1      -0.583   3.920  25.054  0.00  0.00    +0.120 A 
BRANCH  23   4
ATOM      4  O   UNL     1      -0.733   5.228  25.395  0.00  0.00    -0.495 OA
ATOM     24  C   UNL     1      -1.950   5.865  25.010  0.00  0.00    +0.277 C 
ENDBRANCH  23   4
ENDBRANCH  17  18
ENDBRANCH   6  17
TORSDOF 4
ENDMDL
MODEL 3
REMARK VINA RESULT:      -3.8     14.399     16.479
REMARK  Name = 56775298
REMARK  5 active torsions:
REMARK  status: ('A' for Active; 'I' for Inactive)
REMARK    1  A    between atoms: O_4  and  C_23
REMARK    2  A    between atoms: O_4  and  C_24
REMARK    3  A    between atoms: N_6  and  C_17
REMARK    4  A    between atoms: C_8  and  C_14
REMARK    5  A    between atoms: C_17  and  C_18
REMARK                            x       y       z     vdW  Elec       q    Type
REMARK                         _______ _______ _______ _____ _____    ______ ____
ROOT
ATOM      1  O   UNL     1      -0.997  -8.857  15.052  0.00  0.00    -0.364 OA
ATOM      2  O   UNL     1      -4.227 -10.767  18.006  0.00  0.00    -0.275 OA
ATOM      3  O   UNL     1      -0.805  -8.302  11.543  0.00  0.00    -0.273 OA
ATOM      5  N   UNL     1      -3.280 -10.603  15.901  0.00  0.00    -0.297 N 
ATOM      6  N   UNL     1      -1.643 -10.152  12.678  0.00  0.00    -0.288 N 
ATOM      7  C   UNL     1      -1.944 -10.780  13.958  0.00  0.00    +0.124 C 
ATOM      9  C   UNL     1      -1.081 -10.279  15.113  0.00  0.00    +0.158 C 
ATOM     10  C   UNL     1      -3.365 -10.486  14.448  0.00  0.00    +0.133 C 
ATOM     13  C   UNL     1      -1.891 -10.663  16.344  0.00  0.00    +0.141 C 
ATOM     14  C   UNL     1      -4.341 -10.667  16.788  0.00  0.00    +0.219 C 
ATOM     15  C   UNL     1      -0.968  -8.937  12.585  0.00  0.00    +0.242 C 
ATOM     16  C   UNL     1      -0.336  -8.447  13.876  0.00  0.00    +0.256 C 
ENDROOT
BRANCH  14   8
ATOM      8  C   UNL     1      -5.712 -10.640  16.195  0.00  0.00    +0.075 C 
ATOM     11  C   UNL     1      -6.546  -9.401  16.337  0.00  0.00    +0.013 C 
ATOM     12  C   UNL     1      -6.903 -10.638  17.108  0.00  0.00    +0.013 C 
ENDBRANCH  14   8
BRANCH   6  17
ATOM     17  C   UNL     1      -2.220 -10.766  11.490  0.00  0.00    +0.143 C 
BRANCH  17  18
ATOM     18  C   UNL     1      -3.409 -10.002  10.986  0.00  0.00    -0.030 A 
ATOM     19  C   UNL     1      -3.376  -9.414   9.720  0.00  0.00    +0.009 A 
ATOM     20  C   UNL     1      -4.547  -9.878  11.783  0.00  0.00    +0.009 A 
ATOM     21  C   UNL     1      -4.483  -8.703   9.253  0.00  0.00    +0.046 A 
ATOM     22  C   UNL     1      -5.652  -9.166  11.316  0.00  0.00    +0.046 A 
ATOM     23  C   UNL     1      -5.620  -8.579  10.050  0.00  0.00    +0.120 A 
BRANCH  23   4
ATOM      4  O   UNL     1      -6.698  -7.887   9.594  0.00  0.00    -0.495 OA
ATOM     24  C   UNL     1      -7.958  -8.557   9.617  0.00  0.00    +0.277 C 
ENDBRANCH  23   4
ENDBRANCH  17  18
ENDBRANCH   6  17
TORSDOF 4
ENDMDL
MODEL 4
REMARK VINA RESULT:      -3.7      1.746      5.075
REMARK  Name = 56775298
REMARK  5 active torsions:
REMARK  status: ('A' for Active; 'I' for Inactive)
REMARK    1  A    between atoms: O_4  and  C_23
REMARK    2  A    between atoms: O_4  and  C_24
REMARK    3  A    between atoms: N_6  and  C_17
REMARK    4  A    between atoms: C_8  and  C_14
REMARK    5  A    between atoms: C_17  and  C_18
REMARK                            x       y       z     vdW  Elec       q    Type
REMARK                         _______ _______ _______ _____ _____    ______ ____
ROOT
ATOM      1  O   UNL     1      -1.451   4.254  24.129  0.00  0.00    -0.364 OA
ATOM      2  O   UNL     1      -5.924   4.594  25.766  0.00  0.00    -0.275 OA
ATOM      3  O   UNL     1       0.922   1.623  23.799  0.00  0.00    -0.273 OA
ATOM      5  N   UNL     1      -3.862   3.542  25.759  0.00  0.00    -0.297 N 
ATOM      6  N   UNL     1      -0.549   2.043  25.553  0.00  0.00    -0.288 N 
ATOM      7  C   UNL     1      -1.620   2.872  26.092  0.00  0.00    +0.124 C 
ATOM      9  C   UNL     1      -1.638   4.296  25.542  0.00  0.00    +0.158 C 
ATOM     10  C   UNL     1      -3.016   2.353  25.730  0.00  0.00    +0.133 C 
ATOM     13  C   UNL     1      -3.061   4.759  25.827  0.00  0.00    +0.141 C 
ATOM     14  C   UNL     1      -5.247   3.571  25.740  0.00  0.00    +0.219 C 
ATOM     15  C   UNL     1       0.106   2.354  24.364  0.00  0.00    +0.242 C 
ATOM     16  C   UNL     1      -0.177   3.739  23.810  0.00  0.00    +0.256 C 
ENDROOT
BRANCH  14   8
ATOM      8  C   UNL     1      -5.943   2.249  25.714  0.00  0.00    +0.075 C 
ATOM     11  C   UNL     1      -5.446   1.179  24.787  0.00  0.00    +0.013 C 
ATOM     12  C   UNL     1      -6.747   1.870  24.504  0.00  0.00    +0.013 C 
ENDBRANCH  14   8
BRANCH   6  17
ATOM     17  C   UNL     1      -0.293   0.776  26.224  0.00  0.00    +0.143 C 
BRANCH  17  18
ATOM     18  C   UNL     1      -1.164  -0.325  25.693  0.00  0.00    -0.030 A 
ATOM     19  C   UNL     1      -0.673  -1.194  24.717  0.00  0.00    +0.009 A 
ATOM     20  C   UNL     1      -2.464  -0.479  26.174  0.00  0.00    +0.009 A 
ATOM     21  C   UNL     1      -1.484  -2.217  24.224  0.00  0.00    +0.046 A 
ATOM     22  C   UNL     1      -3.274  -1.502  25.679  0.00  0.00    +0.046 A 
ATOM     23  C   UNL     1      -2.783  -2.371  24.705  0.00  0.00    +0.120 A 
BRANCH  23   4
ATOM      4  O   UNL     1      -3.573  -3.369  24.224  0.00  0.00    -0.495 OA
ATOM     24  C   UNL     1      -4.723  -2.982  23.472  0.00  0.00    +0.277 C 
ENDBRANCH  23   4
ENDBRANCH  17  18
ENDBRANCH   6  17
TORSDOF 4
ENDMDL
MODEL 5
REMARK VINA RESULT:      -3.5     14.180     16.724
REMARK  Name = 56775298
REMARK  5 active torsions:
REMARK  status: ('A' for Active; 'I' for Inactive)
REMARK    1  A    between atoms: O_4  and  C_23
REMARK    2  A    between atoms: O_4  and  C_24
REMARK    3  A    between atoms: N_6  and  C_17
REMARK    4  A    between atoms: C_8  and  C_14
REMARK    5  A    between atoms: C_17  and  C_18
REMARK                            x       y       z     vdW  Elec       q    Type
REMARK                         _______ _______ _______ _____ _____    ______ ____
ROOT
ATOM      1  O   UNL     1     -10.271  -7.707  14.504  0.00  0.00    -0.364 OA
ATOM      2  O   UNL     1      -8.996  -9.537  10.282  0.00  0.00    -0.275 OA
ATOM      3  O   UNL     1      -9.171  -8.109  17.864  0.00  0.00    -0.273 OA
ATOM      5  N   UNL     1      -9.131  -9.707  12.586  0.00  0.00    -0.297 N 
ATOM      6  N   UNL     1      -9.433  -9.731  16.216  0.00  0.00    -0.288 N 
ATOM      7  C   UNL     1      -9.780 -10.040  14.834  0.00  0.00    +0.124 C 
ATOM      9  C   UNL     1     -10.720  -9.023  14.189  0.00  0.00    +0.158 C 
ATOM     10  C   UNL     1      -8.570 -10.022  13.896  0.00  0.00    +0.133 C 
ATOM     13  C   UNL     1     -10.515  -9.260  12.699  0.00  0.00    +0.141 C 
ATOM     14  C   UNL     1      -8.487  -9.812  11.365  0.00  0.00    +0.219 C 
ATOM     15  C   UNL     1      -9.571  -8.452  16.750  0.00  0.00    +0.242 C 
ATOM     16  C   UNL     1     -10.351  -7.471  15.892  0.00  0.00    +0.256 C 
ENDROOT
BRANCH  14   8
ATOM      8  C   UNL     1      -7.084 -10.325  11.390  0.00  0.00    +0.075 C 
ATOM     11  C   UNL     1      -6.005  -9.475  11.992  0.00  0.00    +0.013 C 
ATOM     12  C   UNL     1      -6.055  -9.682  10.507  0.00  0.00    +0.013 C 
ENDBRANCH  14   8
BRANCH   6  17
ATOM     17  C   UNL     1      -8.777 -10.781  16.982  0.00  0.00    +0.143 C 
BRANCH  17  18
ATOM     18  C   UNL     1      -7.281 -10.680  16.905  0.00  0.00    -0.030 A 
ATOM     19  C   UNL     1      -6.637 -10.781  15.671  0.00  0.00    +0.009 A 
ATOM     20  C   UNL     1      -6.535 -10.487  18.068  0.00  0.00    +0.009 A 
ATOM     21  C   UNL     1      -5.247 -10.687  15.601  0.00  0.00    +0.046 A 
ATOM     22  C   UNL     1      -5.145 -10.394  17.997  0.00  0.00    +0.046 A 
ATOM     23  C   UNL     1      -4.501 -10.494  16.763  0.00  0.00    +0.120 A 
BRANCH  23   4
ATOM      4  O   UNL     1      -3.146 -10.402  16.695  0.00  0.00    -0.495 OA
ATOM     24  C   UNL     1      -2.549 -10.552  15.407  0.00  0.00    +0.277 C 
ENDBRANCH  23   4
ENDBRANCH  17  18
ENDBRANCH   6  17
TORSDOF 4
ENDMDL
MODEL 6
REMARK VINA RESULT:      -3.2      1.503      5.304
REMARK  Name = 56775298
REMARK  5 active torsions:
REMARK  status: ('A' for Active; 'I' for Inactive)
REMARK    1  A    between atoms: O_4  and  C_23
REMARK    2  A    between atoms: O_4  and  C_24
REMARK    3  A    between atoms: N_6  and  C_17
REMARK    4  A    between atoms: C_8  and  C_14
REMARK    5  A    between atoms: C_17  and  C_18
REMARK                            x       y       z     vdW  Elec       q    Type
REMARK                         _______ _______ _______ _____ _____    ______ ____
ROOT
ATOM      1  O   UNL     1      -4.244   4.215  25.674  0.00  0.00    -0.364 OA
ATOM      2  O   UNL     1       0.170   3.919  23.876  0.00  0.00    -0.275 OA
ATOM      3  O   UNL     1      -6.694   1.868  26.747  0.00  0.00    -0.273 OA
ATOM      5  N   UNL     1      -1.926   2.998  24.216  0.00  0.00    -0.297 N 
ATOM      6  N   UNL     1      -5.280   1.753  24.902  0.00  0.00    -0.288 N 
ATOM      7  C   UNL     1      -4.201   2.365  24.135  0.00  0.00    +0.124 C 
ATOM      9  C   UNL     1      -4.111   3.881  24.294  0.00  0.00    +0.158 C 
ATOM     10  C   UNL     1      -2.812   1.896  24.578  0.00  0.00    +0.133 C 
ATOM     13  C   UNL     1      -2.685   4.191  23.857  0.00  0.00    +0.141 C 
ATOM     14  C   UNL     1      -0.541   2.969  24.187  0.00  0.00    +0.219 C 
ATOM     15  C   UNL     1      -5.876   2.390  25.987  0.00  0.00    +0.242 C 
ATOM     16  C   UNL     1      -5.521   3.858  26.153  0.00  0.00    +0.256 C 
ENDROOT
BRANCH  14   8
ATOM      8  C   UNL     1       0.108   1.669  24.536  0.00  0.00    +0.075 C 
ATOM     11  C   UNL     1       1.324   1.231  23.773  0.00  0.00    +0.013 C 
ATOM     12  C   UNL     1       0.016   0.524  23.570  0.00  0.00    +0.013 C 
ENDBRANCH  14   8
BRANCH   6  17
ATOM     17  C   UNL     1      -5.607   0.368  24.592  0.00  0.00    +0.143 C 
BRANCH  17  18
ATOM     18  C   UNL     1      -4.417  -0.535  24.739  0.00  0.00    -0.030 A 
ATOM     19  C   UNL     1      -3.671  -0.520  25.918  0.00  0.00    +0.009 A 
ATOM     20  C   UNL     1      -4.057  -1.389  23.696  0.00  0.00    +0.009 A 
ATOM     21  C   UNL     1      -2.565  -1.360  26.054  0.00  0.00    +0.046 A 
ATOM     22  C   UNL     1      -2.950  -2.227  23.832  0.00  0.00    +0.046 A 
ATOM     23  C   UNL     1      -2.205  -2.213  25.011  0.00  0.00    +0.120 A 
BRANCH  23   4
ATOM      4  O   UNL     1      -1.127  -3.032  25.144  0.00  0.00    -0.495 OA
ATOM     24  C   UNL     1       0.129  -2.413  25.420  0.00  0.00    +0.277 C 
ENDBRANCH  23   4
ENDBRANCH  17  18
ENDBRANCH   6  17
TORSDOF 4
ENDMDL
MODEL 7
REMARK VINA RESULT:      -2.1     15.696     17.637
REMARK  Name = 56775298
REMARK  5 active torsions:
REMARK  status: ('A' for Active; 'I' for Inactive)
REMARK    1  A    between atoms: O_4  and  C_23
REMARK    2  A    between atoms: O_4  and  C_24
REMARK    3  A    between atoms: N_6  and  C_17
REMARK    4  A    between atoms: C_8  and  C_14
REMARK    5  A    between atoms: C_17  and  C_18
REMARK                            x       y       z     vdW  Elec       q    Type
REMARK                         _______ _______ _______ _____ _____    ______ ____
ROOT
ATOM      1  O   UNL     1      -2.682  -9.506  13.542  0.00  0.00    -0.364 OA
ATOM      2  O   UNL     1      -6.735  -9.907  16.035  0.00  0.00    -0.275 OA
ATOM      3  O   UNL     1      -1.866  -8.971  10.120  0.00  0.00    -0.273 OA
ATOM      5  N   UNL     1      -5.575 -10.104  14.042  0.00  0.00    -0.297 N 
ATOM      6  N   UNL     1      -3.545 -10.306  11.024  0.00  0.00    -0.288 N 
ATOM      7  C   UNL     1      -4.233 -10.781  12.217  0.00  0.00    +0.124 C 
ATOM      9  C   UNL     1      -3.377 -10.748  13.481  0.00  0.00    +0.158 C 
ATOM     10  C   UNL     1      -5.434  -9.911  12.601  0.00  0.00    +0.133 C 
ATOM     13  C   UNL     1      -4.410 -10.780  14.600  0.00  0.00    +0.141 C 
ATOM     14  C   UNL     1      -6.654  -9.726  14.823  0.00  0.00    +0.219 C 
ATOM     15  C   UNL     1      -2.407  -9.506  11.090  0.00  0.00    +0.242 C 
ATOM     16  C   UNL     1      -1.777  -9.386  12.467  0.00  0.00    +0.256 C 
ENDROOT
BRANCH  14   8
ATOM      8  C   UNL     1      -7.800  -9.082  14.115  0.00  0.00    +0.075 C 
ATOM     11  C   UNL     1      -9.182  -9.218  14.684  0.00  0.00    +0.013 C 
ATOM     12  C   UNL     1      -8.814  -9.948  13.425  0.00  0.00    +0.013 C 
ENDBRANCH  14   8
BRANCH   6  17
ATOM     17  C   UNL     1      -4.189 -10.563   9.743  0.00  0.00    +0.143 C 
BRANCH  17  18
ATOM     18  C   UNL     1      -5.354  -9.647   9.507  0.00  0.00    -0.030 A 
ATOM     19  C   UNL     1      -5.225  -8.278   9.747  0.00  0.00    +0.009 A 
ATOM     20  C   UNL     1      -6.566 -10.164   9.049  0.00  0.00    +0.009 A 
ATOM     21  C   UNL     1      -6.309  -7.427   9.528  0.00  0.00    +0.046 A 
ATOM     22  C   UNL     1      -7.650  -9.312   8.831  0.00  0.00    +0.046 A 
ATOM     23  C   UNL     1      -7.520  -7.944   9.070  0.00  0.00    +0.120 A 
BRANCH  23   4
ATOM      4  O   UNL     1      -8.577  -7.114   8.856  0.00  0.00    -0.495 OA
ATOM     24  C   UNL     1      -8.310  -5.881   8.188  0.00  0.00    +0.277 C 
ENDBRANCH  23   4
ENDBRANCH  17  18
ENDBRANCH   6  17
TORSDOF 4
ENDMDL
MODEL 8
REMARK VINA RESULT:      -2.0      1.586      4.395
REMARK  Name = 56775298
REMARK  5 active torsions:
REMARK  status: ('A' for Active; 'I' for Inactive)
REMARK    1  A    between atoms: O_4  and  C_23
REMARK    2  A    between atoms: O_4  and  C_24
REMARK    3  A    between atoms: N_6  and  C_17
REMARK    4  A    between atoms: C_8  and  C_14
REMARK    5  A    between atoms: C_17  and  C_18
REMARK                            x       y       z     vdW  Elec       q    Type
REMARK                         _______ _______ _______ _____ _____    ______ ____
ROOT
ATOM      1  O   UNL     1      -2.225   4.421  25.996  0.00  0.00    -0.364 OA
ATOM      2  O   UNL     1       1.578   2.449  23.886  0.00  0.00    -0.275 OA
ATOM      3  O   UNL     1      -5.482   3.299  26.886  0.00  0.00    -0.273 OA
ATOM      5  N   UNL     1      -0.709   2.533  24.230  0.00  0.00    -0.297 N 
ATOM      6  N   UNL     1      -4.265   2.847  24.954  0.00  0.00    -0.288 N 
ATOM      7  C   UNL     1      -3.023   3.018  24.211  0.00  0.00    +0.124 C 
ATOM      9  C   UNL     1      -2.251   4.284  24.577  0.00  0.00    +0.158 C 
ATOM     10  C   UNL     1      -2.003   1.909  24.490  0.00  0.00    +0.133 C 
ATOM     13  C   UNL     1      -0.839   3.980  24.095  0.00  0.00    +0.141 C 
ATOM     14  C   UNL     1       0.509   1.887  24.106  0.00  0.00    +0.219 C 
ATOM     15  C   UNL     1      -4.511   3.507  26.156  0.00  0.00    +0.242 C 
ATOM     16  C   UNL     1      -3.527   4.610  26.503  0.00  0.00    +0.256 C 
ENDROOT
BRANCH  14   8
ATOM      8  C   UNL     1       0.491   0.398  24.223  0.00  0.00    +0.075 C 
ATOM     11  C   UNL     1       1.169  -0.427  23.169  0.00  0.00    +0.013 C 
ATOM     12  C   UNL     1      -0.328  -0.403  23.253  0.00  0.00    +0.013 C 
ENDBRANCH  14   8
BRANCH   6  17
ATOM     17  C   UNL     1      -5.187   1.827  24.473  0.00  0.00    +0.143 C 
BRANCH  17  18
ATOM     18  C   UNL     1      -4.608   0.447  24.593  0.00  0.00    -0.030 A 
ATOM     19  C   UNL     1      -4.185  -0.027  25.836  0.00  0.00    +0.009 A 
ATOM     20  C   UNL     1      -4.491  -0.361  23.462  0.00  0.00    +0.009 A 
ATOM     21  C   UNL     1      -3.646  -1.309  25.947  0.00  0.00    +0.046 A 
ATOM     22  C   UNL     1      -3.951  -1.642  23.573  0.00  0.00    +0.046 A 
ATOM     23  C   UNL     1      -3.530  -2.116  24.816  0.00  0.00    +0.120 A 
BRANCH  23   4
ATOM      4  O   UNL     1      -3.005  -3.367  24.924  0.00  0.00    -0.495 OA
ATOM     24  C   UNL     1      -1.740  -3.597  24.304  0.00  0.00    +0.277 C 
ENDBRANCH  23   4
ENDBRANCH  17  18
ENDBRANCH   6  17
TORSDOF 4
ENDMDL
MODEL 9
REMARK VINA RESULT:      -1.9      1.768      5.991
REMARK  Name = 56775298
REMARK  5 active torsions:
REMARK  status: ('A' for Active; 'I' for Inactive)
REMARK    1  A    between atoms: O_4  and  C_23
REMARK    2  A    between atoms: O_4  and  C_24
REMARK    3  A    between atoms: N_6  and  C_17
REMARK    4  A    between atoms: C_8  and  C_14
REMARK    5  A    between atoms: C_17  and  C_18
REMARK                            x       y       z     vdW  Elec       q    Type
REMARK                         _______ _______ _______ _____ _____    ______ ____
ROOT
ATOM      1  O   UNL     1      -5.114   4.179  25.493  0.00  0.00    -0.364 OA
ATOM      2  O   UNL     1      -0.620   5.527  24.604  0.00  0.00    -0.275 OA
ATOM      3  O   UNL     1      -6.665   1.222  26.723  0.00  0.00    -0.273 OA
ATOM      5  N   UNL     1      -2.212   3.860  24.820  0.00  0.00    -0.297 N 
ATOM      6  N   UNL     1      -4.884   1.420  25.239  0.00  0.00    -0.288 N 
ATOM      7  C   UNL     1      -3.962   2.299  24.529  0.00  0.00    +0.124 C 
ATOM      9  C   UNL     1      -4.505   3.707  24.294  0.00  0.00    +0.158 C 
ATOM     10  C   UNL     1      -2.669   2.562  25.307  0.00  0.00    +0.133 C 
ATOM     13  C   UNL     1      -3.247   4.525  24.036  0.00  0.00    +0.141 C 
ATOM     14  C   UNL     1      -0.967   4.430  25.033  0.00  0.00    +0.219 C 
ATOM     15  C   UNL     1      -5.941   1.910  26.001  0.00  0.00    +0.242 C 
ATOM     16  C   UNL     1      -6.234   3.390  25.828  0.00  0.00    +0.256 C 
ENDROOT
BRANCH  14   8
ATOM      8  C   UNL     1       0.014   3.621  25.817  0.00  0.00    +0.075 C 
ATOM     11  C   UNL     1       0.484   2.307  25.266  0.00  0.00    +0.013 C 
ATOM     12  C   UNL     1      -0.438   2.337  26.449  0.00  0.00    +0.013 C 
ENDBRANCH  14   8
BRANCH   6  17
ATOM     17  C   UNL     1      -4.560  -0.000  25.256  0.00  0.00    +0.143 C 
BRANCH  17  18
ATOM     18  C   UNL     1      -3.130  -0.254  24.877  0.00  0.00    -0.030 A 
ATOM     19  C   UNL     1      -2.654   0.158  23.631  0.00  0.00    +0.009 A 
ATOM     20  C   UNL     1      -2.277  -0.903  25.770  0.00  0.00    +0.009 A 
ATOM     21  C   UNL     1      -1.325  -0.079  23.280  0.00  0.00    +0.046 A 
ATOM     22  C   UNL     1      -0.949  -1.141  25.417  0.00  0.00    +0.046 A 
ATOM     23  C   UNL     1      -0.473  -0.728  24.173  0.00  0.00    +0.120 A 
BRANCH  23   4
ATOM      4  O   UNL     1       0.823  -0.959  23.830  0.00  0.00    -0.495 OA
ATOM     24  C   UNL     1       1.338  -0.237  22.711  0.00  0.00    +0.277 C 
ENDBRANCH  23   4
ENDBRANCH  17  18
ENDBRANCH   6  17
TORSDOF 4
ENDMDL
MODEL 10
REMARK VINA RESULT:      -1.9      1.829      4.968
REMARK  Name = 56775298
REMARK  5 active torsions:
REMARK  status: ('A' for Active; 'I' for Inactive)
REMARK    1  A    between atoms: O_4  and  C_23
REMARK    2  A    between atoms: O_4  and  C_24
REMARK    3  A    between atoms: N_6  and  C_17
REMARK    4  A    between atoms: C_8  and  C_14
REMARK    5  A    between atoms: C_17  and  C_18
REMARK                            x       y       z     vdW  Elec       q    Type
REMARK                         _______ _______ _______ _____ _____    ______ ____
ROOT
ATOM      1  O   UNL     1      -3.333   5.034  24.595  0.00  0.00    -0.364 OA
ATOM      2  O   UNL     1      -6.840   1.817  24.989  0.00  0.00    -0.275 OA
ATOM      3  O   UNL     1       0.214   4.883  24.365  0.00  0.00    -0.273 OA
ATOM      5  N   UNL     1      -4.634   2.433  25.317  0.00  0.00    -0.297 N 
ATOM      6  N   UNL     1      -1.211   3.619  25.702  0.00  0.00    -0.288 N 
ATOM      7  C   UNL     1      -2.580   3.308  26.094  0.00  0.00    +0.124 C 
ATOM      9  C   UNL     1      -3.563   4.457  25.878  0.00  0.00    +0.158 C 
ATOM     10  C   UNL     1      -3.197   2.178  25.265  0.00  0.00    +0.133 C 
ATOM     13  C   UNL     1      -4.915   3.757  25.859  0.00  0.00    +0.141 C 
ATOM     14  C   UNL     1      -5.641   1.565  24.929  0.00  0.00    +0.219 C 
ATOM     15  C   UNL     1      -0.905   4.662  24.830  0.00  0.00    +0.242 C 
ATOM     16  C   UNL     1      -2.050   5.614  24.531  0.00  0.00    +0.256 C 
ENDROOT
BRANCH  14   8
ATOM      8  C   UNL     1      -5.213   0.222  24.433  0.00  0.00    +0.075 C 
ATOM     11  C   UNL     1      -4.170  -0.541  25.195  0.00  0.00    +0.013 C 
ATOM     12  C   UNL     1      -3.834   0.059  23.862  0.00  0.00    +0.013 C 
ENDBRANCH  14   8
BRANCH   6  17
ATOM     17  C   UNL     1      -0.175   2.689  26.129  0.00  0.00    +0.143 C 
BRANCH  17  18
ATOM     18  C   UNL     1      -0.353   1.331  25.517  0.00  0.00    -0.030 A 
ATOM     19  C   UNL     1      -0.068   1.131  24.165  0.00  0.00    +0.009 A 
ATOM     20  C   UNL     1      -0.806   0.268  26.299  0.00  0.00    +0.009 A 
ATOM     21  C   UNL     1      -0.234  -0.132  23.597  0.00  0.00    +0.046 A 
ATOM     22  C   UNL     1      -0.973  -0.995  25.729  0.00  0.00    +0.046 A 
ATOM     23  C   UNL     1      -0.686  -1.194  24.378  0.00  0.00    +0.120 A 
BRANCH  23   4
ATOM      4  O   UNL     1      -0.848  -2.426  23.824  0.00  0.00    -0.495 OA
ATOM     24  C   UNL     1      -2.065  -3.114  24.113  0.00  0.00    +0.277 C 
ENDBRANCH  23   4
ENDBRANCH  17  18
ENDBRANCH   6  17
TORSDOF 4
ENDMDL
