MODEL 1
REMARK VINA RESULT:       6.0      0.000      0.000
REMARK  Name = 45361050
REMARK  8 active torsions:
REMARK  status: ('A' for Active; 'I' for Inactive)
REMARK    1  A    between atoms: N_3  and  C_16
REMARK    2  A    between atoms: N_4  and  C_18
REMARK    3  A    between atoms: N_6  and  C_24
REMARK    4  A    between atoms: N_8  and  C_29
REMARK    5  A    between atoms: C_13  and  C_17
REMARK    6  A    between atoms: C_16  and  C_19
REMARK    7  A    between atoms: C_17  and  C_20
REMARK    8  A    between atoms: C_20  and  C_21
REMARK                            x       y       z     vdW  Elec       q    Type
REMARK                         _______ _______ _______ _____ _____    ______ ____
ROOT
ATOM      1  O   UNL     1      -1.666   1.989  22.943  0.00  0.00    -0.274 OA
ATOM      3  N   UNL     1      -0.101  -0.055  23.758  0.00  0.00    -0.283 NA
ATOM      4  N   UNL     1      -3.359  -0.520  25.359  0.00  0.00    -0.296 NA
ATOM      5  N   UNL     1      -3.568   0.728  22.766  0.00  0.00    -0.312 N 
ATOM      9  C   UNL     1      -2.062  -1.000  24.831  0.00  0.00    +0.084 C 
ATOM     10  C   UNL     1      -1.520  -0.373  23.513  0.00  0.00    +0.161 C 
ATOM     11  C   UNL     1      -0.880  -0.792  25.796  0.00  0.00    +0.036 C 
ATOM     12  C   UNL     1       0.331  -0.869  24.890  0.00  0.00    +0.087 C 
ATOM     13  C   UNL     1      -4.523  -0.792  24.472  0.00  0.00    +0.074 C 
ATOM     14  C   UNL     1      -2.230   0.901  23.065  0.00  0.00    +0.232 C 
ATOM     15  C   UNL     1      -4.278  -0.518  22.975  0.00  0.00    +0.123 C 
ATOM     18  C   UNL     1      -3.608  -1.058  26.707  0.00  0.00    +0.105 C 
ATOM     35  H   UNL     1      -4.093   1.532  22.439  0.00  0.00    +0.149 HD
ENDROOT
BRANCH   3  16
ATOM     16  C   UNL     1       0.745  -0.250  22.589  0.00  0.00    +0.159 C 
BRANCH  16  19
ATOM      6  N   UNL     1       3.000   0.774  23.028  0.00  0.00    -0.330 N 
ATOM      7  N   UNL     1       2.862  -1.433  23.245  0.00  0.00    -0.231 NA
ATOM     19  C   UNL     1       2.202  -0.334  22.957  0.00  0.00    +0.125 A 
ATOM     22  C   UNL     1       4.258   0.362  23.386  0.00  0.00    +0.069 A 
ATOM     23  C   UNL     1       4.146  -1.019  23.515  0.00  0.00    +0.089 A 
ATOM     24  C   UNL     1       2.593   2.138  22.772  0.00  0.00    +0.150 C 
ATOM     25  C   UNL     1       5.448   1.059  23.601  0.00  0.00    +0.028 A 
ATOM     26  C   UNL     1       5.279  -1.766  23.880  0.00  0.00    +0.030 A 
ATOM     27  C   UNL     1       6.565   0.299  23.963  0.00  0.00    +0.002 A 
ATOM     28  C   UNL     1       6.484  -1.089  24.101  0.00  0.00    +0.002 A 
ENDBRANCH  16  19
ENDBRANCH   3  16
BRANCH  13  17
ATOM     17  C   UNL     1      -5.741   0.052  24.905  0.00  0.00    +0.029 C 
BRANCH  17  20
ATOM     20  C   UNL     1      -5.342   1.175  25.848  0.00  0.00    +0.098 C 
BRANCH  20  21
ATOM      2  O   UNL     1      -4.948   2.900  24.210  0.00  0.00    -0.275 OA
ATOM      8  N   UNL     1      -3.332   2.484  25.862  0.00  0.00    -0.285 N 
ATOM     21  C   UNL     1      -4.534   2.285  25.188  0.00  0.00    +0.217 C 
ATOM     36  H   UNL     1      -3.146   1.893  26.670  0.00  0.00    +0.155 HD
BRANCH   8  29
ATOM     29  C   UNL     1      -2.316   3.420  25.557  0.00  0.00    +0.033 A 
ATOM     30  C   UNL     1      -2.652   4.737  25.249  0.00  0.00    +0.023 A 
ATOM     31  C   UNL     1      -0.978   3.024  25.564  0.00  0.00    +0.023 A 
ATOM     32  C   UNL     1      -1.651   5.661  24.948  0.00  0.00    +0.002 A 
ATOM     33  C   UNL     1       0.023   3.947  25.263  0.00  0.00    +0.002 A 
ATOM     34  C   UNL     1      -0.314   5.265  24.955  0.00  0.00    +0.000 A 
ENDBRANCH   8  29
ENDBRANCH  20  21
ENDBRANCH  17  20
ENDBRANCH  13  17
TORSDOF 6
ENDMDL
MODEL 2
REMARK VINA RESULT:       7.5      1.668      4.267
REMARK  Name = 45361050
REMARK  8 active torsions:
REMARK  status: ('A' for Active; 'I' for Inactive)
REMARK    1  A    between atoms: N_3  and  C_16
REMARK    2  A    between atoms: N_4  and  C_18
REMARK    3  A    between atoms: N_6  and  C_24
REMARK    4  A    between atoms: N_8  and  C_29
REMARK    5  A    between atoms: C_13  and  C_17
REMARK    6  A    between atoms: C_16  and  C_19
REMARK    7  A    between atoms: C_17  and  C_20
REMARK    8  A    between atoms: C_20  and  C_21
REMARK                            x       y       z     vdW  Elec       q    Type
REMARK                         _______ _______ _______ _____ _____    ______ ____
ROOT
ATOM      1  O   UNL     1      -0.962   2.345  26.182  0.00  0.00    -0.274 OA
ATOM      3  N   UNL     1      -0.529   2.301  23.517  0.00  0.00    -0.283 NA
ATOM      4  N   UNL     1      -4.108   2.902  23.992  0.00  0.00    -0.296 NA
ATOM      5  N   UNL     1      -2.505   4.034  26.108  0.00  0.00    -0.312 N 
ATOM      9  C   UNL     1      -2.843   2.977  23.228  0.00  0.00    +0.084 C 
ATOM     10  C   UNL     1      -1.525   3.274  24.003  0.00  0.00    +0.161 C 
ATOM     11  C   UNL     1      -2.488   1.680  22.478  0.00  0.00    +0.036 C 
ATOM     12  C   UNL     1      -1.001   1.815  22.224  0.00  0.00    +0.087 C 
ATOM     13  C   UNL     1      -4.505   4.175  24.654  0.00  0.00    +0.074 C 
ATOM     14  C   UNL     1      -1.625   3.144  25.521  0.00  0.00    +0.232 C 
ATOM     15  C   UNL     1      -3.357   4.930  25.351  0.00  0.00    +0.123 C 
ATOM     18  C   UNL     1      -5.203   2.404  23.144  0.00  0.00    +0.105 C 
ATOM     35  H   UNL     1      -2.601   4.016  27.117  0.00  0.00    +0.149 HD
ENDROOT
BRANCH   3  16
ATOM     16  C   UNL     1       0.820   2.845  23.438  0.00  0.00    +0.159 C 
BRANCH  16  19
ATOM      6  N   UNL     1       1.554   0.452  23.690  0.00  0.00    -0.330 N 
ATOM      7  N   UNL     1       3.147   1.926  23.216  0.00  0.00    -0.231 NA
ATOM     19  C   UNL     1       1.864   1.760  23.442  0.00  0.00    +0.125 A 
ATOM     22  C   UNL     1       2.714  -0.274  23.620  0.00  0.00    +0.069 A 
ATOM     23  C   UNL     1       3.695   0.669  23.323  0.00  0.00    +0.089 A 
ATOM     24  C   UNL     1       0.238  -0.075  23.975  0.00  0.00    +0.150 C 
ATOM     25  C   UNL     1       2.982  -1.633  23.785  0.00  0.00    +0.028 A 
ATOM     26  C   UNL     1       5.028   0.247  23.180  0.00  0.00    +0.030 A 
ATOM     27  C   UNL     1       4.314  -2.034  23.638  0.00  0.00    +0.002 A 
ATOM     28  C   UNL     1       5.321  -1.112  23.342  0.00  0.00    +0.002 A 
ENDBRANCH  16  19
ENDBRANCH   3  16
BRANCH  13  17
ATOM     17  C   UNL     1      -5.600   3.916  25.710  0.00  0.00    +0.029 C 
BRANCH  17  20
ATOM     20  C   UNL     1      -5.250   2.744  26.612  0.00  0.00    +0.098 C 
BRANCH  20  21
ATOM      2  O   UNL     1      -6.534   0.987  25.573  0.00  0.00    -0.275 OA
ATOM      8  N   UNL     1      -4.220   0.711  25.866  0.00  0.00    -0.285 N 
ATOM     21  C   UNL     1      -5.438   1.380  25.960  0.00  0.00    +0.217 C 
ATOM     36  H   UNL     1      -3.396   1.186  26.227  0.00  0.00    +0.155 HD
BRANCH   8  29
ATOM     29  C   UNL     1      -3.982  -0.575  25.323  0.00  0.00    +0.033 A 
ATOM     30  C   UNL     1      -4.514  -0.915  24.080  0.00  0.00    +0.023 A 
ATOM     31  C   UNL     1      -3.215  -1.500  26.032  0.00  0.00    +0.023 A 
ATOM     32  C   UNL     1      -4.279  -2.182  23.545  0.00  0.00    +0.002 A 
ATOM     33  C   UNL     1      -2.980  -2.766  25.496  0.00  0.00    +0.002 A 
ATOM     34  C   UNL     1      -3.513  -3.107  24.253  0.00  0.00    +0.000 A 
ENDBRANCH   8  29
ENDBRANCH  20  21
ENDBRANCH  17  20
ENDBRANCH  13  17
TORSDOF 6
ENDMDL
MODEL 3
REMARK VINA RESULT:       8.8      0.471      1.286
REMARK  Name = 45361050
REMARK  8 active torsions:
REMARK  status: ('A' for Active; 'I' for Inactive)
REMARK    1  A    between atoms: N_3  and  C_16
REMARK    2  A    between atoms: N_4  and  C_18
REMARK    3  A    between atoms: N_6  and  C_24
REMARK    4  A    between atoms: N_8  and  C_29
REMARK    5  A    between atoms: C_13  and  C_17
REMARK    6  A    between atoms: C_16  and  C_19
REMARK    7  A    between atoms: C_17  and  C_20
REMARK    8  A    between atoms: C_20  and  C_21
REMARK                            x       y       z     vdW  Elec       q    Type
REMARK                         _______ _______ _______ _____ _____    ______ ____
ROOT
ATOM      1  O   UNL     1      -1.908   2.260  22.821  0.00  0.00    -0.274 OA
ATOM      3  N   UNL     1      -0.122   0.416  23.658  0.00  0.00    -0.283 NA
ATOM      4  N   UNL     1      -3.291  -0.358  25.317  0.00  0.00    -0.296 NA
ATOM      5  N   UNL     1      -3.665   0.799  22.700  0.00  0.00    -0.312 N 
ATOM      9  C   UNL     1      -1.957  -0.709  24.781  0.00  0.00    +0.084 C 
ATOM     10  C   UNL     1      -1.502  -0.059  23.441  0.00  0.00    +0.161 C 
ATOM     11  C   UNL     1      -0.792  -0.351  25.723  0.00  0.00    +0.036 C 
ATOM     12  C   UNL     1       0.409  -0.319  24.801  0.00  0.00    +0.087 C 
ATOM     13  C   UNL     1      -4.430  -0.774  24.453  0.00  0.00    +0.074 C 
ATOM     14  C   UNL     1      -2.350   1.121  22.975  0.00  0.00    +0.232 C 
ATOM     15  C   UNL     1      -4.234  -0.511  22.948  0.00  0.00    +0.123 C 
ATOM     18  C   UNL     1      -3.464  -0.886  26.680  0.00  0.00    +0.105 C 
ATOM     35  H   UNL     1      -4.277   1.534  22.362  0.00  0.00    +0.149 HD
ENDROOT
BRANCH   3  16
ATOM     16  C   UNL     1       0.726   0.284  22.481  0.00  0.00    +0.159 C 
BRANCH  16  19
ATOM      6  N   UNL     1       2.726  -0.948  23.379  0.00  0.00    -0.330 N 
ATOM      7  N   UNL     1       3.078   1.139  22.705  0.00  0.00    -0.231 NA
ATOM     19  C   UNL     1       2.183   0.187  22.846  0.00  0.00    +0.125 A 
ATOM     22  C   UNL     1       4.059  -0.714  23.596  0.00  0.00    +0.069 A 
ATOM     23  C   UNL     1       4.254   0.596  23.167  0.00  0.00    +0.089 A 
ATOM     24  C   UNL     1       2.022  -2.179  23.664  0.00  0.00    +0.150 C 
ATOM     25  C   UNL     1       5.080  -1.512  24.114  0.00  0.00    +0.028 A 
ATOM     26  C   UNL     1       5.539   1.160  23.254  0.00  0.00    +0.030 A 
ATOM     27  C   UNL     1       6.351  -0.933  24.193  0.00  0.00    +0.002 A 
ATOM     28  C   UNL     1       6.579   0.379  23.771  0.00  0.00    +0.002 A 
ENDBRANCH  16  19
ENDBRANCH   3  16
BRANCH  13  17
ATOM     17  C   UNL     1      -5.726  -0.055  24.886  0.00  0.00    +0.029 C 
BRANCH  17  20
ATOM     20  C   UNL     1      -5.442   1.103  25.827  0.00  0.00    +0.098 C 
BRANCH  20  21
ATOM      2  O   UNL     1      -5.137   2.875  24.221  0.00  0.00    -0.275 OA
ATOM      8  N   UNL     1      -3.489   2.495  25.849  0.00  0.00    -0.285 N 
ATOM     21  C   UNL     1      -4.688   2.260  25.182  0.00  0.00    +0.217 C 
ATOM     36  H   UNL     1      -3.269   1.897  26.642  0.00  0.00    +0.155 HD
BRANCH   8  29
ATOM     29  C   UNL     1      -2.516   3.479  25.553  0.00  0.00    +0.033 A 
ATOM     30  C   UNL     1      -2.913   4.777  25.236  0.00  0.00    +0.023 A 
ATOM     31  C   UNL     1      -1.160   3.150  25.580  0.00  0.00    +0.023 A 
ATOM     32  C   UNL     1      -1.954   5.748  24.944  0.00  0.00    +0.002 A 
ATOM     33  C   UNL     1      -0.202   4.121  25.288  0.00  0.00    +0.002 A 
ATOM     34  C   UNL     1      -0.599   5.419  24.970  0.00  0.00    +0.000 A 
ENDBRANCH   8  29
ENDBRANCH  20  21
ENDBRANCH  17  20
ENDBRANCH  13  17
TORSDOF 6
ENDMDL
MODEL 4
REMARK VINA RESULT:       9.0      2.090      2.960
REMARK  Name = 45361050
REMARK  8 active torsions:
REMARK  status: ('A' for Active; 'I' for Inactive)
REMARK    1  A    between atoms: N_3  and  C_16
REMARK    2  A    between atoms: N_4  and  C_18
REMARK    3  A    between atoms: N_6  and  C_24
REMARK    4  A    between atoms: N_8  and  C_29
REMARK    5  A    between atoms: C_13  and  C_17
REMARK    6  A    between atoms: C_16  and  C_19
REMARK    7  A    between atoms: C_17  and  C_20
REMARK    8  A    between atoms: C_20  and  C_21
REMARK                            x       y       z     vdW  Elec       q    Type
REMARK                         _______ _______ _______ _____ _____    ______ ____
ROOT
ATOM      1  O   UNL     1       0.114   1.180  24.531  0.00  0.00    -0.274 OA
ATOM      3  N   UNL     1      -1.233  -1.157  24.400  0.00  0.00    -0.283 NA
ATOM      4  N   UNL     1      -3.732   1.475  24.876  0.00  0.00    -0.296 NA
ATOM      5  N   UNL     1      -1.447   2.379  23.363  0.00  0.00    -0.312 N 
ATOM      9  C   UNL     1      -3.286   0.139  24.422  0.00  0.00    +0.084 C 
ATOM     10  C   UNL     1      -1.879   0.009  23.768  0.00  0.00    +0.161 C 
ATOM     11  C   UNL     1      -3.215  -0.912  25.547  0.00  0.00    +0.036 C 
ATOM     12  C   UNL     1      -2.295  -1.972  24.980  0.00  0.00    +0.087 C 
ATOM     13  C   UNL     1      -3.886   2.476  23.785  0.00  0.00    +0.074 C 
ATOM     14  C   UNL     1      -0.970   1.221  23.948  0.00  0.00    +0.232 C 
ATOM     15  C   UNL     1      -2.753   2.478  22.741  0.00  0.00    +0.123 C 
ATOM     18  C   UNL     1      -4.976   1.375  25.657  0.00  0.00    +0.105 C 
ATOM     35  H   UNL     1      -0.879   3.217  23.426  0.00  0.00    +0.149 HD
ENDROOT
BRANCH   3  16
ATOM     16  C   UNL     1      -0.394  -1.919  23.485  0.00  0.00    +0.159 C 
BRANCH  16  19
ATOM      6  N   UNL     1       1.381  -0.550  22.345  0.00  0.00    -0.330 N 
ATOM      7  N   UNL     1       1.966  -1.528  24.252  0.00  0.00    -0.231 NA
ATOM     19  C   UNL     1       0.994  -1.345  23.387  0.00  0.00    +0.125 A 
ATOM     22  C   UNL     1       2.689  -0.195  22.550  0.00  0.00    +0.069 A 
ATOM     23  C   UNL     1       3.032  -0.818  23.748  0.00  0.00    +0.089 A 
ATOM     24  C   UNL     1       0.559  -0.151  21.223  0.00  0.00    +0.150 C 
ATOM     25  C   UNL     1       3.575   0.593  21.815  0.00  0.00    +0.028 A 
ATOM     26  C   UNL     1       4.332  -0.656  24.256  0.00  0.00    +0.030 A 
ATOM     27  C   UNL     1       4.864   0.743  22.336  0.00  0.00    +0.002 A 
ATOM     28  C   UNL     1       5.238   0.130  23.535  0.00  0.00    +0.002 A 
ENDBRANCH  16  19
ENDBRANCH   3  16
BRANCH  13  17
ATOM     17  C   UNL     1      -3.982   3.901  24.371  0.00  0.00    +0.029 C 
BRANCH  17  20
ATOM     20  C   UNL     1      -3.606   3.934  25.843  0.00  0.00    +0.098 C 
BRANCH  20  21
ATOM      2  O   UNL     1      -1.354   4.686  25.425  0.00  0.00    -0.275 OA
ATOM      8  N   UNL     1      -1.765   3.189  27.187  0.00  0.00    -0.285 N 
ATOM     21  C   UNL     1      -2.106   3.992  26.101  0.00  0.00    +0.217 C 
ATOM     36  H   UNL     1      -2.517   2.684  27.650  0.00  0.00    +0.155 HD
BRANCH   8  29
ATOM     29  C   UNL     1      -0.477   2.980  27.735  0.00  0.00    +0.033 A 
ATOM     30  C   UNL     1       0.631   2.887  26.893  0.00  0.00    +0.023 A 
ATOM     31  C   UNL     1      -0.316   2.868  29.116  0.00  0.00    +0.023 A 
ATOM     32  C   UNL     1       1.901   2.680  27.432  0.00  0.00    +0.002 A 
ATOM     33  C   UNL     1       0.954   2.663  29.655  0.00  0.00    +0.002 A 
ATOM     34  C   UNL     1       2.062   2.569  28.813  0.00  0.00    +0.000 A 
ENDBRANCH   8  29
ENDBRANCH  20  21
ENDBRANCH  17  20
ENDBRANCH  13  17
TORSDOF 6
ENDMDL
MODEL 5
REMARK VINA RESULT:       9.2      1.572      7.001
REMARK  Name = 45361050
REMARK  8 active torsions:
REMARK  status: ('A' for Active; 'I' for Inactive)
REMARK    1  A    between atoms: N_3  and  C_16
REMARK    2  A    between atoms: N_4  and  C_18
REMARK    3  A    between atoms: N_6  and  C_24
REMARK    4  A    between atoms: N_8  and  C_29
REMARK    5  A    between atoms: C_13  and  C_17
REMARK    6  A    between atoms: C_16  and  C_19
REMARK    7  A    between atoms: C_17  and  C_20
REMARK    8  A    between atoms: C_20  and  C_21
REMARK                            x       y       z     vdW  Elec       q    Type
REMARK                         _______ _______ _______ _____ _____    ______ ____
ROOT
ATOM      1  O   UNL     1      -3.665   1.252  22.704  0.00  0.00    -0.274 OA
ATOM      3  N   UNL     1      -4.452   0.452  25.160  0.00  0.00    -0.283 NA
ATOM      4  N   UNL     1      -1.732  -1.778  24.147  0.00  0.00    -0.296 NA
ATOM      5  N   UNL     1      -1.437   0.886  23.077  0.00  0.00    -0.312 N 
ATOM      9  C   UNL     1      -2.581  -1.094  25.148  0.00  0.00    +0.084 C 
ATOM     10  C   UNL     1      -3.006   0.379  24.878  0.00  0.00    +0.161 C 
ATOM     11  C   UNL     1      -3.938  -1.781  25.390  0.00  0.00    +0.036 C 
ATOM     12  C   UNL     1      -4.780  -0.687  26.011  0.00  0.00    +0.087 C 
ATOM     13  C   UNL     1      -0.384  -1.172  23.966  0.00  0.00    +0.074 C 
ATOM     14  C   UNL     1      -2.767   0.870  23.453  0.00  0.00    +0.232 C 
ATOM     15  C   UNL     1      -0.367   0.368  23.905  0.00  0.00    +0.123 C 
ATOM     18  C   UNL     1      -1.610  -3.212  24.454  0.00  0.00    +0.105 C 
ATOM     35  H   UNL     1      -1.207   1.224  22.148  0.00  0.00    +0.149 HD
ENDROOT
BRANCH   3  16
ATOM     16  C   UNL     1      -4.862   1.716  25.754  0.00  0.00    +0.159 C 
BRANCH  16  19
ATOM      6  N   UNL     1      -4.184   4.103  25.344  0.00  0.00    -0.330 N 
ATOM      7  N   UNL     1      -2.533   2.627  25.519  0.00  0.00    -0.231 NA
ATOM     19  C   UNL     1      -3.835   2.796  25.541  0.00  0.00    +0.125 A 
ATOM     22  C   UNL     1      -3.030   4.826  25.184  0.00  0.00    +0.069 A 
ATOM     23  C   UNL     1      -2.013   3.881  25.297  0.00  0.00    +0.089 A 
ATOM     24  C   UNL     1      -5.529   4.633  25.310  0.00  0.00    +0.150 C 
ATOM     25  C   UNL     1      -2.795   6.182  24.957  0.00  0.00    +0.028 A 
ATOM     26  C   UNL     1      -0.676   4.298  25.179  0.00  0.00    +0.030 A 
ATOM     27  C   UNL     1      -1.458   6.578  24.843  0.00  0.00    +0.002 A 
ATOM     28  C   UNL     1      -0.416   5.655  24.951  0.00  0.00    +0.002 A 
ENDBRANCH  16  19
ENDBRANCH   3  16
BRANCH  13  17
ATOM     17  C   UNL     1       0.273  -1.695  22.671  0.00  0.00    +0.029 C 
BRANCH  17  20
ATOM     20  C   UNL     1       0.707  -0.560  21.759  0.00  0.00    +0.098 C 
BRANCH  20  21
ATOM      2  O   UNL     1       2.806   0.096  20.770  0.00  0.00    -0.275 OA
ATOM      8  N   UNL     1       2.739  -0.530  23.032  0.00  0.00    -0.285 N 
ATOM     21  C   UNL     1       2.207  -0.293  21.767  0.00  0.00    +0.217 C 
ATOM     36  H   UNL     1       2.098  -0.840  23.759  0.00  0.00    +0.155 HD
BRANCH   8  29
ATOM     29  C   UNL     1       4.088  -0.396  23.440  0.00  0.00    +0.033 A 
ATOM     30  C   UNL     1       4.776  -1.497  23.947  0.00  0.00    +0.023 A 
ATOM     31  C   UNL     1       4.728   0.839  23.334  0.00  0.00    +0.023 A 
ATOM     32  C   UNL     1       6.105  -1.366  24.349  0.00  0.00    +0.002 A 
ATOM     33  C   UNL     1       6.058   0.971  23.736  0.00  0.00    +0.002 A 
ATOM     34  C   UNL     1       6.745  -0.131  24.244  0.00  0.00    +0.000 A 
ENDBRANCH   8  29
ENDBRANCH  20  21
ENDBRANCH  17  20
ENDBRANCH  13  17
TORSDOF 6
ENDMDL
MODEL 6
REMARK VINA RESULT:       9.8      1.657      3.003
REMARK  Name = 45361050
REMARK  8 active torsions:
REMARK  status: ('A' for Active; 'I' for Inactive)
REMARK    1  A    between atoms: N_3  and  C_16
REMARK    2  A    between atoms: N_4  and  C_18
REMARK    3  A    between atoms: N_6  and  C_24
REMARK    4  A    between atoms: N_8  and  C_29
REMARK    5  A    between atoms: C_13  and  C_17
REMARK    6  A    between atoms: C_16  and  C_19
REMARK    7  A    between atoms: C_17  and  C_20
REMARK    8  A    between atoms: C_20  and  C_21
REMARK                            x       y       z     vdW  Elec       q    Type
REMARK                         _______ _______ _______ _____ _____    ______ ____
ROOT
ATOM      1  O   UNL     1      -2.079   1.036  22.609  0.00  0.00    -0.274 OA
ATOM      3  N   UNL     1       0.079   1.843  24.018  0.00  0.00    -0.283 NA
ATOM      4  N   UNL     1      -1.672  -0.614  26.090  0.00  0.00    -0.296 NA
ATOM      5  N   UNL     1      -1.943  -1.152  23.267  0.00  0.00    -0.312 N 
ATOM      9  C   UNL     1      -0.474   0.138  25.655  0.00  0.00    +0.084 C 
ATOM     10  C   UNL     1      -0.286   0.418  24.135  0.00  0.00    +0.161 C 
ATOM     11  C   UNL     1      -0.371   1.552  26.257  0.00  0.00    +0.036 C 
ATOM     12  C   UNL     1       0.582   2.265  25.321  0.00  0.00    +0.087 C 
ATOM     13  C   UNL     1      -1.740  -2.012  25.581  0.00  0.00    +0.074 C 
ATOM     14  C   UNL     1      -1.519   0.163  23.273  0.00  0.00    +0.232 C 
ATOM     15  C   UNL     1      -1.355  -2.183  24.099  0.00  0.00    +0.123 C 
ATOM     18  C   UNL     1      -1.798  -0.597  27.556  0.00  0.00    +0.105 C 
ATOM     35  H   UNL     1      -2.745  -1.394  22.695  0.00  0.00    +0.149 HD
ENDROOT
BRANCH   3  16
ATOM     16  C   UNL     1       1.033   2.109  22.950  0.00  0.00    +0.159 C 
BRANCH  16  19
ATOM      6  N   UNL     1       2.396  -0.004  22.933  0.00  0.00    -0.330 N 
ATOM      7  N   UNL     1       3.468   1.854  23.510  0.00  0.00    -0.231 NA
ATOM     19  C   UNL     1       2.316   1.345  23.139  0.00  0.00    +0.125 A 
ATOM     22  C   UNL     1       3.687  -0.391  23.187  0.00  0.00    +0.069 A 
ATOM     23  C   UNL     1       4.336   0.787  23.546  0.00  0.00    +0.089 A 
ATOM     24  C   UNL     1       1.316  -0.872  22.520  0.00  0.00    +0.150 C 
ATOM     25  C   UNL     1       4.322  -1.632  23.135  0.00  0.00    +0.028 A 
ATOM     26  C   UNL     1       5.702   0.742  23.876  0.00  0.00    +0.030 A 
ATOM     27  C   UNL     1       5.681  -1.657  23.467  0.00  0.00    +0.002 A 
ATOM     28  C   UNL     1       6.361  -0.492  23.831  0.00  0.00    +0.002 A 
ENDBRANCH  16  19
ENDBRANCH   3  16
BRANCH  13  17
ATOM     17  C   UNL     1      -3.163  -2.583  25.761  0.00  0.00    +0.029 C 
BRANCH  17  20
ATOM     20  C   UNL     1      -3.981  -2.474  24.485  0.00  0.00    +0.098 C 
BRANCH  20  21
ATOM      2  O   UNL     1      -4.692  -0.724  22.986  0.00  0.00    -0.275 OA
ATOM      8  N   UNL     1      -4.395  -0.244  25.265  0.00  0.00    -0.285 N 
ATOM     21  C   UNL     1      -4.393  -1.051  24.130  0.00  0.00    +0.217 C 
ATOM     36  H   UNL     1      -4.131  -0.677  26.147  0.00  0.00    +0.155 HD
BRANCH   8  29
ATOM     29  C   UNL     1      -4.720   1.131  25.346  0.00  0.00    +0.033 A 
ATOM     30  C   UNL     1      -6.013   1.522  25.690  0.00  0.00    +0.023 A 
ATOM     31  C   UNL     1      -3.746   2.095  25.082  0.00  0.00    +0.023 A 
ATOM     32  C   UNL     1      -6.335   2.877  25.769  0.00  0.00    +0.002 A 
ATOM     33  C   UNL     1      -4.067   3.450  25.162  0.00  0.00    +0.002 A 
ATOM     34  C   UNL     1      -5.361   3.840  25.505  0.00  0.00    +0.000 A 
ENDBRANCH   8  29
ENDBRANCH  20  21
ENDBRANCH  17  20
ENDBRANCH  13  17
TORSDOF 6
ENDMDL
