MODEL 1
REMARK VINA RESULT:       0.1      0.000      0.000
REMARK  Name = 71693364
REMARK  8 active torsions:
REMARK  status: ('A' for Active; 'I' for Inactive)
REMARK    1  A    between atoms: O_2  and  C_12
REMARK    2  A    between atoms: N_5  and  C_11
REMARK    3  A    between atoms: N_6  and  C_22
REMARK    4  A    between atoms: C_9  and  C_12
REMARK    5  A    between atoms: C_10  and  C_14
REMARK    6  A    between atoms: C_11  and  C_16
REMARK    7  A    between atoms: C_11  and  C_17
REMARK    8  A    between atoms: C_23  and  C_24
REMARK                            x       y       z     vdW  Elec       q    Type
REMARK                         _______ _______ _______ _____ _____    ______ ____
ROOT
ATOM     14  C   UNL     1      -6.023 -10.042  10.323  0.00  0.00    -0.017 A 
ATOM     18  C   UNL     1      -5.212 -10.618  11.301  0.00  0.00    +0.008 A 
ATOM     19  C   UNL     1      -5.514  -9.042   9.495  0.00  0.00    +0.008 A 
ATOM     20  C   UNL     1      -3.893 -10.194  11.451  0.00  0.00    +0.023 A 
ATOM     21  C   UNL     1      -4.194  -8.617   9.645  0.00  0.00    +0.023 A 
ATOM     22  C   UNL     1      -3.383  -9.193  10.623  0.00  0.00    +0.034 A 
ENDROOT
BRANCH  14  10
ATOM      1  O   UNL     1      -8.052 -10.502  11.463  0.00  0.00    -0.361 OA
ATOM      3  O   UNL     1     -10.717  -8.355  11.444  0.00  0.00    -0.273 OA
ATOM      5  N   UNL     1      -9.114  -8.670   9.777  0.00  0.00    -0.289 N 
ATOM      9  C   UNL     1      -8.217  -9.631   9.126  0.00  0.00    +0.135 C 
ATOM     10  C   UNL     1      -7.459 -10.504  10.161  0.00  0.00    +0.171 C 
ATOM     13  C   UNL     1      -9.840  -9.030  10.908  0.00  0.00    +0.242 C 
ATOM     15  C   UNL     1      -9.461 -10.389  11.448  0.00  0.00    +0.256 C 
BRANCH   5  11
ATOM     11  C   UNL     1      -9.326  -7.383   9.129  0.00  0.00    +0.070 C 
ATOM     16  C   UNL     1     -10.576  -7.429   8.261  0.00  0.00    +0.028 C 
ATOM     17  C   UNL     1      -8.101  -6.987   8.315  0.00  0.00    +0.028 C 
ENDBRANCH   5  11
BRANCH   9  12
ATOM     12  C   UNL     1      -8.988 -10.501   8.124  0.00  0.00    +0.181 C 
BRANCH  12   2
ATOM      2  O   UNL     1     -10.370 -10.296   8.334  0.00  0.00    -0.393 OA
ATOM     28  H   UNL     1     -10.459  -9.572   8.976  0.00  0.00    +0.209 HD
ENDBRANCH  12   2
ENDBRANCH   9  12
ENDBRANCH  14  10
BRANCH  22   6
ATOM      4  O   UNL     1      -1.557  -9.346  12.995  0.00  0.00    -0.268 OA
ATOM      6  N   UNL     1      -2.062  -8.767  10.773  0.00  0.00    -0.280 N 
ATOM     23  C   UNL     1      -1.250  -8.863  11.911  0.00  0.00    +0.268 C 
ATOM     29  H   UNL     1      -1.646  -8.340   9.949  0.00  0.00    +0.155 HD
BRANCH  23  24
ATOM      7  N   UNL     1       0.880  -8.900  10.778  0.00  0.00    -0.247 NA
ATOM      8  N   UNL     1       1.873  -6.860  12.428  0.00  0.00    -0.259 NA
ATOM     24  C   UNL     1       0.133  -8.342  11.751  0.00  0.00    +0.144 A 
ATOM     25  C   UNL     1       0.621  -7.340  12.562  0.00  0.00    +0.143 A 
ATOM     26  C   UNL     1       2.133  -8.421  10.645  0.00  0.00    +0.131 A 
ATOM     27  C   UNL     1       2.620  -7.419  11.455  0.00  0.00    +0.130 A 
ENDBRANCH  23  24
ENDBRANCH  22   6
TORSDOF 6
ENDMDL
MODEL 2
REMARK VINA RESULT:       1.8     16.746     17.684
REMARK  Name = 71693364
REMARK  8 active torsions:
REMARK  status: ('A' for Active; 'I' for Inactive)
REMARK    1  A    between atoms: O_2  and  C_12
REMARK    2  A    between atoms: N_5  and  C_11
REMARK    3  A    between atoms: N_6  and  C_22
REMARK    4  A    between atoms: C_9  and  C_12
REMARK    5  A    between atoms: C_10  and  C_14
REMARK    6  A    between atoms: C_11  and  C_16
REMARK    7  A    between atoms: C_11  and  C_17
REMARK    8  A    between atoms: C_23  and  C_24
REMARK                            x       y       z     vdW  Elec       q    Type
REMARK                         _______ _______ _______ _____ _____    ______ ____
ROOT
ATOM     14  C   UNL     1      -2.476   0.828  23.804  0.00  0.00    -0.017 A 
ATOM     18  C   UNL     1      -1.550   1.813  23.457  0.00  0.00    +0.008 A 
ATOM     19  C   UNL     1      -2.035  -0.435  24.199  0.00  0.00    +0.008 A 
ATOM     20  C   UNL     1      -0.185   1.534  23.505  0.00  0.00    +0.023 A 
ATOM     21  C   UNL     1      -0.669  -0.714  24.246  0.00  0.00    +0.023 A 
ATOM     22  C   UNL     1       0.256   0.271  23.900  0.00  0.00    +0.034 A 
ENDROOT
BRANCH  14  10
ATOM      1  O   UNL     1      -4.612   0.199  24.619  0.00  0.00    -0.361 OA
ATOM      3  O   UNL     1      -6.253   1.948  27.061  0.00  0.00    -0.273 OA
ATOM      5  N   UNL     1      -4.760   2.766  25.465  0.00  0.00    -0.289 N 
ATOM      9  C   UNL     1      -4.245   2.616  24.100  0.00  0.00    +0.135 C 
ATOM     10  C   UNL     1      -3.961   1.131  23.751  0.00  0.00    +0.171 C 
ATOM     13  C   UNL     1      -5.658   1.842  25.991  0.00  0.00    +0.242 C 
ATOM     15  C   UNL     1      -5.867   0.644  25.095  0.00  0.00    +0.256 C 
BRANCH   5  11
ATOM     11  C   UNL     1      -4.414   3.976  26.199  0.00  0.00    +0.070 C 
ATOM     16  C   UNL     1      -5.315   5.127  25.772  0.00  0.00    +0.028 C 
ATOM     17  C   UNL     1      -2.944   4.320  25.999  0.00  0.00    +0.028 C 
ENDBRANCH   5  11
BRANCH   9  12
ATOM     12  C   UNL     1      -5.204   3.252  23.085  0.00  0.00    +0.181 C 
BRANCH  12   2
ATOM      2  O   UNL     1      -4.434   3.804  22.036  0.00  0.00    -0.393 OA
ATOM     28  H   UNL     1      -3.860   3.096  21.698  0.00  0.00    +0.209 HD
ENDBRANCH  12   2
ENDBRANCH   9  12
ENDBRANCH  14  10
BRANCH  22   6
ATOM      4  O   UNL     1       2.257   0.010  21.683  0.00  0.00    -0.268 OA
ATOM      6  N   UNL     1       1.623  -0.009  23.947  0.00  0.00    -0.280 N 
ATOM     23  C   UNL     1       2.517  -0.120  22.874  0.00  0.00    +0.268 C 
ATOM     29  H   UNL     1       2.008  -0.142  24.879  0.00  0.00    +0.155 HD
BRANCH  23  24
ATOM      7  N   UNL     1       4.178  -1.599  23.809  0.00  0.00    -0.247 NA
ATOM      8  N   UNL     1       6.208   0.287  23.370  0.00  0.00    -0.259 NA
ATOM     24  C   UNL     1       3.928  -0.399  23.248  0.00  0.00    +0.144 A 
ATOM     25  C   UNL     1       4.925   0.527  23.033  0.00  0.00    +0.143 A 
ATOM     26  C   UNL     1       5.460  -1.840  24.147  0.00  0.00    +0.131 A 
ATOM     27  C   UNL     1       6.457  -0.913  23.931  0.00  0.00    +0.130 A 
ENDBRANCH  23  24
ENDBRANCH  22   6
TORSDOF 6
ENDMDL
MODEL 3
REMARK VINA RESULT:       2.2      1.828      2.946
REMARK  Name = 71693364
REMARK  8 active torsions:
REMARK  status: ('A' for Active; 'I' for Inactive)
REMARK    1  A    between atoms: O_2  and  C_12
REMARK    2  A    between atoms: N_5  and  C_11
REMARK    3  A    between atoms: N_6  and  C_22
REMARK    4  A    between atoms: C_9  and  C_12
REMARK    5  A    between atoms: C_10  and  C_14
REMARK    6  A    between atoms: C_11  and  C_16
REMARK    7  A    between atoms: C_11  and  C_17
REMARK    8  A    between atoms: C_23  and  C_24
REMARK                            x       y       z     vdW  Elec       q    Type
REMARK                         _______ _______ _______ _____ _____    ______ ____
ROOT
ATOM     14  C   UNL     1      -3.395 -10.041  10.939  0.00  0.00    -0.017 A 
ATOM     18  C   UNL     1      -2.927  -9.089  10.033  0.00  0.00    +0.008 A 
ATOM     19  C   UNL     1      -2.600 -10.430  12.016  0.00  0.00    +0.008 A 
ATOM     20  C   UNL     1      -1.663  -8.526  10.205  0.00  0.00    +0.023 A 
ATOM     21  C   UNL     1      -1.335  -9.867  12.188  0.00  0.00    +0.023 A 
ATOM     22  C   UNL     1      -0.867  -8.914  11.282  0.00  0.00    +0.034 A 
ENDROOT
BRANCH  14  10
ATOM      1  O   UNL     1      -5.373 -10.740  12.046  0.00  0.00    -0.361 OA
ATOM      3  O   UNL     1      -8.256  -8.896  12.031  0.00  0.00    -0.273 OA
ATOM      5  N   UNL     1      -6.612  -9.005  10.378  0.00  0.00    -0.289 N 
ATOM      9  C   UNL     1      -5.608  -9.850   9.722  0.00  0.00    +0.135 C 
ATOM     10  C   UNL     1      -4.770 -10.654  10.751  0.00  0.00    +0.171 C 
ATOM     13  C   UNL     1      -7.306  -9.462  11.495  0.00  0.00    +0.242 C 
ATOM     15  C   UNL     1      -6.786 -10.781  12.016  0.00  0.00    +0.256 C 
BRANCH   5  11
ATOM     11  C   UNL     1      -6.956  -7.737   9.750  0.00  0.00    +0.070 C 
ATOM     16  C   UNL     1      -8.244  -7.878   8.949  0.00  0.00    +0.028 C 
ATOM     17  C   UNL     1      -5.811  -7.247   8.874  0.00  0.00    +0.028 C 
ENDBRANCH   5  11
BRANCH   9  12
ATOM     12  C   UNL     1      -6.270 -10.781   8.697  0.00  0.00    +0.181 C 
BRANCH  12   2
ATOM      2  O   UNL     1      -7.663 -10.775   8.929  0.00  0.00    -0.393 OA
ATOM     28  H   UNL     1      -7.834 -11.383   9.667  0.00  0.00    +0.209 HD
ENDBRANCH  12   2
ENDBRANCH   9  12
ENDBRANCH  14  10
BRANCH  22   6
ATOM      4  O   UNL     1      -0.023  -6.470  12.798  0.00  0.00    -0.268 OA
ATOM      6  N   UNL     1       0.399  -8.352  11.454  0.00  0.00    -0.280 N 
ATOM     23  C   UNL     1       0.740  -7.201  12.177  0.00  0.00    +0.268 C 
ATOM     29  H   UNL     1       1.162  -8.848  10.999  0.00  0.00    +0.155 HD
BRANCH  23  24
ATOM      7  N   UNL     1       2.515  -5.612  12.558  0.00  0.00    -0.247 NA
ATOM      8  N   UNL     1       4.461  -7.516  11.881  0.00  0.00    -0.259 NA
ATOM     24  C   UNL     1       2.188  -6.870  12.199  0.00  0.00    +0.144 A 
ATOM     25  C   UNL     1       3.144  -7.805  11.866  0.00  0.00    +0.143 A 
ATOM     26  C   UNL     1       3.831  -5.323  12.571  0.00  0.00    +0.131 A 
ATOM     27  C   UNL     1       4.787  -6.258  12.239  0.00  0.00    +0.130 A 
ENDBRANCH  23  24
ENDBRANCH  22   6
TORSDOF 6
ENDMDL
