MODEL 1
REMARK VINA RESULT:      -0.5      0.000      0.000
REMARK  Name = 56773986
REMARK  13 active torsions:
REMARK  status: ('A' for Active; 'I' for Inactive)
REMARK    1  A    between atoms: N_4  and  C_9
REMARK    2  A    between atoms: N_4  and  C_14
REMARK    3  A    between atoms: N_4  and  C_15
REMARK    4  A    between atoms: N_6  and  C_23
REMARK    5  A    between atoms: N_6  and  C_28
REMARK    6  A    between atoms: N_6  and  C_29
REMARK    7  A    between atoms: C_7  and  C_12
REMARK    8  A    between atoms: C_7  and  C_13
REMARK    9  A    between atoms: C_8  and  C_11
REMARK   10  A    between atoms: C_11  and  C_16
REMARK   11  A    between atoms: C_14  and  C_17
REMARK   12  A    between atoms: C_15  and  C_18
REMARK   13  A    between atoms: C_20  and  C_23
REMARK                            x       y       z     vdW  Elec       q    Type
REMARK                         _______ _______ _______ _____ _____    ______ ____
ROOT
ATOM      7  C   UNL     1      -0.382  -1.782  24.875  0.00  0.00    -0.016 C 
ATOM      8  C   UNL     1      -1.421  -1.671  26.012  0.00  0.00    +0.004 C 
ATOM      9  C   UNL     1       0.021  -0.330  25.206  0.00  0.00    +0.064 C 
ATOM     10  C   UNL     1      -1.401  -0.146  25.776  0.00  0.00    +0.024 C 
ATOM     12  C   UNL     1       0.653  -2.864  25.100  0.00  0.00    +0.013 C 
ATOM     13  C   UNL     1      -0.955  -1.910  23.474  0.00  0.00    +0.013 C 
ENDROOT
BRANCH   9   4
ATOM      4  N   UNL     1       0.153   0.478  23.982  0.00  0.00    -0.285 NA
BRANCH   4  14
ATOM     14  C   UNL     1       0.848   1.724  24.303  0.00  0.00    +0.159 C 
BRANCH  14  17
ATOM      2  O   UNL     1      -0.277   3.852  23.941  0.00  0.00    -0.467 OA
ATOM     17  C   UNL     1      -0.103   2.792  24.774  0.00  0.00    +0.119 A 
ATOM     21  C   UNL     1      -0.868   2.938  25.908  0.00  0.00    +0.046 A 
ATOM     24  C   UNL     1      -1.556   4.166  25.763  0.00  0.00    +0.041 A 
ATOM     26  C   UNL     1      -1.164   4.684  24.551  0.00  0.00    +0.195 A 
ENDBRANCH  14  17
ENDBRANCH   4  14
BRANCH   4  15
ATOM     15  C   UNL     1       0.899  -0.285  22.982  0.00  0.00    +0.159 C 
BRANCH  15  18
ATOM      3  O   UNL     1       3.156  -1.005  23.545  0.00  0.00    -0.467 OA
ATOM     18  C   UNL     1       2.377  -0.006  23.051  0.00  0.00    +0.119 A 
ATOM     22  C   UNL     1       3.146   1.083  22.711  0.00  0.00    +0.046 A 
ATOM     25  C   UNL     1       4.483   0.730  23.014  0.00  0.00    +0.041 A 
ATOM     27  C   UNL     1       4.436  -0.549  23.519  0.00  0.00    +0.195 A 
ENDBRANCH  15  18
ENDBRANCH   4  15
ENDBRANCH   9   4
BRANCH   8  11
ATOM     11  C   UNL     1      -2.764  -2.325  25.783  0.00  0.00    +0.063 C 
BRANCH  11  16
ATOM      1  O   UNL     1      -5.349  -0.391  24.171  0.00  0.00    -0.358 OA
ATOM      5  N   UNL     1      -4.533  -1.512  24.272  0.00  0.00    -0.083 NA
ATOM     16  C   UNL     1      -3.783  -1.296  25.357  0.00  0.00    +0.084 A 
ATOM     19  C   UNL     1      -4.079  -0.068  25.974  0.00  0.00    +0.072 A 
ATOM     20  C   UNL     1      -5.069   0.461  25.190  0.00  0.00    +0.155 A 
BRANCH  20  23
ATOM     23  C   UNL     1      -5.846   1.706  25.235  0.00  0.00    +0.181 C 
BRANCH  23   6
ATOM      6  N   UNL     1      -5.095   2.878  24.752  0.00  0.00    -0.326 N 
ATOM     28  C   UNL     1      -5.278   4.130  25.459  0.00  0.00    +0.129 C 
BRANCH   6  29
ATOM     29  C   UNL     1      -4.255   2.769  23.653  0.00  0.00    +0.030 A 
ATOM     30  C   UNL     1      -4.354   3.684  22.606  0.00  0.00    +0.023 A 
ATOM     31  C   UNL     1      -3.311   1.743  23.596  0.00  0.00    +0.023 A 
ATOM     32  C   UNL     1      -3.510   3.574  21.501  0.00  0.00    +0.002 A 
ATOM     33  C   UNL     1      -2.466   1.633  22.492  0.00  0.00    +0.002 A 
ATOM     34  C   UNL     1      -2.565   2.549  21.445  0.00  0.00    +0.000 A 
ENDBRANCH   6  29
ENDBRANCH  23   6
ENDBRANCH  20  23
ENDBRANCH  11  16
ENDBRANCH   8  11
TORSDOF 10
ENDMDL
MODEL 2
REMARK VINA RESULT:       0.5      1.859      4.875
REMARK  Name = 56773986
REMARK  13 active torsions:
REMARK  status: ('A' for Active; 'I' for Inactive)
REMARK    1  A    between atoms: N_4  and  C_9
REMARK    2  A    between atoms: N_4  and  C_14
REMARK    3  A    between atoms: N_4  and  C_15
REMARK    4  A    between atoms: N_6  and  C_23
REMARK    5  A    between atoms: N_6  and  C_28
REMARK    6  A    between atoms: N_6  and  C_29
REMARK    7  A    between atoms: C_7  and  C_12
REMARK    8  A    between atoms: C_7  and  C_13
REMARK    9  A    between atoms: C_8  and  C_11
REMARK   10  A    between atoms: C_11  and  C_16
REMARK   11  A    between atoms: C_14  and  C_17
REMARK   12  A    between atoms: C_15  and  C_18
REMARK   13  A    between atoms: C_20  and  C_23
REMARK                            x       y       z     vdW  Elec       q    Type
REMARK                         _______ _______ _______ _____ _____    ______ ____
ROOT
ATOM      7  C   UNL     1      -0.348   1.599  24.733  0.00  0.00    -0.016 C 
ATOM      8  C   UNL     1       0.154   3.046  24.541  0.00  0.00    +0.004 C 
ATOM      9  C   UNL     1       1.063   1.136  24.313  0.00  0.00    +0.064 C 
ATOM     10  C   UNL     1       1.192   2.472  23.554  0.00  0.00    +0.024 C 
ATOM     12  C   UNL     1      -0.794   1.291  26.146  0.00  0.00    +0.013 C 
ATOM     13  C   UNL     1      -1.414   1.139  23.753  0.00  0.00    +0.013 C 
ENDROOT
BRANCH   9   4
ATOM      4  N   UNL     1       0.994   0.036  23.337  0.00  0.00    -0.285 NA
BRANCH   4  14
ATOM     14  C   UNL     1       2.008   0.247  22.304  0.00  0.00    +0.159 C 
BRANCH  14  17
ATOM      2  O   UNL     1       3.711  -1.110  23.391  0.00  0.00    -0.467 OA
ATOM     17  C   UNL     1       3.403   0.098  22.849  0.00  0.00    +0.119 A 
ATOM     21  C   UNL     1       4.481   0.950  22.922  0.00  0.00    +0.046 A 
ATOM     24  C   UNL     1       5.518   0.219  23.550  0.00  0.00    +0.041 A 
ATOM     26  C   UNL     1       5.001  -1.028  23.815  0.00  0.00    +0.195 A 
ENDBRANCH  14  17
ENDBRANCH   4  14
BRANCH   4  15
ATOM     15  C   UNL     1       1.219  -1.234  24.027  0.00  0.00    +0.159 C 
BRANCH  15  18
ATOM      3  O   UNL     1      -0.863  -2.332  23.402  0.00  0.00    -0.467 OA
ATOM     18  C   UNL     1      -0.075  -1.895  24.420  0.00  0.00    +0.119 A 
ATOM     22  C   UNL     1      -0.661  -2.167  25.635  0.00  0.00    +0.046 A 
ATOM     25  C   UNL     1      -1.887  -2.812  25.345  0.00  0.00    +0.041 A 
ATOM     27  C   UNL     1      -1.963  -2.889  23.973  0.00  0.00    +0.195 A 
ENDBRANCH  15  18
ENDBRANCH   4  15
ENDBRANCH   9   4
BRANCH   8  11
ATOM     11  C   UNL     1      -0.813   4.035  23.932  0.00  0.00    +0.063 C 
BRANCH  11  16
ATOM      1  O   UNL     1      -3.473   4.370  26.347  0.00  0.00    -0.358 OA
ATOM      5  N   UNL     1      -2.149   4.509  25.948  0.00  0.00    -0.083 NA
ATOM     16  C   UNL     1      -2.114   4.038  24.698  0.00  0.00    +0.084 A 
ATOM     19  C   UNL     1      -3.374   3.594  24.260  0.00  0.00    +0.072 A 
ATOM     20  C   UNL     1      -4.193   3.824  25.334  0.00  0.00    +0.155 A 
BRANCH  20  23
ATOM     23  C   UNL     1      -5.622   3.607  25.588  0.00  0.00    +0.181 C 
BRANCH  23   6
ATOM      6  N   UNL     1      -5.929   2.241  26.047  0.00  0.00    -0.326 N 
ATOM     28  C   UNL     1      -6.912   2.094  27.103  0.00  0.00    +0.129 C 
BRANCH   6  29
ATOM     29  C   UNL     1      -5.286   1.149  25.482  0.00  0.00    +0.030 A 
ATOM     30  C   UNL     1      -5.394   0.907  24.114  0.00  0.00    +0.023 A 
ATOM     31  C   UNL     1      -4.533   0.292  26.285  0.00  0.00    +0.023 A 
ATOM     32  C   UNL     1      -4.747  -0.191  23.546  0.00  0.00    +0.002 A 
ATOM     33  C   UNL     1      -3.886  -0.806  25.719  0.00  0.00    +0.002 A 
ATOM     34  C   UNL     1      -3.992  -1.047  24.349  0.00  0.00    +0.000 A 
ENDBRANCH   6  29
ENDBRANCH  23   6
ENDBRANCH  20  23
ENDBRANCH  11  16
ENDBRANCH   8  11
TORSDOF 10
ENDMDL
MODEL 3
REMARK VINA RESULT:       1.1      1.126      2.270
REMARK  Name = 56773986
REMARK  13 active torsions:
REMARK  status: ('A' for Active; 'I' for Inactive)
REMARK    1  A    between atoms: N_4  and  C_9
REMARK    2  A    between atoms: N_4  and  C_14
REMARK    3  A    between atoms: N_4  and  C_15
REMARK    4  A    between atoms: N_6  and  C_23
REMARK    5  A    between atoms: N_6  and  C_28
REMARK    6  A    between atoms: N_6  and  C_29
REMARK    7  A    between atoms: C_7  and  C_12
REMARK    8  A    between atoms: C_7  and  C_13
REMARK    9  A    between atoms: C_8  and  C_11
REMARK   10  A    between atoms: C_11  and  C_16
REMARK   11  A    between atoms: C_14  and  C_17
REMARK   12  A    between atoms: C_15  and  C_18
REMARK   13  A    between atoms: C_20  and  C_23
REMARK                            x       y       z     vdW  Elec       q    Type
REMARK                         _______ _______ _______ _____ _____    ______ ____
ROOT
ATOM      7  C   UNL     1      -0.446  -1.633  25.079  0.00  0.00    -0.016 C 
ATOM      8  C   UNL     1      -1.550  -1.719  26.154  0.00  0.00    +0.004 C 
ATOM      9  C   UNL     1      -0.188  -0.194  25.569  0.00  0.00    +0.064 C 
ATOM     10  C   UNL     1      -1.649  -0.181  26.064  0.00  0.00    +0.024 C 
ATOM     12  C   UNL     1       0.664  -2.646  25.265  0.00  0.00    +0.013 C 
ATOM     13  C   UNL     1      -0.928  -1.668  23.639  0.00  0.00    +0.013 C 
ENDROOT
BRANCH   9   4
ATOM      4  N   UNL     1      -0.059   0.739  24.437  0.00  0.00    -0.285 NA
BRANCH   4  14
ATOM     14  C   UNL     1      -1.102   1.760  24.536  0.00  0.00    +0.159 C 
BRANCH  14  17
ATOM      2  O   UNL     1      -1.569   2.944  22.461  0.00  0.00    -0.467 OA
ATOM     17  C   UNL     1      -1.885   1.888  23.257  0.00  0.00    +0.119 A 
ATOM     21  C   UNL     1      -2.891   1.140  22.691  0.00  0.00    +0.046 A 
ATOM     24  C   UNL     1      -3.215   1.777  21.470  0.00  0.00    +0.041 A 
ATOM     26  C   UNL     1      -2.383   2.869  21.375  0.00  0.00    +0.195 A 
ENDBRANCH  14  17
ENDBRANCH   4  14
BRANCH   4  15
ATOM     15  C   UNL     1       1.268   1.354  24.470  0.00  0.00    +0.159 C 
BRANCH  15  18
ATOM      3  O   UNL     1       3.413   1.345  23.318  0.00  0.00    -0.467 OA
ATOM     18  C   UNL     1       2.146   0.853  23.355  0.00  0.00    +0.119 A 
ATOM     22  C   UNL     1       1.941  -0.032  22.322  0.00  0.00    +0.046 A 
ATOM     25  C   UNL     1       3.159  -0.087  21.604  0.00  0.00    +0.041 A 
ATOM     27  C   UNL     1       4.023   0.768  22.249  0.00  0.00    +0.195 A 
ENDBRANCH  15  18
ENDBRANCH   4  15
ENDBRANCH   9   4
BRANCH   8  11
ATOM     11  C   UNL     1      -2.818  -2.453  25.781  0.00  0.00    +0.063 C 
BRANCH  11  16
ATOM      1  O   UNL     1      -5.287  -0.742  23.781  0.00  0.00    -0.358 OA
ATOM      5  N   UNL     1      -4.452  -1.821  24.048  0.00  0.00    -0.083 NA
ATOM     16  C   UNL     1      -3.820  -1.497  25.179  0.00  0.00    +0.084 A 
ATOM     19  C   UNL     1      -4.213  -0.239  25.668  0.00  0.00    +0.072 A 
ATOM     20  C   UNL     1      -5.136   0.193  24.753  0.00  0.00    +0.155 A 
BRANCH  20  23
ATOM     23  C   UNL     1      -5.951   1.407  24.626  0.00  0.00    +0.181 C 
BRANCH  23   6
ATOM      6  N   UNL     1      -5.649   2.419  25.654  0.00  0.00    -0.326 N 
ATOM     28  C   UNL     1      -6.499   2.457  26.827  0.00  0.00    +0.129 C 
BRANCH   6  29
ATOM     29  C   UNL     1      -4.591   3.300  25.482  0.00  0.00    +0.030 A 
ATOM     30  C   UNL     1      -4.491   4.051  24.312  0.00  0.00    +0.023 A 
ATOM     31  C   UNL     1      -3.627   3.435  26.481  0.00  0.00    +0.023 A 
ATOM     32  C   UNL     1      -3.428   4.937  24.140  0.00  0.00    +0.002 A 
ATOM     33  C   UNL     1      -2.564   4.320  26.310  0.00  0.00    +0.002 A 
ATOM     34  C   UNL     1      -2.464   5.072  25.139  0.00  0.00    +0.000 A 
ENDBRANCH   6  29
ENDBRANCH  23   6
ENDBRANCH  20  23
ENDBRANCH  11  16
ENDBRANCH   8  11
TORSDOF 10
ENDMDL
MODEL 4
REMARK VINA RESULT:       1.1      1.978      7.185
REMARK  Name = 56773986
REMARK  13 active torsions:
REMARK  status: ('A' for Active; 'I' for Inactive)
REMARK    1  A    between atoms: N_4  and  C_9
REMARK    2  A    between atoms: N_4  and  C_14
REMARK    3  A    between atoms: N_4  and  C_15
REMARK    4  A    between atoms: N_6  and  C_23
REMARK    5  A    between atoms: N_6  and  C_28
REMARK    6  A    between atoms: N_6  and  C_29
REMARK    7  A    between atoms: C_7  and  C_12
REMARK    8  A    between atoms: C_7  and  C_13
REMARK    9  A    between atoms: C_8  and  C_11
REMARK   10  A    between atoms: C_11  and  C_16
REMARK   11  A    between atoms: C_14  and  C_17
REMARK   12  A    between atoms: C_15  and  C_18
REMARK   13  A    between atoms: C_20  and  C_23
REMARK                            x       y       z     vdW  Elec       q    Type
REMARK                         _______ _______ _______ _____ _____    ______ ____
ROOT
ATOM      7  C   UNL     1      -1.694   4.207  24.865  0.00  0.00    -0.016 C 
ATOM      8  C   UNL     1      -1.544   3.461  26.207  0.00  0.00    +0.004 C 
ATOM      9  C   UNL     1      -3.120   3.623  24.787  0.00  0.00    +0.064 C 
ATOM     10  C   UNL     1      -2.618   2.479  25.692  0.00  0.00    +0.024 C 
ATOM     12  C   UNL     1      -1.560   5.710  24.986  0.00  0.00    +0.013 C 
ATOM     13  C   UNL     1      -0.811   3.708  23.734  0.00  0.00    +0.013 C 
ENDROOT
BRANCH   9   4
ATOM      4  N   UNL     1      -3.402   3.083  23.447  0.00  0.00    -0.285 NA
BRANCH   4  14
ATOM     14  C   UNL     1      -2.553   1.916  23.211  0.00  0.00    +0.159 C 
BRANCH  14  17
ATOM      2  O   UNL     1      -3.205   0.392  24.994  0.00  0.00    -0.467 OA
ATOM     17  C   UNL     1      -3.216   0.640  23.658  0.00  0.00    +0.119 A 
ATOM     21  C   UNL     1      -3.858  -0.373  22.983  0.00  0.00    +0.046 A 
ATOM     24  C   UNL     1      -4.268  -1.303  23.969  0.00  0.00    +0.041 A 
ATOM     26  C   UNL     1      -3.847  -0.792  25.175  0.00  0.00    +0.195 A 
ENDBRANCH  14  17
ENDBRANCH   4  14
BRANCH   4  15
ATOM     15  C   UNL     1      -4.816   2.716  23.365  0.00  0.00    +0.159 C 
BRANCH  15  18
ATOM      3  O   UNL     1      -6.127   1.474  24.998  0.00  0.00    -0.467 OA
ATOM     18  C   UNL     1      -5.451   2.621  24.727  0.00  0.00    +0.119 A 
ATOM     22  C   UNL     1      -5.498   3.477  25.803  0.00  0.00    +0.046 A 
ATOM     25  C   UNL     1      -6.253   2.813  26.800  0.00  0.00    +0.041 A 
ATOM     27  C   UNL     1      -6.612   1.598  26.262  0.00  0.00    +0.195 A 
ENDBRANCH  15  18
ENDBRANCH   4  15
ENDBRANCH   9   4
BRANCH   8  11
ATOM     11  C   UNL     1      -0.202   2.829  26.497  0.00  0.00    +0.063 C 
BRANCH  11  16
ATOM      1  O   UNL     1      -0.338  -0.635  25.494  0.00  0.00    -0.358 OA
ATOM      5  N   UNL     1      -0.608   0.401  26.381  0.00  0.00    -0.083 NA
ATOM     16  C   UNL     1      -0.091   1.491  25.806  0.00  0.00    +0.084 A 
ATOM     19  C   UNL     1       0.510   1.207  24.568  0.00  0.00    +0.072 A 
ATOM     20  C   UNL     1       0.328  -0.143  24.419  0.00  0.00    +0.155 A 
BRANCH  20  23
ATOM     23  C   UNL     1       0.694  -1.109  23.376  0.00  0.00    +0.181 C 
BRANCH  23   6
ATOM      6  N   UNL     1       1.743  -0.613  22.467  0.00  0.00    -0.326 N 
ATOM     28  C   UNL     1       1.372  -0.369  21.087  0.00  0.00    +0.129 C 
BRANCH   6  29
ATOM     29  C   UNL     1       3.033  -0.403  22.931  0.00  0.00    +0.030 A 
ATOM     30  C   UNL     1       3.708  -1.422  23.601  0.00  0.00    +0.023 A 
ATOM     31  C   UNL     1       3.654   0.830  22.728  0.00  0.00    +0.023 A 
ATOM     32  C   UNL     1       5.005  -1.210  24.067  0.00  0.00    +0.002 A 
ATOM     33  C   UNL     1       4.951   1.043  23.194  0.00  0.00    +0.002 A 
ATOM     34  C   UNL     1       5.627   0.022  23.864  0.00  0.00    +0.000 A 
ENDBRANCH   6  29
ENDBRANCH  23   6
ENDBRANCH  20  23
ENDBRANCH  11  16
ENDBRANCH   8  11
TORSDOF 10
ENDMDL
MODEL 5
REMARK VINA RESULT:       1.2      1.779      6.520
REMARK  Name = 56773986
REMARK  13 active torsions:
REMARK  status: ('A' for Active; 'I' for Inactive)
REMARK    1  A    between atoms: N_4  and  C_9
REMARK    2  A    between atoms: N_4  and  C_14
REMARK    3  A    between atoms: N_4  and  C_15
REMARK    4  A    between atoms: N_6  and  C_23
REMARK    5  A    between atoms: N_6  and  C_28
REMARK    6  A    between atoms: N_6  and  C_29
REMARK    7  A    between atoms: C_7  and  C_12
REMARK    8  A    between atoms: C_7  and  C_13
REMARK    9  A    between atoms: C_8  and  C_11
REMARK   10  A    between atoms: C_11  and  C_16
REMARK   11  A    between atoms: C_14  and  C_17
REMARK   12  A    between atoms: C_15  and  C_18
REMARK   13  A    between atoms: C_20  and  C_23
REMARK                            x       y       z     vdW  Elec       q    Type
REMARK                         _______ _______ _______ _____ _____    ______ ____
ROOT
ATOM      7  C   UNL     1      -3.496  -1.433  25.984  0.00  0.00    -0.016 C 
ATOM      8  C   UNL     1      -3.563  -2.493  24.864  0.00  0.00    +0.004 C 
ATOM      9  C   UNL     1      -4.500  -0.605  25.156  0.00  0.00    +0.064 C 
ATOM     10  C   UNL     1      -3.969  -1.348  23.912  0.00  0.00    +0.024 C 
ATOM     12  C   UNL     1      -3.955  -1.943  27.334  0.00  0.00    +0.013 C 
ATOM     13  C   UNL     1      -2.161  -0.724  26.137  0.00  0.00    +0.013 C 
ENDROOT
BRANCH   9   4
ATOM      4  N   UNL     1      -4.091   0.807  25.079  0.00  0.00    -0.285 NA
BRANCH   4  14
ATOM     14  C   UNL     1      -3.344   1.024  23.841  0.00  0.00    +0.159 C 
BRANCH  14  17
ATOM      2  O   UNL     1      -1.517   1.897  25.192  0.00  0.00    -0.467 OA
ATOM     17  C   UNL     1      -2.215   2.002  24.030  0.00  0.00    +0.119 A 
ATOM     21  C   UNL     1      -1.713   3.021  23.254  0.00  0.00    +0.046 A 
ATOM     24  C   UNL     1      -0.637   3.578  23.986  0.00  0.00    +0.041 A 
ATOM     26  C   UNL     1      -0.558   2.860  25.157  0.00  0.00    +0.195 A 
ENDBRANCH  14  17
ENDBRANCH   4  14
BRANCH   4  15
ATOM     15  C   UNL     1      -5.283   1.655  25.117  0.00  0.00    +0.159 C 
BRANCH  15  18
ATOM      3  O   UNL     1      -3.835   3.220  26.294  0.00  0.00    -0.467 OA
ATOM     18  C   UNL     1      -4.957   3.062  25.542  0.00  0.00    +0.119 A 
ATOM     22  C   UNL     1      -5.570   4.275  25.328  0.00  0.00    +0.046 A 
ATOM     25  C   UNL     1      -4.774   5.240  25.990  0.00  0.00    +0.041 A 
ATOM     27  C   UNL     1      -3.731   4.548  26.563  0.00  0.00    +0.195 A 
ENDBRANCH  15  18
ENDBRANCH   4  15
ENDBRANCH   9   4
BRANCH   8  11
ATOM     11  C   UNL     1      -2.273  -3.188  24.496  0.00  0.00    +0.063 C 
BRANCH  11  16
ATOM      1  O   UNL     1       0.646  -1.112  24.939  0.00  0.00    -0.358 OA
ATOM      5  N   UNL     1      -0.223  -2.117  25.349  0.00  0.00    -0.083 NA
ATOM     16  C   UNL     1      -1.148  -2.186  24.387  0.00  0.00    +0.084 A 
ATOM     19  C   UNL     1      -0.916  -1.259  23.356  0.00  0.00    +0.072 A 
ATOM     20  C   UNL     1       0.223  -0.609  23.752  0.00  0.00    +0.155 A 
BRANCH  20  23
ATOM     23  C   UNL     1       1.032   0.468  23.171  0.00  0.00    +0.181 C 
BRANCH  23   6
ATOM      6  N   UNL     1       2.172  -0.024  22.378  0.00  0.00    -0.326 N 
ATOM     28  C   UNL     1       1.919  -0.394  20.999  0.00  0.00    +0.129 C 
BRANCH   6  29
ATOM     29  C   UNL     1       3.432  -0.130  22.949  0.00  0.00    +0.030 A 
ATOM     30  C   UNL     1       4.295   0.964  22.942  0.00  0.00    +0.023 A 
ATOM     31  C   UNL     1       3.834  -1.333  23.530  0.00  0.00    +0.023 A 
ATOM     32  C   UNL     1       5.562   0.857  23.517  0.00  0.00    +0.002 A 
ATOM     33  C   UNL     1       5.100  -1.441  24.105  0.00  0.00    +0.002 A 
ATOM     34  C   UNL     1       5.964  -0.345  24.099  0.00  0.00    +0.000 A 
ENDBRANCH   6  29
ENDBRANCH  23   6
ENDBRANCH  20  23
ENDBRANCH  11  16
ENDBRANCH   8  11
TORSDOF 10
ENDMDL
MODEL 6
REMARK VINA RESULT:       1.7      1.614      3.311
REMARK  Name = 56773986
REMARK  13 active torsions:
REMARK  status: ('A' for Active; 'I' for Inactive)
REMARK    1  A    between atoms: N_4  and  C_9
REMARK    2  A    between atoms: N_4  and  C_14
REMARK    3  A    between atoms: N_4  and  C_15
REMARK    4  A    between atoms: N_6  and  C_23
REMARK    5  A    between atoms: N_6  and  C_28
REMARK    6  A    between atoms: N_6  and  C_29
REMARK    7  A    between atoms: C_7  and  C_12
REMARK    8  A    between atoms: C_7  and  C_13
REMARK    9  A    between atoms: C_8  and  C_11
REMARK   10  A    between atoms: C_11  and  C_16
REMARK   11  A    between atoms: C_14  and  C_17
REMARK   12  A    between atoms: C_15  and  C_18
REMARK   13  A    between atoms: C_20  and  C_23
REMARK                            x       y       z     vdW  Elec       q    Type
REMARK                         _______ _______ _______ _____ _____    ______ ____
ROOT
ATOM      7  C   UNL     1      -3.338  -1.757  24.338  0.00  0.00    -0.016 C 
ATOM      8  C   UNL     1      -4.188  -1.011  25.389  0.00  0.00    +0.004 C 
ATOM      9  C   UNL     1      -2.100  -1.105  24.988  0.00  0.00    +0.064 C 
ATOM     10  C   UNL     1      -3.041   0.019  25.471  0.00  0.00    +0.024 C 
ATOM     12  C   UNL     1      -3.458  -3.264  24.418  0.00  0.00    +0.013 C 
ATOM     13  C   UNL     1      -3.531  -1.307  22.900  0.00  0.00    +0.013 C 
ENDROOT
BRANCH   9   4
ATOM      4  N   UNL     1      -1.189  -0.559  23.969  0.00  0.00    -0.285 NA
BRANCH   4  14
ATOM     14  C   UNL     1      -1.114   0.894  24.120  0.00  0.00    +0.159 C 
BRANCH  14  17
ATOM      2  O   UNL     1      -2.816   2.533  23.535  0.00  0.00    -0.467 OA
ATOM     17  C   UNL     1      -1.931   1.608  23.077  0.00  0.00    +0.119 A 
ATOM     21  C   UNL     1      -1.982   1.530  21.704  0.00  0.00    +0.046 A 
ATOM     24  C   UNL     1      -2.960   2.466  21.293  0.00  0.00    +0.041 A 
ATOM     26  C   UNL     1      -3.438   3.051  22.443  0.00  0.00    +0.195 A 
ENDBRANCH  14  17
ENDBRANCH   4  14
BRANCH   4  15
ATOM     15  C   UNL     1       0.134  -1.162  24.135  0.00  0.00    +0.159 C 
BRANCH  15  18
ATOM      3  O   UNL     1       2.137   0.148  23.692  0.00  0.00    -0.467 OA
ATOM     18  C   UNL     1       1.134  -0.599  23.161  0.00  0.00    +0.119 A 
ATOM     22  C   UNL     1       1.261  -0.678  21.793  0.00  0.00    +0.046 A 
ATOM     25  C   UNL     1       2.417   0.069  21.462  0.00  0.00    +0.041 A 
ATOM     27  C   UNL     1       2.914   0.551  22.652  0.00  0.00    +0.195 A 
ENDBRANCH  15  18
ENDBRANCH   4  15
ENDBRANCH   9   4
BRANCH   8  11
ATOM     11  C   UNL     1      -5.510  -0.443  24.928  0.00  0.00    +0.063 C 
BRANCH  11  16
ATOM      1  O   UNL     1      -6.326   3.067  25.120  0.00  0.00    -0.358 OA
ATOM      5  N   UNL     1      -6.614   1.754  24.765  0.00  0.00    -0.083 NA
ATOM     16  C   UNL     1      -5.548   1.050  25.154  0.00  0.00    +0.084 A 
ATOM     19  C   UNL     1      -4.566   1.856  25.756  0.00  0.00    +0.072 A 
ATOM     20  C   UNL     1      -5.104   3.115  25.709  0.00  0.00    +0.155 A 
BRANCH  20  23
ATOM     23  C   UNL     1      -4.640   4.435  26.150  0.00  0.00    +0.181 C 
BRANCH  23   6
ATOM      6  N   UNL     1      -3.334   4.395  26.830  0.00  0.00    -0.326 N 
ATOM     28  C   UNL     1      -3.333   4.413  28.280  0.00  0.00    +0.129 C 
BRANCH   6  29
ATOM     29  C   UNL     1      -2.159   4.351  26.094  0.00  0.00    +0.030 A 
ATOM     30  C   UNL     1      -1.241   3.323  26.306  0.00  0.00    +0.023 A 
ATOM     31  C   UNL     1      -1.897   5.335  25.141  0.00  0.00    +0.023 A 
ATOM     32  C   UNL     1      -0.060   3.279  25.566  0.00  0.00    +0.002 A 
ATOM     33  C   UNL     1      -0.716   5.291  24.400  0.00  0.00    +0.002 A 
ATOM     34  C   UNL     1       0.202   4.263  24.612  0.00  0.00    +0.000 A 
ENDBRANCH   6  29
ENDBRANCH  23   6
ENDBRANCH  20  23
ENDBRANCH  11  16
ENDBRANCH   8  11
TORSDOF 10
ENDMDL
MODEL 7
REMARK VINA RESULT:       2.1      1.828      6.269
REMARK  Name = 56773986
REMARK  13 active torsions:
REMARK  status: ('A' for Active; 'I' for Inactive)
REMARK    1  A    between atoms: N_4  and  C_9
REMARK    2  A    between atoms: N_4  and  C_14
REMARK    3  A    between atoms: N_4  and  C_15
REMARK    4  A    between atoms: N_6  and  C_23
REMARK    5  A    between atoms: N_6  and  C_28
REMARK    6  A    between atoms: N_6  and  C_29
REMARK    7  A    between atoms: C_7  and  C_12
REMARK    8  A    between atoms: C_7  and  C_13
REMARK    9  A    between atoms: C_8  and  C_11
REMARK   10  A    between atoms: C_11  and  C_16
REMARK   11  A    between atoms: C_14  and  C_17
REMARK   12  A    between atoms: C_15  and  C_18
REMARK   13  A    between atoms: C_20  and  C_23
REMARK                            x       y       z     vdW  Elec       q    Type
REMARK                         _______ _______ _______ _____ _____    ______ ____
ROOT
ATOM      7  C   UNL     1      -3.527  -0.858  25.563  0.00  0.00    -0.016 C 
ATOM      8  C   UNL     1      -3.643  -2.095  24.647  0.00  0.00    +0.004 C 
ATOM      9  C   UNL     1      -4.335  -0.089  24.497  0.00  0.00    +0.064 C 
ATOM     10  C   UNL     1      -3.806  -1.111  23.469  0.00  0.00    +0.024 C 
ATOM     12  C   UNL     1      -4.165  -1.046  26.923  0.00  0.00    +0.013 C 
ATOM     13  C   UNL     1      -2.126  -0.296  25.733  0.00  0.00    +0.013 C 
ENDROOT
BRANCH   9   4
ATOM      4  N   UNL     1      -3.731   1.225  24.217  0.00  0.00    -0.285 NA
BRANCH   4  14
ATOM     14  C   UNL     1      -4.746   2.106  23.640  0.00  0.00    +0.159 C 
BRANCH  14  17
ATOM      2  O   UNL     1      -5.183   4.310  24.575  0.00  0.00    -0.467 OA
ATOM     17  C   UNL     1      -5.397   2.972  24.684  0.00  0.00    +0.119 A 
ATOM     21  C   UNL     1      -6.195   2.698  25.772  0.00  0.00    +0.046 A 
ATOM     24  C   UNL     1      -6.489   3.947  26.368  0.00  0.00    +0.041 A 
ATOM     26  C   UNL     1      -5.852   4.896  25.603  0.00  0.00    +0.195 A 
ENDBRANCH  14  17
ENDBRANCH   4  14
BRANCH   4  15
ATOM     15  C   UNL     1      -3.209   1.788  25.462  0.00  0.00    +0.159 C 
BRANCH  15  18
ATOM      3  O   UNL     1      -1.252   2.616  24.272  0.00  0.00    -0.467 OA
ATOM     18  C   UNL     1      -2.205   2.881  25.205  0.00  0.00    +0.119 A 
ATOM     22  C   UNL     1      -2.034   4.142  25.728  0.00  0.00    +0.046 A 
ATOM     25  C   UNL     1      -0.902   4.687  25.075  0.00  0.00    +0.041 A 
ATOM     27  C   UNL     1      -0.463   3.721  24.199  0.00  0.00    +0.195 A 
ENDBRANCH  15  18
ENDBRANCH   4  15
ENDBRANCH   9   4
BRANCH   8  11
ATOM     11  C   UNL     1      -2.433  -2.995  24.550  0.00  0.00    +0.063 C 
BRANCH  11  16
ATOM      1  O   UNL     1       0.870  -1.561  24.779  0.00  0.00    -0.358 OA
ATOM      5  N   UNL     1      -0.087  -2.508  25.126  0.00  0.00    -0.083 NA
ATOM     16  C   UNL     1      -1.174  -2.172  24.425  0.00  0.00    +0.084 A 
ATOM     19  C   UNL     1      -0.964  -1.034  23.627  0.00  0.00    +0.072 A 
ATOM     20  C   UNL     1       0.336  -0.689  23.886  0.00  0.00    +0.155 A 
BRANCH  20  23
ATOM     23  C   UNL     1       1.218   0.384  23.411  0.00  0.00    +0.181 C 
BRANCH  23   6
ATOM      6  N   UNL     1       2.317  -0.102  22.559  0.00  0.00    -0.326 N 
ATOM     28  C   UNL     1       1.998  -0.457  21.189  0.00  0.00    +0.129 C 
BRANCH   6  29
ATOM     29  C   UNL     1       3.602  -0.217  23.068  0.00  0.00    +0.030 A 
ATOM     30  C   UNL     1       4.026  -1.423  23.625  0.00  0.00    +0.023 A 
ATOM     31  C   UNL     1       4.470   0.874  23.024  0.00  0.00    +0.023 A 
ATOM     32  C   UNL     1       5.319  -1.538  24.137  0.00  0.00    +0.002 A 
ATOM     33  C   UNL     1       5.762   0.760  23.536  0.00  0.00    +0.002 A 
ATOM     34  C   UNL     1       6.187  -0.447  24.092  0.00  0.00    +0.000 A 
ENDBRANCH   6  29
ENDBRANCH  23   6
ENDBRANCH  20  23
ENDBRANCH  11  16
ENDBRANCH   8  11
TORSDOF 10
ENDMDL
MODEL 8
REMARK VINA RESULT:       2.6      1.897      6.707
REMARK  Name = 56773986
REMARK  13 active torsions:
REMARK  status: ('A' for Active; 'I' for Inactive)
REMARK    1  A    between atoms: N_4  and  C_9
REMARK    2  A    between atoms: N_4  and  C_14
REMARK    3  A    between atoms: N_4  and  C_15
REMARK    4  A    between atoms: N_6  and  C_23
REMARK    5  A    between atoms: N_6  and  C_28
REMARK    6  A    between atoms: N_6  and  C_29
REMARK    7  A    between atoms: C_7  and  C_12
REMARK    8  A    between atoms: C_7  and  C_13
REMARK    9  A    between atoms: C_8  and  C_11
REMARK   10  A    between atoms: C_11  and  C_16
REMARK   11  A    between atoms: C_14  and  C_17
REMARK   12  A    between atoms: C_15  and  C_18
REMARK   13  A    between atoms: C_20  and  C_23
REMARK                            x       y       z     vdW  Elec       q    Type
REMARK                         _______ _______ _______ _____ _____    ______ ____
ROOT
ATOM      7  C   UNL     1      -4.751   0.081  24.445  0.00  0.00    -0.016 C 
ATOM      8  C   UNL     1      -4.256  -1.136  23.634  0.00  0.00    +0.004 C 
ATOM      9  C   UNL     1      -4.117   0.968  23.353  0.00  0.00    +0.064 C 
ATOM     10  C   UNL     1      -3.166  -0.209  23.056  0.00  0.00    +0.024 C 
ATOM     12  C   UNL     1      -6.255   0.135  24.604  0.00  0.00    +0.013 C 
ATOM     13  C   UNL     1      -4.089   0.281  25.797  0.00  0.00    +0.013 C 
ENDROOT
BRANCH   9   4
ATOM      4  N   UNL     1      -3.342   2.071  23.946  0.00  0.00    -0.285 NA
BRANCH   4  14
ATOM     14  C   UNL     1      -1.954   1.978  23.495  0.00  0.00    +0.159 C 
BRANCH  14  17
ATOM      2  O   UNL     1      -0.787   1.611  25.599  0.00  0.00    -0.467 OA
ATOM     17  C   UNL     1      -0.989   2.450  24.549  0.00  0.00    +0.119 A 
ATOM     21  C   UNL     1      -0.233   3.592  24.690  0.00  0.00    +0.046 A 
ATOM     24  C   UNL     1       0.478   3.445  25.905  0.00  0.00    +0.041 A 
ATOM     26  C   UNL     1       0.108   2.224  26.420  0.00  0.00    +0.195 A 
ENDBRANCH  14  17
ENDBRANCH   4  14
BRANCH   4  15
ATOM     15  C   UNL     1      -3.932   3.346  23.539  0.00  0.00    +0.159 C 
BRANCH  15  18
ATOM      3  O   UNL     1      -5.294   5.161  24.420  0.00  0.00    -0.467 OA
ATOM     18  C   UNL     1      -4.903   3.867  24.564  0.00  0.00    +0.119 A 
ATOM     22  C   UNL     1      -5.509   3.298  25.660  0.00  0.00    +0.046 A 
ATOM     25  C   UNL     1      -6.325   4.307  26.227  0.00  0.00    +0.041 A 
ATOM     27  C   UNL     1      -6.159   5.421  25.436  0.00  0.00    +0.195 A 
ENDBRANCH  15  18
ENDBRANCH   4  15
ENDBRANCH   9   4
BRANCH   8  11
ATOM     11  C   UNL     1      -3.727  -2.316  24.417  0.00  0.00    +0.063 C 
BRANCH  11  16
ATOM      1  O   UNL     1      -0.547  -1.623  25.975  0.00  0.00    -0.358 OA
ATOM      5  N   UNL     1      -1.934  -1.714  25.997  0.00  0.00    -0.083 NA
ATOM     16  C   UNL     1      -2.273  -2.106  24.765  0.00  0.00    +0.084 A 
ATOM     19  C   UNL     1      -1.154  -2.276  23.932  0.00  0.00    +0.072 A 
ATOM     20  C   UNL     1      -0.094  -1.959  24.740  0.00  0.00    +0.155 A 
BRANCH  20  23
ATOM     23  C   UNL     1       1.359  -1.916  24.541  0.00  0.00    +0.181 C 
BRANCH  23   6
ATOM      6  N   UNL     1       1.784  -0.875  23.589  0.00  0.00    -0.326 N 
ATOM     28  C   UNL     1       0.758  -0.250  22.777  0.00  0.00    +0.129 C 
BRANCH   6  29
ATOM     29  C   UNL     1       3.122  -0.526  23.482  0.00  0.00    +0.030 A 
ATOM     30  C   UNL     1       4.110  -1.400  23.936  0.00  0.00    +0.023 A 
ATOM     31  C   UNL     1       3.480   0.699  22.919  0.00  0.00    +0.023 A 
ATOM     32  C   UNL     1       5.455  -1.048  23.829  0.00  0.00    +0.002 A 
ATOM     33  C   UNL     1       4.825   1.051  22.811  0.00  0.00    +0.002 A 
ATOM     34  C   UNL     1       5.813   0.177  23.265  0.00  0.00    +0.000 A 
ENDBRANCH   6  29
ENDBRANCH  23   6
ENDBRANCH  20  23
ENDBRANCH  11  16
ENDBRANCH   8  11
TORSDOF 10
ENDMDL
MODEL 9
REMARK VINA RESULT:       3.0      1.851      4.255
REMARK  Name = 56773986
REMARK  13 active torsions:
REMARK  status: ('A' for Active; 'I' for Inactive)
REMARK    1  A    between atoms: N_4  and  C_9
REMARK    2  A    between atoms: N_4  and  C_14
REMARK    3  A    between atoms: N_4  and  C_15
REMARK    4  A    between atoms: N_6  and  C_23
REMARK    5  A    between atoms: N_6  and  C_28
REMARK    6  A    between atoms: N_6  and  C_29
REMARK    7  A    between atoms: C_7  and  C_12
REMARK    8  A    between atoms: C_7  and  C_13
REMARK    9  A    between atoms: C_8  and  C_11
REMARK   10  A    between atoms: C_11  and  C_16
REMARK   11  A    between atoms: C_14  and  C_17
REMARK   12  A    between atoms: C_15  and  C_18
REMARK   13  A    between atoms: C_20  and  C_23
REMARK                            x       y       z     vdW  Elec       q    Type
REMARK                         _______ _______ _______ _____ _____    ______ ____
ROOT
ATOM      7  C   UNL     1      -0.226   2.242  25.055  0.00  0.00    -0.016 C 
ATOM      8  C   UNL     1      -0.039   3.622  24.390  0.00  0.00    +0.004 C 
ATOM      9  C   UNL     1       1.187   1.890  24.547  0.00  0.00    +0.064 C 
ATOM     10  C   UNL     1       0.967   2.940  23.438  0.00  0.00    +0.024 C 
ATOM     12  C   UNL     1      -0.435   2.311  26.553  0.00  0.00    +0.013 C 
ATOM     13  C   UNL     1      -1.292   1.355  24.435  0.00  0.00    +0.013 C 
ENDROOT
BRANCH   9   4
ATOM      4  N   UNL     1       1.217   0.550  23.937  0.00  0.00    -0.285 NA
BRANCH   4  14
ATOM     14  C   UNL     1      -0.143   0.165  23.560  0.00  0.00    +0.159 C 
BRANCH  14  17
ATOM      2  O   UNL     1      -1.220  -2.007  23.336  0.00  0.00    -0.467 OA
ATOM     17  C   UNL     1      -0.534  -1.163  24.152  0.00  0.00    +0.119 A 
ATOM     21  C   UNL     1      -0.342  -1.736  25.388  0.00  0.00    +0.046 A 
ATOM     24  C   UNL     1      -0.949  -3.012  25.328  0.00  0.00    +0.041 A 
ATOM     26  C   UNL     1      -1.468  -3.131  24.060  0.00  0.00    +0.195 A 
ENDBRANCH  14  17
ENDBRANCH   4  14
BRANCH   4  15
ATOM     15  C   UNL     1       2.089   0.576  22.763  0.00  0.00    +0.159 C 
BRANCH  15  18
ATOM      3  O   UNL     1       3.675  -1.085  23.571  0.00  0.00    -0.467 OA
ATOM     18  C   UNL     1       3.501   0.180  23.105  0.00  0.00    +0.119 A 
ATOM     22  C   UNL     1       4.704   0.843  23.044  0.00  0.00    +0.046 A 
ATOM     25  C   UNL     1       5.681  -0.072  23.504  0.00  0.00    +0.041 A 
ATOM     27  C   UNL     1       5.005  -1.230  23.813  0.00  0.00    +0.195 A 
ENDBRANCH  15  18
ENDBRANCH   4  15
ENDBRANCH   9   4
BRANCH   8  11
ATOM     11  C   UNL     1      -1.243   4.225  23.705  0.00  0.00    +0.063 C 
BRANCH  11  16
ATOM      1  O   UNL     1      -3.717   4.147  26.330  0.00  0.00    -0.358 OA
ATOM      5  N   UNL     1      -2.444   4.428  25.847  0.00  0.00    -0.083 NA
ATOM     16  C   UNL     1      -2.474   4.060  24.563  0.00  0.00    +0.084 A 
ATOM     19  C   UNL     1      -3.726   3.546  24.184  0.00  0.00    +0.072 A 
ATOM     20  C   UNL     1      -4.471   3.622  25.331  0.00  0.00    +0.155 A 
BRANCH  20  23
ATOM     23  C   UNL     1      -5.853   3.266  25.670  0.00  0.00    +0.181 C 
BRANCH  23   6
ATOM      6  N   UNL     1      -5.991   1.889  26.177  0.00  0.00    -0.326 N 
ATOM     28  C   UNL     1      -6.882   1.675  27.301  0.00  0.00    +0.129 C 
BRANCH   6  29
ATOM     29  C   UNL     1      -5.279   0.852  25.594  0.00  0.00    +0.030 A 
ATOM     30  C   UNL     1      -5.378   0.624  24.222  0.00  0.00    +0.023 A 
ATOM     31  C   UNL     1      -4.466   0.035  26.380  0.00  0.00    +0.023 A 
ATOM     32  C   UNL     1      -4.662  -0.420  23.635  0.00  0.00    +0.002 A 
ATOM     33  C   UNL     1      -3.751  -1.009  25.794  0.00  0.00    +0.002 A 
ATOM     34  C   UNL     1      -3.848  -1.236  24.421  0.00  0.00    +0.000 A 
ENDBRANCH   6  29
ENDBRANCH  23   6
ENDBRANCH  20  23
ENDBRANCH  11  16
ENDBRANCH   8  11
TORSDOF 10
ENDMDL
MODEL 10
REMARK VINA RESULT:       3.3      1.874      5.866
REMARK  Name = 56773986
REMARK  13 active torsions:
REMARK  status: ('A' for Active; 'I' for Inactive)
REMARK    1  A    between atoms: N_4  and  C_9
REMARK    2  A    between atoms: N_4  and  C_14
REMARK    3  A    between atoms: N_4  and  C_15
REMARK    4  A    between atoms: N_6  and  C_23
REMARK    5  A    between atoms: N_6  and  C_28
REMARK    6  A    between atoms: N_6  and  C_29
REMARK    7  A    between atoms: C_7  and  C_12
REMARK    8  A    between atoms: C_7  and  C_13
REMARK    9  A    between atoms: C_8  and  C_11
REMARK   10  A    between atoms: C_11  and  C_16
REMARK   11  A    between atoms: C_14  and  C_17
REMARK   12  A    between atoms: C_15  and  C_18
REMARK   13  A    between atoms: C_20  and  C_23
REMARK                            x       y       z     vdW  Elec       q    Type
REMARK                         _______ _______ _______ _____ _____    ______ ____
ROOT
ATOM      7  C   UNL     1      -3.057  -2.251  25.072  0.00  0.00    -0.016 C 
ATOM      8  C   UNL     1      -2.115  -2.363  23.854  0.00  0.00    +0.004 C 
ATOM      9  C   UNL     1      -3.912  -1.286  24.225  0.00  0.00    +0.064 C 
ATOM     10  C   UNL     1      -2.629  -0.972  23.427  0.00  0.00    +0.024 C 
ATOM     12  C   UNL     1      -3.684  -3.567  25.479  0.00  0.00    +0.013 C 
ATOM     13  C   UNL     1      -2.469  -1.569  26.295  0.00  0.00    +0.013 C 
ENDROOT
BRANCH   9   4
ATOM      4  N   UNL     1      -4.295  -0.094  25.001  0.00  0.00    -0.285 NA
BRANCH   4  14
ATOM     14  C   UNL     1      -3.194   0.868  24.978  0.00  0.00    +0.159 C 
BRANCH  14  17
ATOM      2  O   UNL     1      -3.697   2.804  23.590  0.00  0.00    -0.467 OA
ATOM     17  C   UNL     1      -3.101   1.584  23.657  0.00  0.00    +0.119 A 
ATOM     21  C   UNL     1      -2.521   1.262  22.451  0.00  0.00    +0.046 A 
ATOM     24  C   UNL     1      -2.778   2.354  21.588  0.00  0.00    +0.041 A 
ATOM     26  C   UNL     1      -3.495   3.266  22.328  0.00  0.00    +0.195 A 
ENDBRANCH  14  17
ENDBRANCH   4  14
BRANCH   4  15
ATOM     15  C   UNL     1      -5.502   0.491  24.416  0.00  0.00    +0.159 C 
BRANCH  15  18
ATOM      3  O   UNL     1      -6.083   1.684  26.458  0.00  0.00    -0.467 OA
ATOM     18  C   UNL     1      -5.901   1.765  25.113  0.00  0.00    +0.119 A 
ATOM     22  C   UNL     1      -6.131   3.047  24.670  0.00  0.00    +0.046 A 
ATOM     25  C   UNL     1      -6.477   3.803  25.815  0.00  0.00    +0.041 A 
ATOM     27  C   UNL     1      -6.434   2.929  26.878  0.00  0.00    +0.195 A 
ENDBRANCH  15  18
ENDBRANCH   4  15
ENDBRANCH   9   4
BRANCH   8  11
ATOM     11  C   UNL     1      -0.631  -2.426  24.135  0.00  0.00    +0.063 C 
BRANCH  11  16
ATOM      1  O   UNL     1       1.194   0.516  23.118  0.00  0.00    -0.358 OA
ATOM      5  N   UNL     1       0.813  -0.811  22.959  0.00  0.00    -0.083 NA
ATOM     16  C   UNL     1      -0.010  -1.058  23.983  0.00  0.00    +0.084 A 
ATOM     19  C   UNL     1      -0.184   0.065  24.811  0.00  0.00    +0.072 A 
ATOM     20  C   UNL     1       0.595   1.027  24.223  0.00  0.00    +0.155 A 
BRANCH  20  23
ATOM     23  C   UNL     1       0.890   2.429  24.540  0.00  0.00    +0.181 C 
BRANCH  23   6
ATOM      6  N   UNL     1       0.229   2.898  25.771  0.00  0.00    -0.326 N 
ATOM     28  C   UNL     1       0.766   2.438  27.037  0.00  0.00    +0.129 C 
BRANCH   6  29
ATOM     29  C   UNL     1      -0.870   3.741  25.700  0.00  0.00    +0.030 A 
ATOM     30  C   UNL     1      -1.997   3.484  26.478  0.00  0.00    +0.023 A 
ATOM     31  C   UNL     1      -0.846   4.847  24.850  0.00  0.00    +0.023 A 
ATOM     32  C   UNL     1      -3.102   4.333  26.407  0.00  0.00    +0.002 A 
ATOM     33  C   UNL     1      -1.951   5.695  24.778  0.00  0.00    +0.002 A 
ATOM     34  C   UNL     1      -3.079   5.438  25.557  0.00  0.00    +0.000 A 
ENDBRANCH   6  29
ENDBRANCH  23   6
ENDBRANCH  20  23
ENDBRANCH  11  16
ENDBRANCH   8  11
TORSDOF 10
ENDMDL
