MODEL 1
REMARK VINA RESULT:      10.8      0.000      0.000
REMARK  Name = 11882600
REMARK  11 active torsions:
REMARK  status: ('A' for Active; 'I' for Inactive)
REMARK    1  A    between atoms: S_1  and  N_8
REMARK    2  A    between atoms: S_1  and  C_28
REMARK    3  A    between atoms: O_7  and  C_35
REMARK    4  A    between atoms: O_7  and  C_40
REMARK    5  A    between atoms: N_9  and  C_25
REMARK    6  A    between atoms: N_10  and  C_19
REMARK    7  A    between atoms: C_13  and  C_17
REMARK    8  A    between atoms: C_14  and  C_26
REMARK    9  A    between atoms: C_17  and  C_25
REMARK   10  A    between atoms: C_25  and  C_27
REMARK   11  A    between atoms: C_29  and  C_32
REMARK                            x       y       z     vdW  Elec       q    Type
REMARK                         _______ _______ _______ _____ _____    ______ ____
ROOT
ATOM      8  N   UNL     1      -2.081   2.718  25.112  0.00  0.00    -0.165 NA
ATOM     14  C   UNL     1      -1.891   2.492  23.653  0.00  0.00    +0.167 C 
ATOM     18  C   UNL     1      -0.570   1.788  23.355  0.00  0.00    +0.052 C 
ATOM     19  C   UNL     1      -0.331   0.549  24.227  0.00  0.00    +0.076 C 
ATOM     22  C   UNL     1      -0.532   0.875  25.707  0.00  0.00    +0.039 C 
ATOM     23  C   UNL     1      -1.900   1.495  25.949  0.00  0.00    +0.112 C 
ENDROOT
BRANCH  14  26
ATOM      2  O   UNL     1      -3.143   1.305  22.009  0.00  0.00    -0.274 OA
ATOM      9  N   UNL     1      -4.066   1.619  24.123  0.00  0.00    -0.303 N 
ATOM     26  C   UNL     1      -3.082   1.737  23.158  0.00  0.00    +0.233 C 
ATOM     41  H   UNL     1      -3.930   2.079  25.019  0.00  0.00    +0.149 HD
BRANCH   9  25
ATOM     25  C   UNL     1      -5.327   0.951  23.889  0.00  0.00    +0.159 C 
BRANCH  25  27
ATOM      5  O   UNL     1      -7.591   1.751  24.267  0.00  0.00    -0.274 OA
ATOM     11  N   UNL     1      -5.957   2.338  25.771  0.00  0.00    -0.328 N 
ATOM     27  C   UNL     1      -6.421   1.698  24.641  0.00  0.00    +0.231 C 
ATOM     43  H   UNL     1      -6.584   2.878  26.357  0.00  0.00    +0.145 HD
ATOM     44  H   UNL     1      -4.984   2.302  26.057  0.00  0.00    +0.145 HD
ENDBRANCH  25  27
BRANCH  25  17
ATOM     17  C   UNL     1      -5.269  -0.536  24.250  0.00  0.00    +0.035 C 
BRANCH  17  13
ATOM     13  C   UNL     1      -3.855  -1.074  24.466  0.00  0.00    -0.009 C 
ATOM     15  C   UNL     1      -3.578  -1.285  25.960  0.00  0.00    +0.003 C 
ATOM     16  C   UNL     1      -3.645  -2.376  23.682  0.00  0.00    +0.003 C 
ATOM     20  C   UNL     1      -2.189  -1.871  26.199  0.00  0.00    +0.000 C 
ATOM     21  C   UNL     1      -2.255  -2.961  23.924  0.00  0.00    +0.000 C 
ATOM     24  C   UNL     1      -1.980  -3.161  25.411  0.00  0.00    +0.000 C 
ENDBRANCH  17  13
ENDBRANCH  25  17
ENDBRANCH   9  25
ENDBRANCH  14  26
BRANCH  19  10
ATOM      6  O   UNL     1       2.028   2.031  23.532  0.00  0.00    -0.270 OA
ATOM     10  N   UNL     1       0.989   0.011  24.000  0.00  0.00    -0.308 N 
ATOM     29  C   UNL     1       2.071   0.811  23.667  0.00  0.00    +0.244 C 
ATOM     42  H   UNL     1       1.078  -1.000  23.985  0.00  0.00    +0.149 HD
BRANCH  29  32
ATOM     12  N   UNL     1       5.775  -1.233  23.013  0.00  0.00    -0.263 NA
ATOM     32  C   UNL     1       3.357   0.101  23.440  0.00  0.00    +0.040 A 
ATOM     36  C   UNL     1       3.471  -1.251  23.743  0.00  0.00    +0.033 A 
ATOM     37  C   UNL     1       4.451   0.787  22.924  0.00  0.00    +0.033 A 
ATOM     38  C   UNL     1       4.691  -1.867  23.513  0.00  0.00    +0.111 A 
ATOM     39  C   UNL     1       5.627   0.080  22.730  0.00  0.00    +0.111 A 
ENDBRANCH  29  32
ENDBRANCH  19  10
BRANCH   8   1
ATOM      1  S   UNL     1      -1.436   4.172  25.747  0.00  0.00    +0.062 S 
ATOM      3  O   UNL     1      -2.492   4.886  26.423  0.00  0.00    -0.153 OA
ATOM      4  O   UNL     1      -0.632   4.799  24.727  0.00  0.00    -0.153 OA
BRANCH   1  28
ATOM     28  C   UNL     1      -0.354   3.506  26.970  0.00  0.00    +0.106 A 
ATOM     30  C   UNL     1       0.986   3.269  26.662  0.00  0.00    +0.032 A 
ATOM     31  C   UNL     1      -0.838   3.217  28.245  0.00  0.00    +0.032 A 
ATOM     33  C   UNL     1       1.841   2.744  27.630  0.00  0.00    +0.047 A 
ATOM     34  C   UNL     1       0.018   2.692  29.214  0.00  0.00    +0.047 A 
ATOM     35  C   UNL     1       1.358   2.455  28.906  0.00  0.00    +0.120 A 
BRANCH  35   7
ATOM      7  O   UNL     1       2.193   1.942  29.850  0.00  0.00    -0.495 OA
ATOM     40  C   UNL     1       1.693   1.863  31.184  0.00  0.00    +0.277 C 
ENDBRANCH  35   7
ENDBRANCH   1  28
ENDBRANCH   8   1
TORSDOF 10
ENDMDL
MODEL 2
REMARK VINA RESULT:      11.3      2.785      5.824
REMARK  Name = 11882600
REMARK  11 active torsions:
REMARK  status: ('A' for Active; 'I' for Inactive)
REMARK    1  A    between atoms: S_1  and  N_8
REMARK    2  A    between atoms: S_1  and  C_28
REMARK    3  A    between atoms: O_7  and  C_35
REMARK    4  A    between atoms: O_7  and  C_40
REMARK    5  A    between atoms: N_9  and  C_25
REMARK    6  A    between atoms: N_10  and  C_19
REMARK    7  A    between atoms: C_13  and  C_17
REMARK    8  A    between atoms: C_14  and  C_26
REMARK    9  A    between atoms: C_17  and  C_25
REMARK   10  A    between atoms: C_25  and  C_27
REMARK   11  A    between atoms: C_29  and  C_32
REMARK                            x       y       z     vdW  Elec       q    Type
REMARK                         _______ _______ _______ _____ _____    ______ ____
ROOT
ATOM      8  N   UNL     1      -0.720   0.279  24.348  0.00  0.00    -0.165 NA
ATOM     14  C   UNL     1      -0.080   1.480  24.951  0.00  0.00    +0.167 C 
ATOM     18  C   UNL     1       1.434   1.474  24.756  0.00  0.00    +0.052 C 
ATOM     19  C   UNL     1       1.859   1.185  23.311  0.00  0.00    +0.076 C 
ATOM     22  C   UNL     1       1.168  -0.070  22.778  0.00  0.00    +0.039 C 
ATOM     23  C   UNL     1      -0.344   0.035  22.924  0.00  0.00    +0.112 C 
ENDROOT
BRANCH  14  26
ATOM      2  O   UNL     1      -0.457   3.097  23.243  0.00  0.00    -0.274 OA
ATOM      9  N   UNL     1      -1.659   3.252  25.230  0.00  0.00    -0.303 N 
ATOM     26  C   UNL     1      -0.742   2.684  24.364  0.00  0.00    +0.233 C 
ATOM     41  H   UNL     1      -1.760   2.860  26.162  0.00  0.00    +0.149 HD
BRANCH   9  25
ATOM     25  C   UNL     1      -2.419   4.439  24.910  0.00  0.00    +0.159 C 
BRANCH  25  27
ATOM      5  O   UNL     1      -1.867   6.807  24.939  0.00  0.00    -0.274 OA
ATOM     11  N   UNL     1      -0.150   5.282  24.915  0.00  0.00    -0.328 N 
ATOM     27  C   UNL     1      -1.481   5.640  24.933  0.00  0.00    +0.231 C 
ATOM     43  H   UNL     1       0.579   5.988  24.920  0.00  0.00    +0.145 HD
ATOM     44  H   UNL     1       0.155   4.314  24.890  0.00  0.00    +0.145 HD
ENDBRANCH  25  27
BRANCH  25  17
ATOM     17  C   UNL     1      -3.631   4.617  25.829  0.00  0.00    +0.035 C 
BRANCH  17  13
ATOM     13  C   UNL     1      -4.829   3.742  25.461  0.00  0.00    -0.009 C 
ATOM     15  C   UNL     1      -4.459   2.759  24.342  0.00  0.00    +0.003 C 
ATOM     16  C   UNL     1      -5.354   2.995  26.693  0.00  0.00    +0.003 C 
ATOM     20  C   UNL     1      -5.624   1.838  23.992  0.00  0.00    +0.000 C 
ATOM     21  C   UNL     1      -6.518   2.072  26.340  0.00  0.00    +0.000 C 
ATOM     24  C   UNL     1      -6.149   1.102  25.222  0.00  0.00    +0.000 C 
ENDBRANCH  17  13
ENDBRANCH  25  17
ENDBRANCH   9  25
ENDBRANCH  14  26
BRANCH  19  10
ATOM      6  O   UNL     1       3.386  -1.222  23.657  0.00  0.00    -0.270 OA
ATOM     10  N   UNL     1       3.293   1.053  23.217  0.00  0.00    -0.308 N 
ATOM     29  C   UNL     1       3.943  -0.157  23.401  0.00  0.00    +0.244 C 
ATOM     42  H   UNL     1       3.829   1.910  23.117  0.00  0.00    +0.149 HD
BRANCH  29  32
ATOM     12  N   UNL     1       8.212  -0.053  23.102  0.00  0.00    -0.263 NA
ATOM     32  C   UNL     1       5.425  -0.121  23.297  0.00  0.00    +0.040 A 
ATOM     36  C   UNL     1       6.150   0.841  23.991  0.00  0.00    +0.033 A 
ATOM     37  C   UNL     1       6.092  -1.050  22.506  0.00  0.00    +0.033 A 
ATOM     38  C   UNL     1       7.530   0.832  23.861  0.00  0.00    +0.111 A 
ATOM     39  C   UNL     1       7.474  -0.974  22.442  0.00  0.00    +0.111 A 
ENDBRANCH  29  32
ENDBRANCH  19  10
BRANCH   8   1
ATOM      1  S   UNL     1      -0.834  -1.106  25.348  0.00  0.00    +0.062 S 
ATOM      3  O   UNL     1      -1.078  -0.675  26.704  0.00  0.00    -0.153 OA
ATOM      4  O   UNL     1       0.254  -1.996  25.023  0.00  0.00    -0.153 OA
BRANCH   1  28
ATOM     28  C   UNL     1      -2.325  -1.805  24.719  0.00  0.00    +0.106 A 
ATOM     30  C   UNL     1      -3.387  -0.975  24.359  0.00  0.00    +0.032 A 
ATOM     31  C   UNL     1      -2.443  -3.187  24.579  0.00  0.00    +0.032 A 
ATOM     33  C   UNL     1      -4.566  -1.528  23.860  0.00  0.00    +0.047 A 
ATOM     34  C   UNL     1      -3.622  -3.740  24.079  0.00  0.00    +0.047 A 
ATOM     35  C   UNL     1      -4.684  -2.910  23.719  0.00  0.00    +0.120 A 
BRANCH  35   7
ATOM      7  O   UNL     1      -5.835  -3.449  23.233  0.00  0.00    -0.495 OA
ATOM     40  C   UNL     1      -5.721  -4.303  22.095  0.00  0.00    +0.277 C 
ENDBRANCH  35   7
ENDBRANCH   1  28
ENDBRANCH   8   1
TORSDOF 10
ENDMDL
MODEL 3
REMARK VINA RESULT:      11.4      2.625      6.159
REMARK  Name = 11882600
REMARK  11 active torsions:
REMARK  status: ('A' for Active; 'I' for Inactive)
REMARK    1  A    between atoms: S_1  and  N_8
REMARK    2  A    between atoms: S_1  and  C_28
REMARK    3  A    between atoms: O_7  and  C_35
REMARK    4  A    between atoms: O_7  and  C_40
REMARK    5  A    between atoms: N_9  and  C_25
REMARK    6  A    between atoms: N_10  and  C_19
REMARK    7  A    between atoms: C_13  and  C_17
REMARK    8  A    between atoms: C_14  and  C_26
REMARK    9  A    between atoms: C_17  and  C_25
REMARK   10  A    between atoms: C_25  and  C_27
REMARK   11  A    between atoms: C_29  and  C_32
REMARK                            x       y       z     vdW  Elec       q    Type
REMARK                         _______ _______ _______ _____ _____    ______ ____
ROOT
ATOM      8  N   UNL     1       0.115   0.866  23.116  0.00  0.00    -0.165 NA
ATOM     14  C   UNL     1      -1.210   0.947  23.789  0.00  0.00    +0.167 C 
ATOM     18  C   UNL     1      -1.074   0.986  25.308  0.00  0.00    +0.052 C 
ATOM     19  C   UNL     1      -0.047   2.014  25.801  0.00  0.00    +0.076 C 
ATOM     22  C   UNL     1       1.286   1.849  25.070  0.00  0.00    +0.039 C 
ATOM     23  C   UNL     1       1.092   1.904  23.561  0.00  0.00    +0.112 C 
ENDROOT
BRANCH  14  26
ATOM      2  O   UNL     1      -2.356   2.156  22.085  0.00  0.00    -0.274 OA
ATOM      9  N   UNL     1      -1.999   3.174  24.147  0.00  0.00    -0.303 N 
ATOM     26  C   UNL     1      -1.922   2.138  23.234  0.00  0.00    +0.233 C 
ATOM     41  H   UNL     1      -1.541   3.068  25.048  0.00  0.00    +0.149 HD
BRANCH   9  25
ATOM     25  C   UNL     1      -2.620   4.446  23.850  0.00  0.00    +0.159 C 
BRANCH  25  27
ATOM      5  O   UNL     1      -2.264   6.686  24.724  0.00  0.00    -0.274 OA
ATOM     11  N   UNL     1      -0.572   5.146  24.932  0.00  0.00    -0.328 N 
ATOM     27  C   UNL     1      -1.833   5.548  24.547  0.00  0.00    +0.231 C 
ATOM     43  H   UNL     1       0.058   5.789  25.401  0.00  0.00    +0.145 HD
ATOM     44  H   UNL     1      -0.222   4.210  24.762  0.00  0.00    +0.145 HD
ENDBRANCH  25  27
BRANCH  25  17
ATOM     17  C   UNL     1      -4.109   4.461  24.211  0.00  0.00    +0.035 C 
BRANCH  17  13
ATOM     13  C   UNL     1      -4.550   3.296  25.096  0.00  0.00    -0.009 C 
ATOM     15  C   UNL     1      -5.841   3.646  25.848  0.00  0.00    +0.003 C 
ATOM     16  C   UNL     1      -4.731   2.020  24.264  0.00  0.00    +0.003 C 
ATOM     20  C   UNL     1      -6.332   2.479  26.700  0.00  0.00    +0.000 C 
ATOM     21  C   UNL     1      -5.224   0.855  25.118  0.00  0.00    +0.000 C 
ATOM     24  C   UNL     1      -6.503   1.209  25.870  0.00  0.00    +0.000 C 
ENDBRANCH  17  13
ENDBRANCH  25  17
ENDBRANCH   9  25
ENDBRANCH  14  26
BRANCH  19  10
ATOM      6  O   UNL     1       1.843   3.473  27.395  0.00  0.00    -0.270 OA
ATOM     10  N   UNL     1       0.140   1.907  27.227  0.00  0.00    -0.308 N 
ATOM     29  C   UNL     1       1.083   2.658  27.912  0.00  0.00    +0.244 C 
ATOM     42  H   UNL     1      -0.375   1.175  27.706  0.00  0.00    +0.149 HD
BRANCH  29  32
ATOM     12  N   UNL     1       1.334   1.951  32.127  0.00  0.00    -0.263 NA
ATOM     32  C   UNL     1       1.171   2.413  29.375  0.00  0.00    +0.040 A 
ATOM     36  C   UNL     1       2.248   1.709  29.902  0.00  0.00    +0.033 A 
ATOM     37  C   UNL     1       0.175   2.886  30.223  0.00  0.00    +0.033 A 
ATOM     38  C   UNL     1       2.283   1.507  31.273  0.00  0.00    +0.111 A 
ATOM     39  C   UNL     1       0.303   2.632  31.579  0.00  0.00    +0.111 A 
ENDBRANCH  29  32
ENDBRANCH  19  10
BRANCH   8   1
ATOM      1  S   UNL     1       0.745  -0.707  22.864  0.00  0.00    +0.062 S 
ATOM      3  O   UNL     1       0.510  -1.081  21.490  0.00  0.00    -0.153 OA
ATOM      4  O   UNL     1       0.328  -1.548  23.959  0.00  0.00    -0.153 OA
BRANCH   1  28
ATOM     28  C   UNL     1       2.466  -0.370  23.052  0.00  0.00    +0.106 A 
ATOM     30  C   UNL     1       3.272  -1.242  23.784  0.00  0.00    +0.032 A 
ATOM     31  C   UNL     1       3.022   0.768  22.469  0.00  0.00    +0.032 A 
ATOM     33  C   UNL     1       4.633  -0.976  23.932  0.00  0.00    +0.047 A 
ATOM     34  C   UNL     1       4.383   1.034  22.616  0.00  0.00    +0.047 A 
ATOM     35  C   UNL     1       5.189   0.162  23.348  0.00  0.00    +0.120 A 
BRANCH  35   7
ATOM      7  O   UNL     1       6.517   0.421  23.493  0.00  0.00    -0.495 OA
ATOM     40  C   UNL     1       7.428  -0.536  22.956  0.00  0.00    +0.277 C 
ENDBRANCH  35   7
ENDBRANCH   1  28
ENDBRANCH   8   1
TORSDOF 10
ENDMDL
MODEL 4
REMARK VINA RESULT:      12.5      2.716      5.829
REMARK  Name = 11882600
REMARK  11 active torsions:
REMARK  status: ('A' for Active; 'I' for Inactive)
REMARK    1  A    between atoms: S_1  and  N_8
REMARK    2  A    between atoms: S_1  and  C_28
REMARK    3  A    between atoms: O_7  and  C_35
REMARK    4  A    between atoms: O_7  and  C_40
REMARK    5  A    between atoms: N_9  and  C_25
REMARK    6  A    between atoms: N_10  and  C_19
REMARK    7  A    between atoms: C_13  and  C_17
REMARK    8  A    between atoms: C_14  and  C_26
REMARK    9  A    between atoms: C_17  and  C_25
REMARK   10  A    between atoms: C_25  and  C_27
REMARK   11  A    between atoms: C_29  and  C_32
REMARK                            x       y       z     vdW  Elec       q    Type
REMARK                         _______ _______ _______ _____ _____    ______ ____
ROOT
ATOM      8  N   UNL     1      -2.088  -0.658  24.036  0.00  0.00    -0.165 NA
ATOM     14  C   UNL     1      -2.881  -0.642  25.295  0.00  0.00    +0.167 C 
ATOM     18  C   UNL     1      -2.062  -0.127  26.475  0.00  0.00    +0.052 C 
ATOM     19  C   UNL     1      -1.318   1.181  26.175  0.00  0.00    +0.076 C 
ATOM     22  C   UNL     1      -0.519   1.069  24.876  0.00  0.00    +0.039 C 
ATOM     23  C   UNL     1      -1.411   0.634  23.722  0.00  0.00    +0.112 C 
ENDROOT
BRANCH  14  26
ATOM      2  O   UNL     1      -4.993  -0.218  24.276  0.00  0.00    -0.274 OA
ATOM      9  N   UNL     1      -4.104   1.364  25.733  0.00  0.00    -0.303 N 
ATOM     26  C   UNL     1      -4.111   0.167  25.039  0.00  0.00    +0.233 C 
ATOM     41  H   UNL     1      -3.285   1.607  26.283  0.00  0.00    +0.149 HD
BRANCH   9  25
ATOM     25  C   UNL     1      -5.169   2.338  25.641  0.00  0.00    +0.159 C 
BRANCH  25  27
ATOM      5  O   UNL     1      -6.893   1.110  26.838  0.00  0.00    -0.274 OA
ATOM     11  N   UNL     1      -7.216   1.561  24.609  0.00  0.00    -0.328 N 
ATOM     27  C   UNL     1      -6.503   1.616  25.788  0.00  0.00    +0.231 C 
ATOM     43  H   UNL     1      -8.119   1.100  24.569  0.00  0.00    +0.145 HD
ATOM     44  H   UNL     1      -6.873   1.966  23.744  0.00  0.00    +0.145 HD
ENDBRANCH  25  27
BRANCH  25  17
ATOM     17  C   UNL     1      -5.084   3.170  24.358  0.00  0.00    +0.035 C 
BRANCH  17  13
ATOM     13  C   UNL     1      -3.850   4.068  24.276  0.00  0.00    -0.009 C 
ATOM     15  C   UNL     1      -3.370   4.459  25.680  0.00  0.00    +0.003 C 
ATOM     16  C   UNL     1      -2.729   3.380  23.487  0.00  0.00    +0.003 C 
ATOM     20  C   UNL     1      -2.107   5.315  25.626  0.00  0.00    +0.000 C 
ATOM     21  C   UNL     1      -1.467   4.237  23.437  0.00  0.00    +0.000 C 
ATOM     24  C   UNL     1      -0.997   4.630  24.834  0.00  0.00    +0.000 C 
ENDBRANCH  17  13
ENDBRANCH  25  17
ENDBRANCH   9  25
ENDBRANCH  14  26
BRANCH  19  10
ATOM      6  O   UNL     1       0.952   2.935  26.064  0.00  0.00    -0.270 OA
ATOM     10  N   UNL     1      -0.454   1.542  27.273  0.00  0.00    -0.308 N 
ATOM     29  C   UNL     1       0.623   2.401  27.120  0.00  0.00    +0.244 C 
ATOM     42  H   UNL     1      -0.596   1.054  28.151  0.00  0.00    +0.149 HD
BRANCH  29  32
ATOM     12  N   UNL     1       2.953   3.123  30.638  0.00  0.00    -0.263 NA
ATOM     32  C   UNL     1       1.432   2.652  28.341  0.00  0.00    +0.040 A 
ATOM     36  C   UNL     1       2.670   3.277  28.242  0.00  0.00    +0.033 A 
ATOM     37  C   UNL     1       0.953   2.262  29.587  0.00  0.00    +0.033 A 
ATOM     38  C   UNL     1       3.385   3.488  29.411  0.00  0.00    +0.111 A 
ATOM     39  C   UNL     1       1.745   2.518  30.695  0.00  0.00    +0.111 A 
ENDBRANCH  29  32
ENDBRANCH  19  10
BRANCH   8   1
ATOM      1  S   UNL     1      -1.185  -2.080  23.725  0.00  0.00    +0.062 S 
ATOM      3  O   UNL     1      -1.754  -2.744  22.576  0.00  0.00    -0.153 OA
ATOM      4  O   UNL     1      -0.979  -2.774  24.973  0.00  0.00    -0.153 OA
BRANCH   1  28
ATOM     28  C   UNL     1       0.347  -1.357  23.236  0.00  0.00    +0.106 A 
ATOM     30  C   UNL     1       0.486  -0.812  21.960  0.00  0.00    +0.032 A 
ATOM     31  C   UNL     1       1.420  -1.329  24.126  0.00  0.00    +0.032 A 
ATOM     33  C   UNL     1       1.697  -0.239  21.574  0.00  0.00    +0.047 A 
ATOM     34  C   UNL     1       2.632  -0.754  23.741  0.00  0.00    +0.047 A 
ATOM     35  C   UNL     1       2.770  -0.209  22.464  0.00  0.00    +0.120 A 
BRANCH  35   7
ATOM      7  O   UNL     1       3.952   0.349  22.087  0.00  0.00    -0.495 OA
ATOM     40  C   UNL     1       5.007   0.346  23.048  0.00  0.00    +0.277 C 
ENDBRANCH  35   7
ENDBRANCH   1  28
ENDBRANCH   8   1
TORSDOF 10
ENDMDL
