MODEL 1
REMARK VINA RESULT:      19.1      0.000      0.000
REMARK  Name = 56776123
REMARK  3 active torsions:
REMARK  status: ('A' for Active; 'I' for Inactive)
REMARK    1  A    between atoms: N_8  and  C_29
REMARK    2  A    between atoms: C_11  and  C_16
REMARK    3  A    between atoms: C_16  and  C_18
REMARK                            x       y       z     vdW  Elec       q    Type
REMARK                         _______ _______ _______ _____ _____    ______ ____
ROOT
ATOM      1  O   UNL     1      -0.400   1.466  23.940  0.00  0.00    -0.492 OA
ATOM      3  O   UNL     1      -2.339  -2.452  26.362  0.00  0.00    -0.274 OA
ATOM      5  N   UNL     1      -3.782  -1.408  24.877  0.00  0.00    -0.300 N 
ATOM      7  N   UNL     1      -0.839  -1.600  23.631  0.00  0.00    -0.304 NA
ATOM     10  C   UNL     1      -4.534   0.540  23.497  0.00  0.00    +0.010 C 
ATOM     11  C   UNL     1      -5.656   0.786  24.541  0.00  0.00    +0.004 C 
ATOM     12  C   UNL     1      -5.217   0.326  25.938  0.00  0.00    +0.023 C 
ATOM     13  C   UNL     1      -4.164  -0.964  23.526  0.00  0.00    +0.111 C 
ATOM     14  C   UNL     1      -3.289   1.435  23.718  0.00  0.00    +0.008 C 
ATOM     15  C   UNL     1      -4.771  -1.132  25.923  0.00  0.00    +0.108 C 
ATOM     17  C   UNL     1      -2.336   1.456  22.514  0.00  0.00    +0.041 C 
ATOM     19  C   UNL     1      -2.643  -2.150  25.201  0.00  0.00    +0.229 C 
ATOM     20  C   UNL     1      -1.009   2.144  22.836  0.00  0.00    +0.229 C 
ATOM     21  C   UNL     1      -1.759  -2.644  24.074  0.00  0.00    +0.178 C 
ATOM     26  C   UNL     1       0.162  -1.236  24.638  0.00  0.00    +0.120 C 
ATOM     27  C   UNL     1       0.883   1.039  23.722  0.00  0.00    +0.125 A 
ATOM     28  C   UNL     1       1.201  -0.285  24.077  0.00  0.00    +0.010 A 
ATOM     29  C   UNL     1       3.494   0.122  23.378  0.00  0.00    +0.030 A 
ATOM     30  C   UNL     1       2.516  -0.733  23.887  0.00  0.00    +0.031 A 
ATOM     31  C   UNL     1       1.871   1.902  23.233  0.00  0.00    +0.048 A 
ATOM     34  C   UNL     1       3.173   1.439  23.056  0.00  0.00    +0.027 A 
ATOM     37  H   UNL     1      -1.366  -0.771  23.385  0.00  0.00    +0.123 HD
ENDROOT
BRANCH  29   8
ATOM      8  N   UNL     1       4.803  -0.341  23.198  0.00  0.00    -0.327 N 
ATOM      9  N   UNL     1       7.506  -1.251  23.076  0.00  0.00    -0.313 NA
ATOM     32  C   UNL     1       5.908   0.596  23.443  0.00  0.00    +0.120 C 
ATOM     33  C   UNL     1       5.112  -1.758  23.417  0.00  0.00    +0.120 C 
ATOM     35  C   UNL     1       7.174   0.130  22.727  0.00  0.00    +0.100 C 
ATOM     36  C   UNL     1       6.409  -2.141  22.704  0.00  0.00    +0.100 C 
ATOM     38  H   UNL     1       8.350  -1.530  22.576  0.00  0.00    +0.122 HD
ENDBRANCH  29   8
BRANCH  11  16
ATOM     16  C   UNL     1      -6.155   2.231  24.576  0.00  0.00    +0.100 C 
BRANCH  16  18
ATOM      2  O   UNL     1      -6.148   2.679  26.903  0.00  0.00    -0.276 OA
ATOM      4  O   UNL     1      -2.048   5.034  25.453  0.00  0.00    -0.377 OA
ATOM      6  N   UNL     1      -4.587   3.824  25.621  0.00  0.00    -0.297 N 
ATOM     18  C   UNL     1      -5.637   2.927  25.808  0.00  0.00    +0.216 C 
ATOM     22  C   UNL     1      -4.022   4.539  26.766  0.00  0.00    +0.136 C 
ATOM     23  C   UNL     1      -4.042   4.237  24.324  0.00  0.00    +0.136 C 
ATOM     24  C   UNL     1      -2.501   4.516  26.706  0.00  0.00    +0.179 C 
ATOM     25  C   UNL     1      -2.519   4.232  24.366  0.00  0.00    +0.179 C 
ENDBRANCH  16  18
ENDBRANCH  11  16
TORSDOF 3
ENDMDL
