MODEL 1
REMARK VINA RESULT:       3.1      0.000      0.000
REMARK  Name = 40779505
REMARK  14 active torsions:
REMARK  status: ('A' for Active; 'I' for Inactive)
REMARK    1  A    between atoms: O_2  and  C_29
REMARK    2  A    between atoms: O_2  and  C_32
REMARK    3  A    between atoms: O_3  and  C_31
REMARK    4  A    between atoms: O_3  and  C_33
REMARK    5  A    between atoms: N_5  and  C_19
REMARK    6  A    between atoms: N_6  and  C_15
REMARK    7  A    between atoms: C_9  and  C_16
REMARK    8  A    between atoms: C_10  and  C_15
REMARK    9  A    between atoms: C_18  and  C_22
REMARK   10  A    between atoms: C_20  and  C_21
REMARK   11  A    between atoms: C_21  and  C_23
REMARK   12  A    between atoms: C_21  and  C_24
REMARK   13  A    between atoms: C_23  and  C_27
REMARK   14  A    between atoms: C_24  and  C_28
REMARK                            x       y       z     vdW  Elec       q    Type
REMARK                         _______ _______ _______ _____ _____    ______ ____
ROOT
ATOM      4  N   UNL     1      -5.811   3.156  24.455  0.00  0.00    -0.297 NA
ATOM      8  C   UNL     1      -4.036   3.645  26.298  0.00  0.00    +0.002 C 
ATOM      9  C   UNL     1      -3.453   3.943  24.889  0.00  0.00    +0.055 C 
ATOM     10  C   UNL     1      -5.706   1.997  25.380  0.00  0.00    +0.074 C 
ATOM     11  C   UNL     1      -4.520   2.180  26.350  0.00  0.00    +0.024 C 
ATOM     12  C   UNL     1      -5.284   4.541  26.462  0.00  0.00    +0.019 C 
ATOM     13  C   UNL     1      -4.489   3.440  23.843  0.00  0.00    +0.094 C 
ATOM     14  C   UNL     1      -6.214   4.340  25.253  0.00  0.00    +0.085 C 
ENDROOT
BRANCH   9  16
ATOM      5  N   UNL     1      -0.960   4.297  24.573  0.00  0.00    -0.270 N 
ATOM      7  N   UNL     1       0.197   3.680  24.276  0.00  0.00    -0.171 NA
ATOM     16  C   UNL     1      -2.042   3.465  24.580  0.00  0.00    +0.044 A 
ATOM     17  C   UNL     1      -1.559   2.219  24.265  0.00  0.00    +0.053 A 
ATOM     18  C   UNL     1      -0.175   2.411  24.089  0.00  0.00    +0.093 A 
ATOM     19  C   UNL     1      -0.954   5.715  24.844  0.00  0.00    +0.172 C 
BRANCH  18  22
ATOM     22  C   UNL     1       0.797   1.407  23.744  0.00  0.00    +0.006 A 
ATOM     25  C   UNL     1       2.097   1.782  23.407  0.00  0.00    +0.059 A 
ATOM     26  C   UNL     1       0.439   0.059  23.747  0.00  0.00    +0.014 A 
ATOM     29  C   UNL     1       3.040   0.810  23.071  0.00  0.00    +0.162 A 
ATOM     30  C   UNL     1       1.381  -0.914  23.412  0.00  0.00    +0.050 A 
ATOM     31  C   UNL     1       2.681  -0.539  23.074  0.00  0.00    +0.162 A 
BRANCH  29   2
ATOM      2  O   UNL     1       4.306   1.189  22.743  0.00  0.00    -0.491 OA
ATOM     32  C   UNL     1       5.349   0.810  23.641  0.00  0.00    +0.277 C 
ENDBRANCH  29   2
BRANCH  31   3
ATOM      3  O   UNL     1       3.593  -1.497  22.750  0.00  0.00    -0.491 OA
ATOM     33  C   UNL     1       4.381  -2.027  23.814  0.00  0.00    +0.277 C 
ENDBRANCH  31   3
ENDBRANCH  18  22
ENDBRANCH   9  16
BRANCH  10  15
ATOM     15  C   UNL     1      -5.633   0.662  24.635  0.00  0.00    +0.123 C 
BRANCH  15   6
ATOM      1  O   UNL     1      -3.541  -0.159  22.844  0.00  0.00    -0.276 OA
ATOM      6  N   UNL     1      -4.441  -0.048  24.979  0.00  0.00    -0.314 N 
ATOM     20  C   UNL     1      -3.470  -0.411  24.045  0.00  0.00    +0.216 C 
ATOM     34  H   UNL     1      -4.311  -0.296  25.955  0.00  0.00    +0.149 HD
BRANCH  20  21
ATOM     21  C   UNL     1      -2.299  -1.179  24.666  0.00  0.00    +0.074 C 
BRANCH  21  23
ATOM     23  C   UNL     1      -2.307  -2.667  24.276  0.00  0.00    +0.009 C 
ATOM     27  C   UNL     1      -3.609  -3.361  24.657  0.00  0.00    +0.004 C 
ENDBRANCH  21  23
BRANCH  21  24
ATOM     24  C   UNL     1      -2.287  -0.983  26.196  0.00  0.00    +0.009 C 
ATOM     28  C   UNL     1      -0.964  -0.484  26.765  0.00  0.00    +0.004 C 
ENDBRANCH  21  24
ENDBRANCH  20  21
ENDBRANCH  15   6
ENDBRANCH  10  15
TORSDOF 9
ENDMDL
MODEL 2
REMARK VINA RESULT:       3.5      1.892      4.200
REMARK  Name = 40779505
REMARK  14 active torsions:
REMARK  status: ('A' for Active; 'I' for Inactive)
REMARK    1  A    between atoms: O_2  and  C_29
REMARK    2  A    between atoms: O_2  and  C_32
REMARK    3  A    between atoms: O_3  and  C_31
REMARK    4  A    between atoms: O_3  and  C_33
REMARK    5  A    between atoms: N_5  and  C_19
REMARK    6  A    between atoms: N_6  and  C_15
REMARK    7  A    between atoms: C_9  and  C_16
REMARK    8  A    between atoms: C_10  and  C_15
REMARK    9  A    between atoms: C_18  and  C_22
REMARK   10  A    between atoms: C_20  and  C_21
REMARK   11  A    between atoms: C_21  and  C_23
REMARK   12  A    between atoms: C_21  and  C_24
REMARK   13  A    between atoms: C_23  and  C_27
REMARK   14  A    between atoms: C_24  and  C_28
REMARK                            x       y       z     vdW  Elec       q    Type
REMARK                         _______ _______ _______ _____ _____    ______ ____
ROOT
ATOM      4  N   UNL     1      -5.635   2.063  26.202  0.00  0.00    -0.297 NA
ATOM      8  C   UNL     1      -4.918   1.660  23.730  0.00  0.00    +0.002 C 
ATOM      9  C   UNL     1      -4.354   0.542  24.650  0.00  0.00    +0.055 C 
ATOM     10  C   UNL     1      -5.055   3.308  25.632  0.00  0.00    +0.074 C 
ATOM     11  C   UNL     1      -4.437   3.034  24.244  0.00  0.00    +0.024 C 
ATOM     12  C   UNL     1      -6.454   1.631  23.886  0.00  0.00    +0.019 C 
ATOM     13  C   UNL     1      -4.649   0.957  26.120  0.00  0.00    +0.094 C 
ATOM     14  C   UNL     1      -6.814   1.694  25.380  0.00  0.00    +0.085 C 
ENDROOT
BRANCH   9  16
ATOM      5  N   UNL     1      -2.464  -1.149  24.730  0.00  0.00    -0.270 N 
ATOM      7  N   UNL     1      -1.154  -1.329  24.487  0.00  0.00    -0.171 NA
ATOM     16  C   UNL     1      -2.908   0.110  24.451  0.00  0.00    +0.044 A 
ATOM     17  C   UNL     1      -1.814   0.803  23.995  0.00  0.00    +0.053 A 
ATOM     18  C   UNL     1      -0.762  -0.133  24.038  0.00  0.00    +0.093 A 
ATOM     19  C   UNL     1      -3.244  -2.252  25.241  0.00  0.00    +0.172 C 
BRANCH  18  22
ATOM     22  C   UNL     1       0.608   0.094  23.661  0.00  0.00    +0.006 A 
ATOM     25  C   UNL     1       1.486  -0.984  23.541  0.00  0.00    +0.059 A 
ATOM     26  C   UNL     1       1.059   1.390  23.414  0.00  0.00    +0.014 A 
ATOM     29  C   UNL     1       2.815  -0.765  23.176  0.00  0.00    +0.162 A 
ATOM     30  C   UNL     1       2.387   1.610  23.049  0.00  0.00    +0.050 A 
ATOM     31  C   UNL     1       3.265   0.532  22.930  0.00  0.00    +0.162 A 
BRANCH  29   2
ATOM      2  O   UNL     1       3.662  -1.825  23.063  0.00  0.00    -0.491 OA
ATOM     32  C   UNL     1       4.615  -2.008  24.109  0.00  0.00    +0.277 C 
ENDBRANCH  29   2
BRANCH  31   3
ATOM      3  O   UNL     1       4.560   0.759  22.572  0.00  0.00    -0.491 OA
ATOM     33  C   UNL     1       5.520   0.827  23.625  0.00  0.00    +0.277 C 
ENDBRANCH  31   3
ENDBRANCH  18  22
ENDBRANCH   9  16
BRANCH  10  15
ATOM     15  C   UNL     1      -4.054   3.971  26.581  0.00  0.00    +0.123 C 
BRANCH  15   6
ATOM      1  O   UNL     1      -2.099   5.755  25.462  0.00  0.00    -0.276 OA
ATOM      6  N   UNL     1      -2.711   3.647  26.212  0.00  0.00    -0.314 N 
ATOM     20  C   UNL     1      -1.821   4.577  25.673  0.00  0.00    +0.216 C 
ATOM     34  H   UNL     1      -2.406   2.689  26.354  0.00  0.00    +0.149 HD
BRANCH  20  21
ATOM     21  C   UNL     1      -0.451   3.975  25.348  0.00  0.00    +0.074 C 
BRANCH  21  23
ATOM     23  C   UNL     1      -0.233   3.808  23.834  0.00  0.00    +0.009 C 
ATOM     27  C   UNL     1       0.126   5.121  23.149  0.00  0.00    +0.004 C 
ENDBRANCH  21  23
BRANCH  21  24
ATOM     24  C   UNL     1      -0.260   2.647  26.109  0.00  0.00    +0.009 C 
ATOM     28  C   UNL     1       0.790   2.690  27.213  0.00  0.00    +0.004 C 
ENDBRANCH  21  24
ENDBRANCH  20  21
ENDBRANCH  15   6
ENDBRANCH  10  15
TORSDOF 9
ENDMDL
MODEL 3
REMARK VINA RESULT:       4.1      1.911      4.056
REMARK  Name = 40779505
REMARK  14 active torsions:
REMARK  status: ('A' for Active; 'I' for Inactive)
REMARK    1  A    between atoms: O_2  and  C_29
REMARK    2  A    between atoms: O_2  and  C_32
REMARK    3  A    between atoms: O_3  and  C_31
REMARK    4  A    between atoms: O_3  and  C_33
REMARK    5  A    between atoms: N_5  and  C_19
REMARK    6  A    between atoms: N_6  and  C_15
REMARK    7  A    between atoms: C_9  and  C_16
REMARK    8  A    between atoms: C_10  and  C_15
REMARK    9  A    between atoms: C_18  and  C_22
REMARK   10  A    between atoms: C_20  and  C_21
REMARK   11  A    between atoms: C_21  and  C_23
REMARK   12  A    between atoms: C_21  and  C_24
REMARK   13  A    between atoms: C_23  and  C_27
REMARK   14  A    between atoms: C_24  and  C_28
REMARK                            x       y       z     vdW  Elec       q    Type
REMARK                         _______ _______ _______ _____ _____    ______ ____
ROOT
ATOM      4  N   UNL     1      -5.414   2.282  26.441  0.00  0.00    -0.297 NA
ATOM      8  C   UNL     1      -5.062   1.630  23.944  0.00  0.00    +0.002 C 
ATOM      9  C   UNL     1      -4.646   0.458  24.876  0.00  0.00    +0.055 C 
ATOM     10  C   UNL     1      -4.654   3.350  25.739  0.00  0.00    +0.074 C 
ATOM     11  C   UNL     1      -4.256   2.891  24.320  0.00  0.00    +0.024 C 
ATOM     12  C   UNL     1      -6.546   1.933  24.246  0.00  0.00    +0.019 C 
ATOM     13  C   UNL     1      -4.691   0.990  26.337  0.00  0.00    +0.094 C 
ATOM     14  C   UNL     1      -6.724   2.135  25.760  0.00  0.00    +0.085 C 
ENDROOT
BRANCH   9  16
ATOM      5  N   UNL     1      -3.303  -1.607  24.266  0.00  0.00    -0.270 N 
ATOM      7  N   UNL     1      -2.062  -2.067  24.029  0.00  0.00    -0.171 NA
ATOM     16  C   UNL     1      -3.349  -0.278  24.570  0.00  0.00    +0.044 A 
ATOM     17  C   UNL     1      -2.049   0.163  24.529  0.00  0.00    +0.053 A 
ATOM     18  C   UNL     1      -1.300  -0.981  24.191  0.00  0.00    +0.093 A 
ATOM     19  C   UNL     1      -4.420  -2.518  24.184  0.00  0.00    +0.172 C 
BRANCH  18  22
ATOM     22  C   UNL     1       0.127  -1.057  24.021  0.00  0.00    +0.006 A 
ATOM     25  C   UNL     1       0.763  -0.238  23.088  0.00  0.00    +0.059 A 
ATOM     26  C   UNL     1       0.875  -1.948  24.790  0.00  0.00    +0.014 A 
ATOM     29  C   UNL     1       2.146  -0.312  22.922  0.00  0.00    +0.162 A 
ATOM     30  C   UNL     1       2.258  -2.022  24.625  0.00  0.00    +0.050 A 
ATOM     31  C   UNL     1       2.893  -1.204  23.691  0.00  0.00    +0.162 A 
BRANCH  29   2
ATOM      2  O   UNL     1       2.755   0.493  22.007  0.00  0.00    -0.491 OA
ATOM     32  C   UNL     1       3.640   1.492  22.510  0.00  0.00    +0.277 C 
ENDBRANCH  29   2
BRANCH  31   3
ATOM      3  O   UNL     1       4.245  -1.284  23.539  0.00  0.00    -0.491 OA
ATOM     33  C   UNL     1       5.043  -0.507  24.430  0.00  0.00    +0.277 C 
ENDBRANCH  31   3
ENDBRANCH  18  22
ENDBRANCH   9  16
BRANCH  10  15
ATOM     15  C   UNL     1      -3.443   3.827  26.545  0.00  0.00    +0.123 C 
BRANCH  15   6
ATOM      1  O   UNL     1      -1.509   5.517  25.258  0.00  0.00    -0.276 OA
ATOM      6  N   UNL     1      -2.223   3.413  25.923  0.00  0.00    -0.314 N 
ATOM     20  C   UNL     1      -1.334   4.302  25.319  0.00  0.00    +0.216 C 
ATOM     34  H   UNL     1      -2.009   2.421  25.929  0.00  0.00    +0.149 HD
BRANCH  20  21
ATOM     21  C   UNL     1      -0.112   3.607  24.712  0.00  0.00    +0.074 C 
BRANCH  21  23
ATOM     23  C   UNL     1      -0.262   3.381  23.198  0.00  0.00    +0.009 C 
ATOM     27  C   UNL     1      -1.428   2.459  22.860  0.00  0.00    +0.004 C 
ENDBRANCH  21  23
BRANCH  21  24
ATOM     24  C   UNL     1       0.180   2.293  25.466  0.00  0.00    +0.009 C 
ATOM     28  C   UNL     1       0.503   2.465  26.945  0.00  0.00    +0.004 C 
ENDBRANCH  21  24
ENDBRANCH  20  21
ENDBRANCH  15   6
ENDBRANCH  10  15
TORSDOF 9
ENDMDL
MODEL 4
REMARK VINA RESULT:       6.7      1.529      2.312
REMARK  Name = 40779505
REMARK  14 active torsions:
REMARK  status: ('A' for Active; 'I' for Inactive)
REMARK    1  A    between atoms: O_2  and  C_29
REMARK    2  A    between atoms: O_2  and  C_32
REMARK    3  A    between atoms: O_3  and  C_31
REMARK    4  A    between atoms: O_3  and  C_33
REMARK    5  A    between atoms: N_5  and  C_19
REMARK    6  A    between atoms: N_6  and  C_15
REMARK    7  A    between atoms: C_9  and  C_16
REMARK    8  A    between atoms: C_10  and  C_15
REMARK    9  A    between atoms: C_18  and  C_22
REMARK   10  A    between atoms: C_20  and  C_21
REMARK   11  A    between atoms: C_21  and  C_23
REMARK   12  A    between atoms: C_21  and  C_24
REMARK   13  A    between atoms: C_23  and  C_27
REMARK   14  A    between atoms: C_24  and  C_28
REMARK                            x       y       z     vdW  Elec       q    Type
REMARK                         _______ _______ _______ _____ _____    ______ ____
ROOT
ATOM      4  N   UNL     1      -4.811   3.267  24.686  0.00  0.00    -0.297 NA
ATOM      8  C   UNL     1      -2.539   3.364  25.956  0.00  0.00    +0.002 C 
ATOM      9  C   UNL     1      -2.308   3.435  24.421  0.00  0.00    +0.055 C 
ATOM     10  C   UNL     1      -4.738   2.165  25.682  0.00  0.00    +0.074 C 
ATOM     11  C   UNL     1      -3.324   2.080  26.295  0.00  0.00    +0.024 C 
ATOM     12  C   UNL     1      -3.445   4.560  26.324  0.00  0.00    +0.019 C 
ATOM     13  C   UNL     1      -3.677   3.168  23.733  0.00  0.00    +0.094 C 
ATOM     14  C   UNL     1      -4.689   4.551  25.419  0.00  0.00    +0.085 C 
ENDROOT
BRANCH   9  16
ATOM      5  N   UNL     1      -1.375   1.752  22.766  0.00  0.00    -0.270 N 
ATOM      7  N   UNL     1      -0.263   1.098  22.390  0.00  0.00    -0.171 NA
ATOM     16  C   UNL     1      -1.189   2.593  23.824  0.00  0.00    +0.044 A 
ATOM     17  C   UNL     1       0.137   2.480  24.165  0.00  0.00    +0.053 A 
ATOM     18  C   UNL     1       0.658   1.547  23.248  0.00  0.00    +0.093 A 
ATOM     19  C   UNL     1      -2.608   1.515  22.052  0.00  0.00    +0.172 C 
BRANCH  18  22
ATOM     22  C   UNL     1       2.016   1.075  23.177  0.00  0.00    +0.006 A 
ATOM     25  C   UNL     1       2.313  -0.248  23.505  0.00  0.00    +0.059 A 
ATOM     26  C   UNL     1       3.035   1.940  22.780  0.00  0.00    +0.014 A 
ATOM     29  C   UNL     1       3.629  -0.705  23.437  0.00  0.00    +0.162 A 
ATOM     30  C   UNL     1       4.351   1.484  22.712  0.00  0.00    +0.050 A 
ATOM     31  C   UNL     1       4.648   0.161  23.041  0.00  0.00    +0.162 A 
BRANCH  29   2
ATOM      2  O   UNL     1       3.906  -1.999  23.760  0.00  0.00    -0.491 OA
ATOM     32  C   UNL     1       3.015  -2.646  24.667  0.00  0.00    +0.277 C 
ENDBRANCH  29   2
BRANCH  31   3
ATOM      3  O   UNL     1       5.937  -0.275  22.970  0.00  0.00    -0.491 OA
ATOM     33  C   UNL     1       6.539  -0.716  24.186  0.00  0.00    +0.277 C 
ENDBRANCH  31   3
ENDBRANCH  18  22
ENDBRANCH   9  16
BRANCH  10  15
ATOM     15  C   UNL     1      -5.189   0.824  25.100  0.00  0.00    +0.123 C 
BRANCH  15   6
ATOM      1  O   UNL     1      -3.566  -1.211  26.317  0.00  0.00    -0.276 OA
ATOM      6  N   UNL     1      -4.089   0.133  24.501  0.00  0.00    -0.314 N 
ATOM     20  C   UNL     1      -3.350  -0.847  25.164  0.00  0.00    +0.216 C 
ATOM     34  H   UNL     1      -3.846   0.381  23.546  0.00  0.00    +0.149 HD
BRANCH  20  21
ATOM     21  C   UNL     1      -2.216  -1.421  24.310  0.00  0.00    +0.074 C 
BRANCH  21  23
ATOM     23  C   UNL     1      -2.395  -2.924  24.037  0.00  0.00    +0.009 C 
ATOM     27  C   UNL     1      -3.829  -3.389  24.260  0.00  0.00    +0.004 C 
ENDBRANCH  21  23
BRANCH  21  24
ATOM     24  C   UNL     1      -0.852  -1.111  24.960  0.00  0.00    +0.009 C 
ATOM     28  C   UNL     1      -0.349  -2.176  25.928  0.00  0.00    +0.004 C 
ENDBRANCH  21  24
ENDBRANCH  20  21
ENDBRANCH  15   6
ENDBRANCH  10  15
TORSDOF 9
ENDMDL
