MODEL 1
REMARK VINA RESULT:       2.3      0.000      0.000
REMARK  Name = 11884024
REMARK  7 active torsions:
REMARK  status: ('A' for Active; 'I' for Inactive)
REMARK    1  A    between atoms: O_3  and  C_12
REMARK    2  A    between atoms: O_3  and  C_22
REMARK    3  A    between atoms: O_6  and  C_28
REMARK    4  A    between atoms: O_6  and  C_29
REMARK    5  A    between atoms: N_7  and  C_11
REMARK    6  A    between atoms: N_8  and  C_23
REMARK    7  A    between atoms: C_15  and  C_16
REMARK                            x       y       z     vdW  Elec       q    Type
REMARK                         _______ _______ _______ _____ _____    ______ ____
ROOT
ATOM      3  O   UNL     1      -5.530  -0.568  24.387  0.00  0.00    -0.442 OA
ENDROOT
BRANCH   3  12
ATOM      1  O   UNL     1      -4.147   1.616  23.373  0.00  0.00    -0.368 OA
ATOM      2  O   UNL     1      -6.084   2.817  25.424  0.00  0.00    -0.368 OA
ATOM      9  C   UNL     1      -4.643   2.809  25.361  0.00  0.00    +0.173 C 
ATOM     10  C   UNL     1      -4.234   1.463  24.799  0.00  0.00    +0.192 C 
ATOM     11  C   UNL     1      -4.164   3.795  24.321  0.00  0.00    +0.130 C 
ATOM     12  C   UNL     1      -5.392   0.579  25.197  0.00  0.00    +0.235 C 
ATOM     13  C   UNL     1      -4.307   3.001  23.033  0.00  0.00    +0.185 C 
ATOM     14  C   UNL     1      -6.570   1.516  25.061  0.00  0.00    +0.207 C 
BRANCH  11   7
ATOM      4  O   UNL     1      -2.748   3.841  26.856  0.00  0.00    -0.276 OA
ATOM      7  N   UNL     1      -2.792   4.176  24.553  0.00  0.00    -0.307 N 
ATOM     16  C   UNL     1      -2.200   4.165  25.806  0.00  0.00    +0.216 C 
ATOM     35  H   UNL     1      -2.222   4.400  23.741  0.00  0.00    +0.149 HD
BRANCH  16  15
ATOM     15  C   UNL     1      -0.759   4.582  25.761  0.00  0.00    +0.075 C 
ATOM     17  C   UNL     1       0.134   3.550  26.456  0.00  0.00    +0.013 C 
ATOM     18  C   UNL     1      -0.334   4.853  24.316  0.00  0.00    +0.013 C 
ATOM     19  C   UNL     1       0.372   2.293  25.622  0.00  0.00    +0.001 C 
ATOM     20  C   UNL     1      -0.109   3.576  23.509  0.00  0.00    +0.001 C 
ATOM     21  C   UNL     1       0.852   2.626  24.214  0.00  0.00    +0.000 C 
ENDBRANCH  16  15
ENDBRANCH  11   7
ENDBRANCH   3  12
BRANCH   3  22
ATOM      5  O   UNL     1      -4.387  -2.345  23.514  0.00  0.00    -0.226 OA
ATOM      8  N   UNL     1      -3.281  -0.564  24.554  0.00  0.00    -0.251 N 
ATOM     22  C   UNL     1      -4.378  -1.268  24.096  0.00  0.00    +0.405 C 
ATOM     36  H   UNL     1      -3.475   0.321  25.016  0.00  0.00    +0.158 HD
BRANCH   8  23
ATOM     23  C   UNL     1      -1.916  -0.922  24.462  0.00  0.00    +0.037 A 
ATOM     24  C   UNL     1      -1.387  -1.881  25.325  0.00  0.00    +0.027 A 
ATOM     25  C   UNL     1      -1.101  -0.317  23.507  0.00  0.00    +0.027 A 
ATOM     26  C   UNL     1      -0.041  -2.237  25.233  0.00  0.00    +0.048 A 
ATOM     27  C   UNL     1       0.246  -0.672  23.414  0.00  0.00    +0.048 A 
ATOM     28  C   UNL     1       0.775  -1.632  24.277  0.00  0.00    +0.129 A 
BRANCH  28   6
ATOM      6  O   UNL     1       2.088  -1.979  24.186  0.00  0.00    -0.456 OA
BRANCH   6  29
ATOM     29  C   UNL     1       2.972  -1.032  23.698  0.00  0.00    +0.128 A 
ATOM     30  C   UNL     1       2.503   0.020  22.911  0.00  0.00    +0.046 A 
ATOM     31  C   UNL     1       4.333  -1.131  23.991  0.00  0.00    +0.046 A 
ATOM     32  C   UNL     1       3.395   0.974  22.418  0.00  0.00    +0.004 A 
ATOM     33  C   UNL     1       5.223  -0.178  23.498  0.00  0.00    +0.004 A 
ATOM     34  C   UNL     1       4.754   0.874  22.712  0.00  0.00    +0.000 A 
ENDBRANCH   6  29
ENDBRANCH  28   6
ENDBRANCH   8  23
ENDBRANCH   3  22
TORSDOF 7
ENDMDL
MODEL 2
REMARK VINA RESULT:       3.1      1.529      4.375
REMARK  Name = 11884024
REMARK  7 active torsions:
REMARK  status: ('A' for Active; 'I' for Inactive)
REMARK    1  A    between atoms: O_3  and  C_12
REMARK    2  A    between atoms: O_3  and  C_22
REMARK    3  A    between atoms: O_6  and  C_28
REMARK    4  A    between atoms: O_6  and  C_29
REMARK    5  A    between atoms: N_7  and  C_11
REMARK    6  A    between atoms: N_8  and  C_23
REMARK    7  A    between atoms: C_15  and  C_16
REMARK                            x       y       z     vdW  Elec       q    Type
REMARK                         _______ _______ _______ _____ _____    ______ ____
ROOT
ATOM      3  O   UNL     1      -2.763   5.384  24.659  0.00  0.00    -0.442 OA
ENDROOT
BRANCH   3  12
ATOM      1  O   UNL     1      -3.498   3.280  26.316  0.00  0.00    -0.368 OA
ATOM      2  O   UNL     1      -6.142   4.294  25.141  0.00  0.00    -0.368 OA
ATOM      9  C   UNL     1      -5.480   3.015  25.043  0.00  0.00    +0.173 C 
ATOM     10  C   UNL     1      -3.993   3.295  24.967  0.00  0.00    +0.192 C 
ATOM     11  C   UNL     1      -5.639   2.248  26.335  0.00  0.00    +0.130 C 
ATOM     12  C   UNL     1      -3.952   4.682  24.372  0.00  0.00    +0.235 C 
ATOM     13  C   UNL     1      -4.541   2.844  27.200  0.00  0.00    +0.185 C 
ATOM     14  C   UNL     1      -5.164   5.334  24.997  0.00  0.00    +0.207 C 
BRANCH  11   7
ATOM      4  O   UNL     1      -4.020   0.968  24.292  0.00  0.00    -0.276 OA
ATOM      7  N   UNL     1      -5.439   0.834  26.133  0.00  0.00    -0.307 N 
ATOM     16  C   UNL     1      -4.642   0.315  25.125  0.00  0.00    +0.216 C 
ATOM     35  H   UNL     1      -5.856   0.198  26.808  0.00  0.00    +0.149 HD
BRANCH  16  15
ATOM     15  C   UNL     1      -4.588  -1.185  25.156  0.00  0.00    +0.075 C 
ATOM     17  C   UNL     1      -4.210  -1.750  23.784  0.00  0.00    +0.013 C 
ATOM     18  C   UNL     1      -3.647  -1.655  26.267  0.00  0.00    +0.013 C 
ATOM     19  C   UNL     1      -2.724  -1.608  23.456  0.00  0.00    +0.001 C 
ATOM     20  C   UNL     1      -2.171  -1.495  25.911  0.00  0.00    +0.001 C 
ATOM     21  C   UNL     1      -1.840  -2.149  24.574  0.00  0.00    +0.000 C 
ENDBRANCH  16  15
ENDBRANCH  11   7
ENDBRANCH   3  12
BRANCH   3  22
ATOM      5  O   UNL     1      -0.486   5.197  24.736  0.00  0.00    -0.226 OA
ATOM      8  N   UNL     1      -1.845   3.411  24.067  0.00  0.00    -0.251 N 
ATOM     22  C   UNL     1      -1.579   4.695  24.504  0.00  0.00    +0.405 C 
ATOM     36  H   UNL     1      -2.824   3.176  23.931  0.00  0.00    +0.158 HD
BRANCH   8  23
ATOM     23  C   UNL     1      -0.920   2.379  23.784  0.00  0.00    +0.037 A 
ATOM     24  C   UNL     1      -1.180   1.473  22.756  0.00  0.00    +0.027 A 
ATOM     25  C   UNL     1       0.251   2.269  24.532  0.00  0.00    +0.027 A 
ATOM     26  C   UNL     1      -0.268   0.456  22.475  0.00  0.00    +0.048 A 
ATOM     27  C   UNL     1       1.164   1.252  24.253  0.00  0.00    +0.048 A 
ATOM     28  C   UNL     1       0.904   0.346  23.224  0.00  0.00    +0.129 A 
BRANCH  28   6
ATOM      6  O   UNL     1       1.796  -0.646  22.950  0.00  0.00    -0.456 OA
BRANCH   6  29
ATOM     29  C   UNL     1       3.134  -0.396  23.197  0.00  0.00    +0.128 A 
ATOM     30  C   UNL     1       3.697   0.825  22.824  0.00  0.00    +0.046 A 
ATOM     31  C   UNL     1       3.922  -1.366  23.819  0.00  0.00    +0.046 A 
ATOM     32  C   UNL     1       5.046   1.076  23.074  0.00  0.00    +0.004 A 
ATOM     33  C   UNL     1       5.271  -1.114  24.068  0.00  0.00    +0.004 A 
ATOM     34  C   UNL     1       5.833   0.107  23.695  0.00  0.00    +0.000 A 
ENDBRANCH   6  29
ENDBRANCH  28   6
ENDBRANCH   8  23
ENDBRANCH   3  22
TORSDOF 7
ENDMDL
MODEL 3
REMARK VINA RESULT:       4.9      1.587      2.453
REMARK  Name = 11884024
REMARK  7 active torsions:
REMARK  status: ('A' for Active; 'I' for Inactive)
REMARK    1  A    between atoms: O_3  and  C_12
REMARK    2  A    between atoms: O_3  and  C_22
REMARK    3  A    between atoms: O_6  and  C_28
REMARK    4  A    between atoms: O_6  and  C_29
REMARK    5  A    between atoms: N_7  and  C_11
REMARK    6  A    between atoms: N_8  and  C_23
REMARK    7  A    between atoms: C_15  and  C_16
REMARK                            x       y       z     vdW  Elec       q    Type
REMARK                         _______ _______ _______ _____ _____    ______ ____
ROOT
ATOM      3  O   UNL     1      -3.510  -2.336  24.129  0.00  0.00    -0.442 OA
ENDROOT
BRANCH   3  12
ATOM      1  O   UNL     1      -3.209   0.376  23.615  0.00  0.00    -0.368 OA
ATOM      2  O   UNL     1      -6.060   0.112  24.712  0.00  0.00    -0.368 OA
ATOM      9  C   UNL     1      -4.909   0.830  25.203  0.00  0.00    +0.173 C 
ATOM     10  C   UNL     1      -3.696  -0.027  24.905  0.00  0.00    +0.192 C 
ATOM     11  C   UNL     1      -4.683   2.076  24.379  0.00  0.00    +0.130 C 
ATOM     12  C   UNL     1      -4.280  -1.419  24.873  0.00  0.00    +0.235 C 
ATOM     13  C   UNL     1      -3.934   1.533  23.174  0.00  0.00    +0.185 C 
ATOM     14  C   UNL     1      -5.638  -1.181  24.254  0.00  0.00    +0.207 C 
BRANCH  11   7
ATOM      4  O   UNL     1      -3.892   4.724  23.487  0.00  0.00    -0.276 OA
ATOM      7  N   UNL     1      -3.891   3.043  25.098  0.00  0.00    -0.307 N 
ATOM     16  C   UNL     1      -3.564   4.289  24.587  0.00  0.00    +0.216 C 
ATOM     35  H   UNL     1      -3.619   2.814  26.051  0.00  0.00    +0.149 HD
BRANCH  16  15
ATOM     15  C   UNL     1      -2.753   5.107  25.551  0.00  0.00    +0.075 C 
ATOM     17  C   UNL     1      -2.343   4.274  26.769  0.00  0.00    +0.013 C 
ATOM     18  C   UNL     1      -1.556   5.733  24.834  0.00  0.00    +0.013 C 
ATOM     19  C   UNL     1      -1.199   3.303  26.484  0.00  0.00    +0.001 C 
ATOM     20  C   UNL     1      -0.433   4.736  24.559  0.00  0.00    +0.001 C 
ATOM     21  C   UNL     1      -0.013   3.998  25.825  0.00  0.00    +0.000 C 
ENDBRANCH  16  15
ENDBRANCH  11   7
ENDBRANCH   3  12
BRANCH   3  22
ATOM      5  O   UNL     1      -1.383  -3.002  24.638  0.00  0.00    -0.226 OA
ATOM      8  N   UNL     1      -1.811  -0.963  23.571  0.00  0.00    -0.251 N 
ATOM     22  C   UNL     1      -2.141  -2.170  24.157  0.00  0.00    +0.405 C 
ATOM     36  H   UNL     1      -2.586  -0.403  23.225  0.00  0.00    +0.158 HD
BRANCH   8  23
ATOM     23  C   UNL     1      -0.524  -0.405  23.394  0.00  0.00    +0.037 A 
ATOM     24  C   UNL     1      -0.085   0.618  24.235  0.00  0.00    +0.027 A 
ATOM     25  C   UNL     1       0.306  -0.878  22.379  0.00  0.00    +0.027 A 
ATOM     26  C   UNL     1       1.185   1.167  24.061  0.00  0.00    +0.048 A 
ATOM     27  C   UNL     1       1.577  -0.329  22.204  0.00  0.00    +0.048 A 
ATOM     28  C   UNL     1       2.016   0.693  23.046  0.00  0.00    +0.129 A 
BRANCH  28   6
ATOM      6  O   UNL     1       3.257   1.228  22.876  0.00  0.00    -0.456 OA
BRANCH   6  29
ATOM     29  C   UNL     1       4.343   0.479  23.292  0.00  0.00    +0.128 A 
ATOM     30  C   UNL     1       5.597   1.080  23.421  0.00  0.00    +0.046 A 
ATOM     31  C   UNL     1       4.187  -0.877  23.580  0.00  0.00    +0.046 A 
ATOM     32  C   UNL     1       6.692   0.323  23.840  0.00  0.00    +0.004 A 
ATOM     33  C   UNL     1       5.283  -1.632  23.998  0.00  0.00    +0.004 A 
ATOM     34  C   UNL     1       6.535  -1.032  24.127  0.00  0.00    +0.000 A 
ENDBRANCH   6  29
ENDBRANCH  28   6
ENDBRANCH   8  23
ENDBRANCH   3  22
TORSDOF 7
ENDMDL
