MODEL 1
REMARK VINA RESULT:      -4.7      0.000      0.000
REMARK  Name = 75537099
REMARK  3 active torsions:
REMARK  status: ('A' for Active; 'I' for Inactive)
REMARK    1  A    between atoms: N_4  and  C_12
REMARK    2  A    between atoms: N_5  and  C_13
REMARK    3  A    between atoms: C_12  and  C_14
REMARK                            x       y       z     vdW  Elec       q    Type
REMARK                         _______ _______ _______ _____ _____    ______ ____
ROOT
ATOM      2  O   UNL     1      -2.556   4.199  26.060  0.00  0.00    -0.252 OA
ATOM      3  N   UNL     1      -1.567   2.217  25.279  0.00  0.00    -0.278 N 
ATOM      4  N   UNL     1       0.204   0.543  23.875  0.00  0.00    -0.295 NA
ATOM      5  N   UNL     1      -3.810   2.350  25.302  0.00  0.00    -0.287 N 
ATOM      6  C   UNL     1      -2.014   0.898  24.880  0.00  0.00    +0.109 C 
ATOM      7  C   UNL     1      -1.250   0.429  23.642  0.00  0.00    +0.109 C 
ATOM      8  C   UNL     1      -3.518   1.071  24.679  0.00  0.00    +0.132 C 
ATOM      9  C   UNL     1      -0.148   2.480  25.392  0.00  0.00    +0.125 C 
ATOM     10  C   UNL     1       0.584   1.940  24.160  0.00  0.00    +0.104 C 
ATOM     11  C   UNL     1      -2.634   3.064  25.609  0.00  0.00    +0.305 C 
ATOM     13  C   UNL     1      -5.160   2.852  25.432  0.00  0.00    +0.133 C 
ENDROOT
BRANCH   4  12
ATOM     12  C   UNL     1       0.945   0.039  22.718  0.00  0.00    +0.119 C 
BRANCH  12  14
ATOM      1  F   UNL     1       6.485  -0.202  23.719  0.00  0.00    -0.205 F 
ATOM     14  C   UNL     1       2.425  -0.025  22.986  0.00  0.00    -0.033 A 
ATOM     15  C   UNL     1       3.241   1.056  22.654  0.00  0.00    +0.008 A 
ATOM     16  C   UNL     1       2.980  -1.166  23.565  0.00  0.00    +0.008 A 
ATOM     17  C   UNL     1       4.612   0.997  22.901  0.00  0.00    +0.038 A 
ATOM     18  C   UNL     1       4.352  -1.226  23.814  0.00  0.00    +0.038 A 
ATOM     19  C   UNL     1       5.168  -0.144  23.480  0.00  0.00    +0.123 A 
ENDBRANCH  12  14
ENDBRANCH   4  12
TORSDOF 2
ENDMDL
MODEL 2
REMARK VINA RESULT:      -3.6      4.007      5.013
REMARK  Name = 75537099
REMARK  3 active torsions:
REMARK  status: ('A' for Active; 'I' for Inactive)
REMARK    1  A    between atoms: N_4  and  C_12
REMARK    2  A    between atoms: N_5  and  C_13
REMARK    3  A    between atoms: C_12  and  C_14
REMARK                            x       y       z     vdW  Elec       q    Type
REMARK                         _______ _______ _______ _____ _____    ______ ____
ROOT
ATOM      2  O   UNL     1      -3.549   5.107  26.503  0.00  0.00    -0.252 OA
ATOM      3  N   UNL     1      -3.904   3.263  25.092  0.00  0.00    -0.278 N 
ATOM      4  N   UNL     1      -4.579   0.647  24.312  0.00  0.00    -0.295 NA
ATOM      5  N   UNL     1      -2.043   4.487  24.796  0.00  0.00    -0.287 N 
ATOM      6  C   UNL     1      -3.281   2.699  23.912  0.00  0.00    +0.109 C 
ATOM      7  C   UNL     1      -3.233   1.175  24.013  0.00  0.00    +0.109 C 
ATOM      8  C   UNL     1      -1.917   3.384  23.860  0.00  0.00    +0.132 C 
ATOM      9  C   UNL     1      -5.159   2.716  25.562  0.00  0.00    +0.125 C 
ATOM     10  C   UNL     1      -5.086   1.187  25.589  0.00  0.00    +0.104 C 
ATOM     11  C   UNL     1      -3.211   4.381  25.578  0.00  0.00    +0.305 C 
ATOM     13  C   UNL     1      -0.995   5.468  24.972  0.00  0.00    +0.133 C 
ENDROOT
BRANCH   4  12
ATOM     12  C   UNL     1      -4.555  -0.815  24.350  0.00  0.00    +0.119 C 
BRANCH  12  14
ATOM      1  F   UNL     1       0.535  -2.793  25.738  0.00  0.00    -0.205 F 
ATOM     14  C   UNL     1      -3.195  -1.343  24.720  0.00  0.00    -0.033 A 
ATOM     15  C   UNL     1      -2.678  -2.461  24.065  0.00  0.00    +0.008 A 
ATOM     16  C   UNL     1      -2.451  -0.716  25.720  0.00  0.00    +0.008 A 
ATOM     17  C   UNL     1      -1.419  -2.951  24.408  0.00  0.00    +0.038 A 
ATOM     18  C   UNL     1      -1.191  -1.206  26.064  0.00  0.00    +0.038 A 
ATOM     19  C   UNL     1      -0.675  -2.324  25.408  0.00  0.00    +0.123 A 
ENDBRANCH  12  14
ENDBRANCH   4  12
TORSDOF 2
ENDMDL
MODEL 3
REMARK VINA RESULT:      -2.7      4.422      6.884
REMARK  Name = 75537099
REMARK  3 active torsions:
REMARK  status: ('A' for Active; 'I' for Inactive)
REMARK    1  A    between atoms: N_4  and  C_12
REMARK    2  A    between atoms: N_5  and  C_13
REMARK    3  A    between atoms: C_12  and  C_14
REMARK                            x       y       z     vdW  Elec       q    Type
REMARK                         _______ _______ _______ _____ _____    ______ ____
ROOT
ATOM      2  O   UNL     1      -0.603  -2.975  25.095  0.00  0.00    -0.252 OA
ATOM      3  N   UNL     1      -1.057  -0.844  24.218  0.00  0.00    -0.278 N 
ATOM      4  N   UNL     1      -0.976   1.954  23.945  0.00  0.00    -0.295 NA
ATOM      5  N   UNL     1      -2.766  -2.282  24.459  0.00  0.00    -0.287 N 
ATOM      6  C   UNL     1      -2.191  -0.163  23.629  0.00  0.00    +0.109 C 
ATOM      7  C   UNL     1      -2.273   1.275  24.141  0.00  0.00    +0.109 C 
ATOM      8  C   UNL     1      -3.380  -1.046  24.005  0.00  0.00    +0.132 C 
ATOM      9  C   UNL     1       0.239  -0.198  24.213  0.00  0.00    +0.125 C 
ATOM     10  C   UNL     1       0.101   1.255  24.674  0.00  0.00    +0.104 C 
ATOM     11  C   UNL     1      -1.376  -2.141  24.644  0.00  0.00    +0.305 C 
ATOM     13  C   UNL     1      -3.551  -3.445  24.811  0.00  0.00    +0.133 C 
ENDROOT
BRANCH   4  12
ATOM     12  C   UNL     1      -1.062   3.349  24.376  0.00  0.00    +0.119 C 
BRANCH  12  14
ATOM      1  F   UNL     1      -6.309   4.763  25.864  0.00  0.00    -0.205 F 
ATOM     14  C   UNL     1      -2.463   3.727  24.774  0.00  0.00    -0.033 A 
ATOM     15  C   UNL     1      -2.743   4.080  26.094  0.00  0.00    +0.008 A 
ATOM     16  C   UNL     1      -3.484   3.724  23.822  0.00  0.00    +0.008 A 
ATOM     17  C   UNL     1      -4.041   4.430  26.463  0.00  0.00    +0.038 A 
ATOM     18  C   UNL     1      -4.783   4.075  24.190  0.00  0.00    +0.038 A 
ATOM     19  C   UNL     1      -5.062   4.427  25.511  0.00  0.00    +0.123 A 
ENDBRANCH  12  14
ENDBRANCH   4  12
TORSDOF 2
ENDMDL
MODEL 4
REMARK VINA RESULT:      -2.6     17.708     19.460
REMARK  Name = 75537099
REMARK  3 active torsions:
REMARK  status: ('A' for Active; 'I' for Inactive)
REMARK    1  A    between atoms: N_4  and  C_12
REMARK    2  A    between atoms: N_5  and  C_13
REMARK    3  A    between atoms: C_12  and  C_14
REMARK                            x       y       z     vdW  Elec       q    Type
REMARK                         _______ _______ _______ _____ _____    ______ ____
ROOT
ATOM      2  O   UNL     1      -2.001 -10.723  13.214  0.00  0.00    -0.252 OA
ATOM      3  N   UNL     1      -3.933  -9.883  12.176  0.00  0.00    -0.278 N 
ATOM      4  N   UNL     1      -6.571  -9.814  11.201  0.00  0.00    -0.295 NA
ATOM      5  N   UNL     1      -1.951  -9.538  11.175  0.00  0.00    -0.287 N 
ATOM      6  C   UNL     1      -4.241  -9.036  11.042  0.00  0.00    +0.109 C 
ATOM      7  C   UNL     1      -5.442  -9.589  10.275  0.00  0.00    +0.109 C 
ATOM      8  C   UNL     1      -2.935  -9.001  10.250  0.00  0.00    +0.132 C 
ATOM      9  C   UNL     1      -4.999 -10.288  13.068  0.00  0.00    +0.125 C 
ATOM     10  C   UNL     1      -6.203 -10.777  12.257  0.00  0.00    +0.104 C 
ATOM     11  C   UNL     1      -2.558 -10.120  12.306  0.00  0.00    +0.305 C 
ATOM     13  C   UNL     1      -0.541  -9.579  10.858  0.00  0.00    +0.133 C 
ENDROOT
BRANCH   4  12
ATOM     12  C   UNL     1      -7.745 -10.286  10.467  0.00  0.00    +0.119 C 
BRANCH  12  14
ATOM      1  F   UNL     1     -10.613  -6.029   8.142  0.00  0.00    -0.205 F 
ATOM     14  C   UNL     1      -8.511  -9.149   9.845  0.00  0.00    -0.033 A 
ATOM     15  C   UNL     1      -7.896  -8.327   8.901  0.00  0.00    +0.008 A 
ATOM     16  C   UNL     1      -9.836  -8.916  10.215  0.00  0.00    +0.008 A 
ATOM     17  C   UNL     1      -8.605  -7.273   8.326  0.00  0.00    +0.038 A 
ATOM     18  C   UNL     1     -10.546  -7.862   9.639  0.00  0.00    +0.038 A 
ATOM     19  C   UNL     1      -9.930  -7.040   8.695  0.00  0.00    +0.123 A 
ENDBRANCH  12  14
ENDBRANCH   4  12
TORSDOF 2
ENDMDL
MODEL 5
REMARK VINA RESULT:      -2.5      3.991      7.508
REMARK  Name = 75537099
REMARK  3 active torsions:
REMARK  status: ('A' for Active; 'I' for Inactive)
REMARK    1  A    between atoms: N_4  and  C_12
REMARK    2  A    between atoms: N_5  and  C_13
REMARK    3  A    between atoms: C_12  and  C_14
REMARK                            x       y       z     vdW  Elec       q    Type
REMARK                         _______ _______ _______ _____ _____    ______ ____
ROOT
ATOM      2  O   UNL     1       2.270  -1.535  23.536  0.00  0.00    -0.252 OA
ATOM      3  N   UNL     1       0.276  -0.531  24.264  0.00  0.00    -0.278 N 
ATOM      4  N   UNL     1      -2.485  -0.146  24.639  0.00  0.00    -0.295 NA
ATOM      5  N   UNL     1       1.871   0.785  23.385  0.00  0.00    -0.287 N 
ATOM      6  C   UNL     1      -0.229   0.816  24.434  0.00  0.00    +0.109 C 
ATOM      7  C   UNL     1      -1.684   0.901  23.974  0.00  0.00    +0.109 C 
ATOM      8  C   UNL     1       0.749   1.673  23.634  0.00  0.00    +0.132 C 
ATOM      9  C   UNL     1      -0.507  -1.648  24.749  0.00  0.00    +0.125 C 
ATOM     10  C   UNL     1      -1.968  -1.491  24.317  0.00  0.00    +0.104 C 
ATOM     11  C   UNL     1       1.564  -0.552  23.711  0.00  0.00    +0.305 C 
ATOM     13  C   UNL     1       3.083   1.240  22.740  0.00  0.00    +0.133 C 
ENDROOT
BRANCH   4  12
ATOM     12  C   UNL     1      -3.891  -0.035  24.252  0.00  0.00    +0.119 C 
BRANCH  12  14
ATOM      1  F   UNL     1      -6.104   4.915  25.786  0.00  0.00    -0.205 F 
ATOM     14  C   UNL     1      -4.482   1.288  24.662  0.00  0.00    -0.033 A 
ATOM     15  C   UNL     1      -5.609   1.323  25.484  0.00  0.00    +0.008 A 
ATOM     16  C   UNL     1      -3.904   2.478  24.220  0.00  0.00    +0.008 A 
ATOM     17  C   UNL     1      -6.157   2.548  25.863  0.00  0.00    +0.038 A 
ATOM     18  C   UNL     1      -4.451   3.703  24.601  0.00  0.00    +0.038 A 
ATOM     19  C   UNL     1      -5.579   3.738  25.422  0.00  0.00    +0.123 A 
ENDBRANCH  12  14
ENDBRANCH   4  12
TORSDOF 2
ENDMDL
MODEL 6
REMARK VINA RESULT:      -2.4      3.855      5.483
REMARK  Name = 75537099
REMARK  3 active torsions:
REMARK  status: ('A' for Active; 'I' for Inactive)
REMARK    1  A    between atoms: N_4  and  C_12
REMARK    2  A    between atoms: N_5  and  C_13
REMARK    3  A    between atoms: C_12  and  C_14
REMARK                            x       y       z     vdW  Elec       q    Type
REMARK                         _______ _______ _______ _____ _____    ______ ____
ROOT
ATOM      2  O   UNL     1      -0.210   4.705  23.390  0.00  0.00    -0.252 OA
ATOM      3  N   UNL     1      -0.061   2.690  24.586  0.00  0.00    -0.278 N 
ATOM      4  N   UNL     1       0.075  -0.081  25.055  0.00  0.00    -0.295 NA
ATOM      5  N   UNL     1      -1.462   4.275  25.342  0.00  0.00    -0.287 N 
ATOM      6  C   UNL     1      -0.563   2.163  25.838  0.00  0.00    +0.109 C 
ATOM      7  C   UNL     1      -1.011   0.712  25.665  0.00  0.00    +0.109 C 
ATOM      8  C   UNL     1      -1.676   3.138  26.220  0.00  0.00    +0.132 C 
ATOM      9  C   UNL     1       0.901   1.917  23.827  0.00  0.00    +0.125 C 
ATOM     10  C   UNL     1       0.442   0.460  23.731  0.00  0.00    +0.104 C 
ATOM     11  C   UNL     1      -0.533   3.983  24.323  0.00  0.00    +0.305 C 
ATOM     13  C   UNL     1      -2.244   5.487  25.451  0.00  0.00    +0.133 C 
ENDROOT
BRANCH   4  12
ATOM     12  C   UNL     1      -0.322  -1.484  24.940  0.00  0.00    +0.119 C 
BRANCH  12  14
ATOM      1  F   UNL     1      -5.771  -2.020  23.610  0.00  0.00    -0.205 F 
ATOM     14  C   UNL     1      -1.777  -1.627  24.584  0.00  0.00    -0.033 A 
ATOM     15  C   UNL     1      -2.524  -0.501  24.237  0.00  0.00    +0.008 A 
ATOM     16  C   UNL     1      -2.380  -2.885  24.603  0.00  0.00    +0.008 A 
ATOM     17  C   UNL     1      -3.873  -0.634  23.908  0.00  0.00    +0.038 A 
ATOM     18  C   UNL     1      -3.729  -3.018  24.274  0.00  0.00    +0.038 A 
ATOM     19  C   UNL     1      -4.476  -1.892  23.927  0.00  0.00    +0.123 A 
ENDBRANCH  12  14
ENDBRANCH   4  12
TORSDOF 2
ENDMDL
MODEL 7
REMARK VINA RESULT:      -2.2      4.266      5.798
REMARK  Name = 75537099
REMARK  3 active torsions:
REMARK  status: ('A' for Active; 'I' for Inactive)
REMARK    1  A    between atoms: N_4  and  C_12
REMARK    2  A    between atoms: N_5  and  C_13
REMARK    3  A    between atoms: C_12  and  C_14
REMARK                            x       y       z     vdW  Elec       q    Type
REMARK                         _______ _______ _______ _____ _____    ______ ____
ROOT
ATOM      2  O   UNL     1      -1.927   5.919  25.638  0.00  0.00    -0.252 OA
ATOM      3  N   UNL     1      -3.041   4.036  24.786  0.00  0.00    -0.278 N 
ATOM      4  N   UNL     1      -4.705   1.768  24.738  0.00  0.00    -0.295 NA
ATOM      5  N   UNL     1      -0.879   4.325  24.251  0.00  0.00    -0.287 N 
ATOM      6  C   UNL     1      -2.755   2.974  23.843  0.00  0.00    +0.109 C 
ATOM      7  C   UNL     1      -3.281   1.639  24.369  0.00  0.00    +0.109 C 
ATOM      8  C   UNL     1      -1.239   3.044  23.669  0.00  0.00    +0.132 C 
ATOM      9  C   UNL     1      -4.378   4.161  25.328  0.00  0.00    +0.125 C 
ATOM     10  C   UNL     1      -4.888   2.792  25.786  0.00  0.00    +0.104 C 
ATOM     11  C   UNL     1      -1.948   4.893  24.973  0.00  0.00    +0.305 C 
ATOM     13  C   UNL     1       0.471   4.841  24.196  0.00  0.00    +0.133 C 
ENDROOT
BRANCH   4  12
ATOM     12  C   UNL     1      -5.234   0.480  25.186  0.00  0.00    +0.119 C 
BRANCH  12  14
ATOM      1  F   UNL     1      -1.523  -3.691  24.421  0.00  0.00    -0.205 F 
ATOM     14  C   UNL     1      -4.242  -0.634  24.981  0.00  0.00    -0.033 A 
ATOM     15  C   UNL     1      -4.453  -1.579  23.977  0.00  0.00    +0.008 A 
ATOM     16  C   UNL     1      -3.114  -0.723  25.797  0.00  0.00    +0.008 A 
ATOM     17  C   UNL     1      -3.535  -2.611  23.787  0.00  0.00    +0.038 A 
ATOM     18  C   UNL     1      -2.195  -1.755  25.607  0.00  0.00    +0.038 A 
ATOM     19  C   UNL     1      -2.406  -2.700  24.603  0.00  0.00    +0.123 A 
ENDBRANCH  12  14
ENDBRANCH   4  12
TORSDOF 2
ENDMDL
MODEL 8
REMARK VINA RESULT:      -1.8     12.930     15.618
REMARK  Name = 75537099
REMARK  3 active torsions:
REMARK  status: ('A' for Active; 'I' for Inactive)
REMARK    1  A    between atoms: N_4  and  C_12
REMARK    2  A    between atoms: N_5  and  C_13
REMARK    3  A    between atoms: C_12  and  C_14
REMARK                            x       y       z     vdW  Elec       q    Type
REMARK                         _______ _______ _______ _____ _____    ______ ____
ROOT
ATOM      2  O   UNL     1      14.229   8.116  15.192  0.00  0.00    -0.252 OA
ATOM      3  N   UNL     1      13.879   8.489  17.484  0.00  0.00    -0.278 N 
ATOM      4  N   UNL     1      13.958   8.037  20.259  0.00  0.00    -0.295 NA
ATOM      5  N   UNL     1      12.175   8.873  16.071  0.00  0.00    -0.287 N 
ATOM      6  C   UNL     1      12.836   9.050  18.317  0.00  0.00    +0.109 C 
ATOM      7  C   UNL     1      12.657   8.213  19.583  0.00  0.00    +0.109 C 
ATOM      8  C   UNL     1      11.619   9.090  17.396  0.00  0.00    +0.132 C 
ATOM      9  C   UNL     1      15.151   8.138  18.080  0.00  0.00    +0.125 C 
ATOM     10  C   UNL     1      14.924   7.353  19.375  0.00  0.00    +0.104 C 
ATOM     11  C   UNL     1      13.520   8.454  16.130  0.00  0.00    +0.305 C 
ATOM     13  C   UNL     1      11.364   8.945  14.876  0.00  0.00    +0.133 C 
ENDROOT
BRANCH   4  12
ATOM     12  C   UNL     1      13.788   7.287  21.504  0.00  0.00    +0.119 C 
BRANCH  12  14
ATOM      1  F   UNL     1       8.352   6.371  22.669  0.00  0.00    -0.205 F 
ATOM     14  C   UNL     1      12.336   7.042  21.815  0.00  0.00    -0.033 A 
ATOM     15  C   UNL     1      11.776   5.785  21.588  0.00  0.00    +0.008 A 
ATOM     16  C   UNL     1      11.549   8.072  22.331  0.00  0.00    +0.008 A 
ATOM     17  C   UNL     1      10.431   5.558  21.876  0.00  0.00    +0.038 A 
ATOM     18  C   UNL     1      10.203   7.845  22.619  0.00  0.00    +0.038 A 
ATOM     19  C   UNL     1       9.644   6.588  22.391  0.00  0.00    +0.123 A 
ENDBRANCH  12  14
ENDBRANCH   4  12
TORSDOF 2
ENDMDL
MODEL 9
REMARK VINA RESULT:      -1.6      3.959      7.601
REMARK  Name = 75537099
REMARK  3 active torsions:
REMARK  status: ('A' for Active; 'I' for Inactive)
REMARK    1  A    between atoms: N_4  and  C_12
REMARK    2  A    between atoms: N_5  and  C_13
REMARK    3  A    between atoms: C_12  and  C_14
REMARK                            x       y       z     vdW  Elec       q    Type
REMARK                         _______ _______ _______ _____ _____    ______ ____
ROOT
ATOM      2  O   UNL     1       1.272  -0.996  21.293  0.00  0.00    -0.252 OA
ATOM      3  N   UNL     1       0.633   0.242  23.184  0.00  0.00    -0.278 N 
ATOM      4  N   UNL     1      -0.946   1.878  24.840  0.00  0.00    -0.295 NA
ATOM      5  N   UNL     1       2.744   0.445  22.442  0.00  0.00    -0.287 N 
ATOM      6  C   UNL     1       1.284   1.083  24.167  0.00  0.00    +0.109 C 
ATOM      7  C   UNL     1       0.421   2.306  24.477  0.00  0.00    +0.109 C 
ATOM      8  C   UNL     1       2.638   1.398  23.534  0.00  0.00    +0.132 C 
ATOM      9  C   UNL     1      -0.758  -0.116  23.367  0.00  0.00    +0.125 C 
ATOM     10  C   UNL     1      -1.574   1.127  23.735  0.00  0.00    +0.104 C 
ATOM     11  C   UNL     1       1.519  -0.207  22.195  0.00  0.00    +0.305 C 
ATOM     13  C   UNL     1       3.941   0.327  21.639  0.00  0.00    +0.133 C 
ENDROOT
BRANCH   4  12
ATOM     12  C   UNL     1      -1.763   3.037  25.198  0.00  0.00    +0.119 C 
BRANCH  12  14
ATOM      1  F   UNL     1      -7.262   1.806  25.195  0.00  0.00    -0.205 F 
ATOM     14  C   UNL     1      -3.232   2.708  25.197  0.00  0.00    -0.033 A 
ATOM     15  C   UNL     1      -3.654   1.399  24.962  0.00  0.00    +0.008 A 
ATOM     16  C   UNL     1      -4.173   3.712  25.431  0.00  0.00    +0.008 A 
ATOM     17  C   UNL     1      -5.014   1.094  24.961  0.00  0.00    +0.038 A 
ATOM     18  C   UNL     1      -5.534   3.407  25.431  0.00  0.00    +0.038 A 
ATOM     19  C   UNL     1      -5.955   2.098  25.195  0.00  0.00    +0.123 A 
ENDBRANCH  12  14
ENDBRANCH   4  12
TORSDOF 2
ENDMDL
MODEL 10
REMARK VINA RESULT:      -1.0      4.637      6.019
REMARK  Name = 75537099
REMARK  3 active torsions:
REMARK  status: ('A' for Active; 'I' for Inactive)
REMARK    1  A    between atoms: N_4  and  C_12
REMARK    2  A    between atoms: N_5  and  C_13
REMARK    3  A    between atoms: C_12  and  C_14
REMARK                            x       y       z     vdW  Elec       q    Type
REMARK                         _______ _______ _______ _____ _____    ______ ____
ROOT
ATOM      2  O   UNL     1      -3.157  -3.793  24.648  0.00  0.00    -0.252 OA
ATOM      3  N   UNL     1      -2.195  -1.651  24.589  0.00  0.00    -0.278 N 
ATOM      4  N   UNL     1      -0.772   0.612  25.464  0.00  0.00    -0.295 NA
ATOM      5  N   UNL     1      -4.284  -1.902  23.802  0.00  0.00    -0.287 N 
ATOM      6  C   UNL     1      -2.536  -0.354  24.045  0.00  0.00    +0.109 C 
ATOM      7  C   UNL     1      -2.180   0.751  25.039  0.00  0.00    +0.109 C 
ATOM      8  C   UNL     1      -4.025  -0.475  23.726  0.00  0.00    +0.132 C 
ATOM      9  C   UNL     1      -0.884  -1.854  25.171  0.00  0.00    +0.125 C 
ATOM     10  C   UNL     1      -0.544  -0.695  26.111  0.00  0.00    +0.104 C 
ATOM     11  C   UNL     1      -3.203  -2.601  24.377  0.00  0.00    +0.305 C 
ATOM     13  C   UNL     1      -5.569  -2.468  23.457  0.00  0.00    +0.133 C 
ENDROOT
BRANCH   4  12
ATOM     12  C   UNL     1      -0.403   1.700  26.368  0.00  0.00    +0.119 C 
BRANCH  12  14
ATOM      1  F   UNL     1      -2.233   6.690  24.497  0.00  0.00    -0.205 F 
ATOM     14  C   UNL     1      -0.892   3.034  25.869  0.00  0.00    -0.033 A 
ATOM     15  C   UNL     1      -2.132   3.521  26.282  0.00  0.00    +0.008 A 
ATOM     16  C   UNL     1      -0.106   3.781  24.992  0.00  0.00    +0.008 A 
ATOM     17  C   UNL     1      -2.585   4.756  25.819  0.00  0.00    +0.038 A 
ATOM     18  C   UNL     1      -0.559   5.017  24.529  0.00  0.00    +0.038 A 
ATOM     19  C   UNL     1      -1.799   5.504  24.942  0.00  0.00    +0.123 A 
ENDBRANCH  12  14
ENDBRANCH   4  12
TORSDOF 2
ENDMDL
