MODEL 1
REMARK VINA RESULT:      -2.6      0.000      0.000
REMARK  Name = 11911954
REMARK  6 active torsions:
REMARK  status: ('A' for Active; 'I' for Inactive)
REMARK    1  A    between atoms: N_3  and  C_9
REMARK    2  A    between atoms: N_4  and  C_10
REMARK    3  A    between atoms: N_4  and  C_22
REMARK    4  A    between atoms: C_13  and  C_16
REMARK    5  A    between atoms: C_16  and  C_20
REMARK    6  A    between atoms: C_22  and  C_23
REMARK                            x       y       z     vdW  Elec       q    Type
REMARK                         _______ _______ _______ _____ _____    ______ ____
ROOT
ATOM      1  O   UNL     1      -2.282   0.515  26.150  0.00  0.00    -0.370 OA
ATOM      2  O   UNL     1      -3.627  -1.356  23.764  0.00  0.00    -0.370 OA
ATOM      7  C   UNL     1      -2.656  -0.313  23.940  0.00  0.00    +0.175 C 
ATOM      8  C   UNL     1      -3.181   0.600  25.038  0.00  0.00    +0.168 C 
ATOM      9  C   UNL     1      -1.353  -0.885  24.471  0.00  0.00    +0.166 C 
ATOM     10  C   UNL     1      -4.540   0.026  25.409  0.00  0.00    +0.111 C 
ATOM     11  C   UNL     1      -1.442  -0.632  25.971  0.00  0.00    +0.189 C 
ATOM     12  C   UNL     1      -4.882  -0.844  24.220  0.00  0.00    +0.181 C 
ENDROOT
BRANCH   9   3
ATOM      3  N   UNL     1      -0.168  -0.290  23.846  0.00  0.00    -0.244 N 
ATOM      5  N   UNL     1       0.274   0.920  24.229  0.00  0.00    -0.065 NA
ATOM      6  N   UNL     1       1.345   1.199  23.495  0.00  0.00    -0.134 NA
ATOM     17  C   UNL     1       0.607  -0.818  22.861  0.00  0.00    +0.134 A 
ATOM     20  C   UNL     1       1.542   0.145  22.670  0.00  0.00    +0.083 A 
BRANCH  20  16
ATOM     16  C   UNL     1       2.684   0.145  21.704  0.00  0.00    +0.062 C 
BRANCH  16  13
ATOM     13  C   UNL     1       4.015  -0.187  22.378  0.00  0.00    -0.005 C 
ATOM     14  C   UNL     1       4.601   1.056  23.062  0.00  0.00    +0.004 C 
ATOM     15  C   UNL     1       3.841  -1.332  23.384  0.00  0.00    +0.004 C 
ATOM     18  C   UNL     1       5.905   0.737  23.788  0.00  0.00    +0.000 C 
ATOM     19  C   UNL     1       5.147  -1.648  24.110  0.00  0.00    +0.000 C 
ATOM     21  C   UNL     1       5.731  -0.408  24.780  0.00  0.00    +0.000 C 
ENDBRANCH  16  13
ENDBRANCH  20  16
ENDBRANCH   9   3
BRANCH  10   4
ATOM      4  N   UNL     1      -5.531   1.036  25.650  0.00  0.00    -0.305 NA
ATOM     29  H   UNL     1      -5.405   1.425  26.584  0.00  0.00    +0.123 HD
BRANCH   4  22
ATOM     22  C   UNL     1      -5.437   2.097  24.659  0.00  0.00    +0.116 C 
BRANCH  22  23
ATOM     23  C   UNL     1      -4.277   3.017  24.933  0.00  0.00    -0.034 A 
ATOM     24  C   UNL     1      -3.368   3.292  23.920  0.00  0.00    +0.005 A 
ATOM     25  C   UNL     1      -4.131   3.576  26.195  0.00  0.00    +0.005 A 
ATOM     26  C   UNL     1      -2.292   4.143  24.174  0.00  0.00    +0.000 A 
ATOM     27  C   UNL     1      -3.056   4.429  26.449  0.00  0.00    +0.000 A 
ATOM     28  C   UNL     1      -2.137   4.712  25.439  0.00  0.00    +0.000 A 
ENDBRANCH  22  23
ENDBRANCH   4  22
ENDBRANCH  10   4
TORSDOF 6
ENDMDL
MODEL 2
REMARK VINA RESULT:      -1.7      1.532      3.383
REMARK  Name = 11911954
REMARK  6 active torsions:
REMARK  status: ('A' for Active; 'I' for Inactive)
REMARK    1  A    between atoms: N_3  and  C_9
REMARK    2  A    between atoms: N_4  and  C_10
REMARK    3  A    between atoms: N_4  and  C_22
REMARK    4  A    between atoms: C_13  and  C_16
REMARK    5  A    between atoms: C_16  and  C_20
REMARK    6  A    between atoms: C_22  and  C_23
REMARK                            x       y       z     vdW  Elec       q    Type
REMARK                         _______ _______ _______ _____ _____    ______ ____
ROOT
ATOM      1  O   UNL     1      -3.409   1.784  22.797  0.00  0.00    -0.370 OA
ATOM      2  O   UNL     1      -2.844   3.631  25.493  0.00  0.00    -0.370 OA
ATOM      7  C   UNL     1      -2.363   2.447  24.840  0.00  0.00    +0.175 C 
ATOM      8  C   UNL     1      -3.571   1.761  24.220  0.00  0.00    +0.168 C 
ATOM      9  C   UNL     1      -1.457   2.812  23.677  0.00  0.00    +0.166 C 
ATOM     10  C   UNL     1      -4.761   2.614  24.632  0.00  0.00    +0.111 C 
ATOM     11  C   UNL     1      -2.383   2.729  22.470  0.00  0.00    +0.189 C 
ATOM     12  C   UNL     1      -4.223   3.412  25.800  0.00  0.00    +0.181 C 
ENDROOT
BRANCH   9   3
ATOM      3  N   UNL     1      -0.279   1.946  23.572  0.00  0.00    -0.244 N 
ATOM      5  N   UNL     1       0.811   2.178  24.323  0.00  0.00    -0.065 NA
ATOM      6  N   UNL     1       1.708   1.248  24.014  0.00  0.00    -0.134 NA
ATOM     17  C   UNL     1      -0.111   0.864  22.765  0.00  0.00    +0.134 A 
ATOM     20  C   UNL     1       1.145   0.457  23.072  0.00  0.00    +0.083 A 
BRANCH  20  16
ATOM     16  C   UNL     1       1.905  -0.701  22.505  0.00  0.00    +0.062 C 
BRANCH  16  13
ATOM     13  C   UNL     1       3.413  -0.557  22.702  0.00  0.00    -0.005 C 
ATOM     14  C   UNL     1       3.791   0.912  22.936  0.00  0.00    +0.004 C 
ATOM     15  C   UNL     1       3.894  -1.436  23.864  0.00  0.00    +0.004 C 
ATOM     18  C   UNL     1       5.288   1.075  23.188  0.00  0.00    +0.000 C 
ATOM     19  C   UNL     1       5.391  -1.269  24.114  0.00  0.00    +0.000 C 
ATOM     21  C   UNL     1       5.764   0.193  24.337  0.00  0.00    +0.000 C 
ENDBRANCH  16  13
ENDBRANCH  20  16
ENDBRANCH   9   3
BRANCH  10   4
ATOM      4  N   UNL     1      -5.915   1.837  24.987  0.00  0.00    -0.305 NA
ATOM     29  H   UNL     1      -6.283   1.371  24.157  0.00  0.00    +0.123 HD
BRANCH   4  22
ATOM     22  C   UNL     1      -5.579   0.848  25.999  0.00  0.00    +0.116 C 
BRANCH  22  23
ATOM     23  C   UNL     1      -4.722  -0.257  25.439  0.00  0.00    -0.034 A 
ATOM     24  C   UNL     1      -5.055  -0.830  24.219  0.00  0.00    +0.005 A 
ATOM     25  C   UNL     1      -3.612  -0.688  26.151  0.00  0.00    +0.005 A 
ATOM     26  C   UNL     1      -4.262  -1.853  23.702  0.00  0.00    +0.000 A 
ATOM     27  C   UNL     1      -2.818  -1.711  25.633  0.00  0.00    +0.000 A 
ATOM     28  C   UNL     1      -3.143  -2.294  24.409  0.00  0.00    +0.000 A 
ENDBRANCH  22  23
ENDBRANCH   4  22
ENDBRANCH  10   4
TORSDOF 6
ENDMDL
MODEL 3
REMARK VINA RESULT:      -1.4      2.570      7.309
REMARK  Name = 11911954
REMARK  6 active torsions:
REMARK  status: ('A' for Active; 'I' for Inactive)
REMARK    1  A    between atoms: N_3  and  C_9
REMARK    2  A    between atoms: N_4  and  C_10
REMARK    3  A    between atoms: N_4  and  C_22
REMARK    4  A    between atoms: C_13  and  C_16
REMARK    5  A    between atoms: C_16  and  C_20
REMARK    6  A    between atoms: C_22  and  C_23
REMARK                            x       y       z     vdW  Elec       q    Type
REMARK                         _______ _______ _______ _____ _____    ______ ____
ROOT
ATOM      1  O   UNL     1      -0.469   0.902  26.175  0.00  0.00    -0.370 OA
ATOM      2  O   UNL     1       1.330   1.836  23.549  0.00  0.00    -0.370 OA
ATOM      7  C   UNL     1       0.025   2.016  24.120  0.00  0.00    +0.175 C 
ATOM      8  C   UNL     1      -0.364   0.693  24.761  0.00  0.00    +0.168 C 
ATOM      9  C   UNL     1       0.077   3.023  25.255  0.00  0.00    +0.166 C 
ATOM     10  C   UNL     1       0.788  -0.249  24.448  0.00  0.00    +0.111 C 
ATOM     11  C   UNL     1       0.162   2.148  26.499  0.00  0.00    +0.189 C 
ATOM     12  C   UNL     1       1.490   0.437  23.297  0.00  0.00    +0.181 C 
ENDROOT
BRANCH   9   3
ATOM      3  N   UNL     1      -1.066   3.941  25.262  0.00  0.00    -0.244 N 
ATOM      5  N   UNL     1      -0.895   5.251  25.019  0.00  0.00    -0.065 NA
ATOM      6  N   UNL     1      -2.090   5.826  25.096  0.00  0.00    -0.134 NA
ATOM     17  C   UNL     1      -2.372   3.641  25.499  0.00  0.00    +0.134 A 
ATOM     20  C   UNL     1      -2.978   4.848  25.385  0.00  0.00    +0.083 A 
BRANCH  20  16
ATOM     16  C   UNL     1      -4.432   5.170  25.540  0.00  0.00    +0.062 C 
BRANCH  16  13
ATOM     13  C   UNL     1      -5.320   3.941  25.356  0.00  0.00    -0.005 C 
ATOM     14  C   UNL     1      -4.713   2.983  24.322  0.00  0.00    +0.004 C 
ATOM     15  C   UNL     1      -5.543   3.227  26.696  0.00  0.00    +0.004 C 
ATOM     18  C   UNL     1      -5.557   1.721  24.160  0.00  0.00    +0.000 C 
ATOM     19  C   UNL     1      -6.385   1.965  26.530  0.00  0.00    +0.000 C 
ATOM     21  C   UNL     1      -5.783   1.020  25.495  0.00  0.00    +0.000 C 
ENDBRANCH  16  13
ENDBRANCH  20  16
ENDBRANCH   9   3
BRANCH  10   4
ATOM      4  N   UNL     1       0.355  -1.576  24.110  0.00  0.00    -0.305 NA
ATOM     29  H   UNL     1       1.164  -2.193  24.037  0.00  0.00    +0.123 HD
BRANCH   4  22
ATOM     22  C   UNL     1      -0.564  -2.089  25.114  0.00  0.00    +0.116 C 
BRANCH  22  23
ATOM     23  C   UNL     1      -1.987  -2.092  24.621  0.00  0.00    -0.034 A 
ATOM     24  C   UNL     1      -2.710  -3.278  24.628  0.00  0.00    +0.005 A 
ATOM     25  C   UNL     1      -2.555  -0.912  24.165  0.00  0.00    +0.005 A 
ATOM     26  C   UNL     1      -4.027  -3.282  24.170  0.00  0.00    +0.000 A 
ATOM     27  C   UNL     1      -3.873  -0.915  23.708  0.00  0.00    +0.000 A 
ATOM     28  C   UNL     1      -4.609  -2.100  23.710  0.00  0.00    +0.000 A 
ENDBRANCH  22  23
ENDBRANCH   4  22
ENDBRANCH  10   4
TORSDOF 6
ENDMDL
MODEL 4
REMARK VINA RESULT:      -0.3      1.396      7.349
REMARK  Name = 11911954
REMARK  6 active torsions:
REMARK  status: ('A' for Active; 'I' for Inactive)
REMARK    1  A    between atoms: N_3  and  C_9
REMARK    2  A    between atoms: N_4  and  C_10
REMARK    3  A    between atoms: N_4  and  C_22
REMARK    4  A    between atoms: C_13  and  C_16
REMARK    5  A    between atoms: C_16  and  C_20
REMARK    6  A    between atoms: C_22  and  C_23
REMARK                            x       y       z     vdW  Elec       q    Type
REMARK                         _______ _______ _______ _____ _____    ______ ____
ROOT
ATOM      1  O   UNL     1      -1.989   0.172  23.008  0.00  0.00    -0.370 OA
ATOM      2  O   UNL     1      -2.591  -2.149  25.300  0.00  0.00    -0.370 OA
ATOM      7  C   UNL     1      -2.743  -0.738  25.085  0.00  0.00    +0.175 C 
ATOM      8  C   UNL     1      -1.531  -0.278  24.288  0.00  0.00    +0.168 C 
ATOM      9  C   UNL     1      -3.945  -0.464  24.198  0.00  0.00    +0.166 C 
ATOM     10  C   UNL     1      -0.667  -1.520  24.137  0.00  0.00    +0.111 C 
ATOM     11  C   UNL     1      -3.331  -0.296  22.813  0.00  0.00    +0.189 C 
ATOM     12  C   UNL     1      -1.193  -2.439  25.217  0.00  0.00    +0.181 C 
ENDROOT
BRANCH   9   3
ATOM      3  N   UNL     1      -4.729   0.695  24.635  0.00  0.00    -0.244 N 
ATOM      5  N   UNL     1      -6.053   0.591  24.834  0.00  0.00    -0.065 NA
ATOM      6  N   UNL     1      -6.490   1.786  25.216  0.00  0.00    -0.134 NA
ATOM     17  C   UNL     1      -4.282   1.956  24.884  0.00  0.00    +0.134 A 
ATOM     20  C   UNL     1      -5.415   2.607  25.245  0.00  0.00    +0.083 A 
BRANCH  20  16
ATOM     16  C   UNL     1      -5.570   4.041  25.641  0.00  0.00    +0.062 C 
BRANCH  16  13
ATOM     13  C   UNL     1      -4.241   4.795  25.621  0.00  0.00    -0.005 C 
ATOM     14  C   UNL     1      -3.157   4.002  26.364  0.00  0.00    +0.004 C 
ATOM     15  C   UNL     1      -3.809   5.092  24.179  0.00  0.00    +0.004 C 
ATOM     18  C   UNL     1      -1.806   4.711  26.311  0.00  0.00    +0.000 C 
ATOM     19  C   UNL     1      -2.457   5.799  24.130  0.00  0.00    +0.000 C 
ATOM     21  C   UNL     1      -1.384   5.013  24.877  0.00  0.00    +0.000 C 
ENDBRANCH  16  13
ENDBRANCH  20  16
ENDBRANCH   9   3
BRANCH  10   4
ATOM      4  N   UNL     1       0.736  -1.252  24.283  0.00  0.00    -0.305 NA
ATOM     29  H   UNL     1       1.242  -2.128  24.414  0.00  0.00    +0.123 HD
BRANCH   4  22
ATOM     22  C   UNL     1       1.252  -0.558  23.113  0.00  0.00    +0.116 C 
BRANCH  22  23
ATOM     23  C   UNL     1       2.738  -0.330  23.207  0.00  0.00    -0.034 A 
ATOM     24  C   UNL     1       3.550  -1.328  23.729  0.00  0.00    +0.005 A 
ATOM     25  C   UNL     1       3.273   0.874  22.774  0.00  0.00    +0.005 A 
ATOM     26  C   UNL     1       4.926  -1.116  23.817  0.00  0.00    +0.000 A 
ATOM     27  C   UNL     1       4.649   1.085  22.861  0.00  0.00    +0.000 A 
ATOM     28  C   UNL     1       5.476   0.091  23.383  0.00  0.00    +0.000 A 
ENDBRANCH  22  23
ENDBRANCH   4  22
ENDBRANCH  10   4
TORSDOF 6
ENDMDL
MODEL 5
REMARK VINA RESULT:       0.4      2.944      5.271
REMARK  Name = 11911954
REMARK  6 active torsions:
REMARK  status: ('A' for Active; 'I' for Inactive)
REMARK    1  A    between atoms: N_3  and  C_9
REMARK    2  A    between atoms: N_4  and  C_10
REMARK    3  A    between atoms: N_4  and  C_22
REMARK    4  A    between atoms: C_13  and  C_16
REMARK    5  A    between atoms: C_16  and  C_20
REMARK    6  A    between atoms: C_22  and  C_23
REMARK                            x       y       z     vdW  Elec       q    Type
REMARK                         _______ _______ _______ _____ _____    ______ ____
ROOT
ATOM      1  O   UNL     1      -2.655   2.783  23.590  0.00  0.00    -0.370 OA
ATOM      2  O   UNL     1      -0.050   4.619  24.510  0.00  0.00    -0.370 OA
ATOM      7  C   UNL     1      -0.566   3.285  24.635  0.00  0.00    +0.175 C 
ATOM      8  C   UNL     1      -2.079   3.403  24.745  0.00  0.00    +0.168 C 
ATOM      9  C   UNL     1      -0.308   2.495  23.364  0.00  0.00    +0.166 C 
ATOM     10  C   UNL     1      -2.357   4.898  24.740  0.00  0.00    +0.111 C 
ATOM     11  C   UNL     1      -1.626   2.602  22.608  0.00  0.00    +0.189 C 
ATOM     12  C   UNL     1      -1.015   5.499  25.094  0.00  0.00    +0.181 C 
ENDROOT
BRANCH   9   3
ATOM      3  N   UNL     1       0.109   1.113  23.621  0.00  0.00    -0.244 N 
ATOM      5  N   UNL     1       1.198   0.603  23.023  0.00  0.00    -0.065 NA
ATOM      6  N   UNL     1       1.324  -0.653  23.436  0.00  0.00    -0.134 NA
ATOM     17  C   UNL     1      -0.491   0.200  24.432  0.00  0.00    +0.134 A 
ATOM     20  C   UNL     1       0.301  -0.891  24.288  0.00  0.00    +0.083 A 
BRANCH  20  16
ATOM     16  C   UNL     1       0.154  -2.231  24.938  0.00  0.00    +0.062 C 
BRANCH  16  13
ATOM     13  C   UNL     1      -1.309  -2.602  25.177  0.00  0.00    -0.005 C 
ATOM     14  C   UNL     1      -2.054  -1.452  25.868  0.00  0.00    +0.004 C 
ATOM     15  C   UNL     1      -1.995  -2.981  23.857  0.00  0.00    +0.004 C 
ATOM     18  C   UNL     1      -3.532  -1.779  26.070  0.00  0.00    +0.000 C 
ATOM     19  C   UNL     1      -3.472  -3.306  24.062  0.00  0.00    +0.000 C 
ATOM     21  C   UNL     1      -4.207  -2.164  24.758  0.00  0.00    +0.000 C 
ENDBRANCH  16  13
ENDBRANCH  20  16
ENDBRANCH   9   3
BRANCH  10   4
ATOM      4  N   UNL     1      -3.388   5.282  25.661  0.00  0.00    -0.305 NA
ATOM     29  H   UNL     1      -4.231   5.539  25.146  0.00  0.00    +0.123 HD
BRANCH   4  22
ATOM     22  C   UNL     1      -3.688   4.197  26.582  0.00  0.00    +0.116 C 
BRANCH  22  23
ATOM     23  C   UNL     1      -4.625   3.188  25.973  0.00  0.00    -0.034 A 
ATOM     24  C   UNL     1      -4.204   1.875  25.811  0.00  0.00    +0.005 A 
ATOM     25  C   UNL     1      -5.895   3.585  25.580  0.00  0.00    +0.005 A 
ATOM     26  C   UNL     1      -5.071   0.940  25.245  0.00  0.00    +0.000 A 
ATOM     27  C   UNL     1      -6.763   2.650  25.015  0.00  0.00    +0.000 A 
ATOM     28  C   UNL     1      -6.351   1.328  24.847  0.00  0.00    +0.000 A 
ENDBRANCH  22  23
ENDBRANCH   4  22
ENDBRANCH  10   4
TORSDOF 6
ENDMDL
MODEL 6
REMARK VINA RESULT:       0.6      1.450      2.215
REMARK  Name = 11911954
REMARK  6 active torsions:
REMARK  status: ('A' for Active; 'I' for Inactive)
REMARK    1  A    between atoms: N_3  and  C_9
REMARK    2  A    between atoms: N_4  and  C_10
REMARK    3  A    between atoms: N_4  and  C_22
REMARK    4  A    between atoms: C_13  and  C_16
REMARK    5  A    between atoms: C_16  and  C_20
REMARK    6  A    between atoms: C_22  and  C_23
REMARK                            x       y       z     vdW  Elec       q    Type
REMARK                         _______ _______ _______ _____ _____    ______ ____
ROOT
ATOM      1  O   UNL     1      -2.954   0.864  26.315  0.00  0.00    -0.370 OA
ATOM      2  O   UNL     1      -4.544   1.104  23.414  0.00  0.00    -0.370 OA
ATOM      7  C   UNL     1      -3.214   1.119  23.953  0.00  0.00    +0.175 C 
ATOM      8  C   UNL     1      -3.291   1.819  25.302  0.00  0.00    +0.168 C 
ATOM      9  C   UNL     1      -2.746  -0.294  24.251  0.00  0.00    +0.166 C 
ATOM     10  C   UNL     1      -4.743   2.248  25.439  0.00  0.00    +0.111 C 
ATOM     11  C   UNL     1      -3.017  -0.449  25.743  0.00  0.00    +0.189 C 
ATOM     12  C   UNL     1      -5.255   2.189  24.017  0.00  0.00    +0.181 C 
ENDROOT
BRANCH   9   3
ATOM      3  N   UNL     1      -1.346  -0.526  23.884  0.00  0.00    -0.244 N 
ATOM      5  N   UNL     1      -0.649  -1.532  24.438  0.00  0.00    -0.065 NA
ATOM      6  N   UNL     1       0.575  -1.494  23.925  0.00  0.00    -0.134 NA
ATOM     17  C   UNL     1      -0.589   0.182  23.002  0.00  0.00    +0.134 A 
ATOM     20  C   UNL     1       0.606  -0.457  23.058  0.00  0.00    +0.083 A 
BRANCH  20  16
ATOM     16  C   UNL     1       1.858  -0.140  22.303  0.00  0.00    +0.062 C 
BRANCH  16  13
ATOM     13  C   UNL     1       3.082  -0.065  23.215  0.00  0.00    -0.005 C 
ATOM     14  C   UNL     1       3.784  -1.428  23.291  0.00  0.00    +0.004 C 
ATOM     15  C   UNL     1       4.051   1.023  22.735  0.00  0.00    +0.004 C 
ATOM     18  C   UNL     1       5.041  -1.365  24.156  0.00  0.00    +0.000 C 
ATOM     19  C   UNL     1       5.307   1.081  23.600  0.00  0.00    +0.000 C 
ATOM     21  C   UNL     1       5.998  -0.276  23.681  0.00  0.00    +0.000 C 
ENDBRANCH  16  13
ENDBRANCH  20  16
ENDBRANCH   9   3
BRANCH  10   4
ATOM      4  N   UNL     1      -4.892   3.553  26.019  0.00  0.00    -0.305 NA
ATOM     29  H   UNL     1      -5.756   3.591  26.561  0.00  0.00    +0.123 HD
BRANCH   4  22
ATOM     22  C   UNL     1      -3.761   3.868  26.878  0.00  0.00    +0.116 C 
BRANCH  22  23
ATOM     23  C   UNL     1      -2.549   4.274  26.081  0.00  0.00    -0.034 A 
ATOM     24  C   UNL     1      -1.413   3.477  26.110  0.00  0.00    +0.005 A 
ATOM     25  C   UNL     1      -2.585   5.440  25.330  0.00  0.00    +0.005 A 
ATOM     26  C   UNL     1      -0.290   3.855  25.373  0.00  0.00    +0.000 A 
ATOM     27  C   UNL     1      -1.463   5.817  24.592  0.00  0.00    +0.000 A 
ATOM     28  C   UNL     1      -0.315   5.025  24.614  0.00  0.00    +0.000 A 
ENDBRANCH  22  23
ENDBRANCH   4  22
ENDBRANCH  10   4
TORSDOF 6
ENDMDL
MODEL 7
REMARK VINA RESULT:       0.9      2.185      6.389
REMARK  Name = 11911954
REMARK  6 active torsions:
REMARK  status: ('A' for Active; 'I' for Inactive)
REMARK    1  A    between atoms: N_3  and  C_9
REMARK    2  A    between atoms: N_4  and  C_10
REMARK    3  A    between atoms: N_4  and  C_22
REMARK    4  A    between atoms: C_13  and  C_16
REMARK    5  A    between atoms: C_16  and  C_20
REMARK    6  A    between atoms: C_22  and  C_23
REMARK                            x       y       z     vdW  Elec       q    Type
REMARK                         _______ _______ _______ _____ _____    ______ ____
ROOT
ATOM      1  O   UNL     1      -2.983  -0.270  23.247  0.00  0.00    -0.370 OA
ATOM      2  O   UNL     1      -4.098  -2.213  25.693  0.00  0.00    -0.370 OA
ATOM      7  C   UNL     1      -3.703  -0.855  25.449  0.00  0.00    +0.175 C 
ATOM      8  C   UNL     1      -2.549  -0.901  24.458  0.00  0.00    +0.168 C 
ATOM      9  C   UNL     1      -4.816  -0.096  24.748  0.00  0.00    +0.166 C 
ATOM     10  C   UNL     1      -2.292  -2.381  24.223  0.00  0.00    +0.111 C 
ATOM     11  C   UNL     1      -4.411  -0.152  23.280  0.00  0.00    +0.189 C 
ATOM     12  C   UNL     1      -2.966  -3.039  25.407  0.00  0.00    +0.181 C 
ENDROOT
BRANCH   9   3
ATOM      3  N   UNL     1      -4.989   1.268  25.256  0.00  0.00    -0.244 N 
ATOM      5  N   UNL     1      -6.135   1.638  25.851  0.00  0.00    -0.065 NA
ATOM      6  N   UNL     1      -6.006   2.913  26.198  0.00  0.00    -0.134 NA
ATOM     17  C   UNL     1      -4.096   2.293  25.207  0.00  0.00    +0.134 A 
ATOM     20  C   UNL     1      -4.772   3.304  25.807  0.00  0.00    +0.083 A 
BRANCH  20  16
ATOM     16  C   UNL     1      -4.309   4.705  26.056  0.00  0.00    +0.062 C 
BRANCH  16  13
ATOM     13  C   UNL     1      -2.786   4.825  26.030  0.00  0.00    -0.005 C 
ATOM     14  C   UNL     1      -2.131   3.442  26.148  0.00  0.00    +0.004 C 
ATOM     15  C   UNL     1      -2.320   5.543  24.756  0.00  0.00    +0.004 C 
ATOM     18  C   UNL     1      -0.609   3.532  26.071  0.00  0.00    +0.000 C 
ATOM     19  C   UNL     1      -0.798   5.629  24.682  0.00  0.00    +0.000 C 
ATOM     21  C   UNL     1      -0.150   4.254  24.809  0.00  0.00    +0.000 C 
ENDBRANCH  16  13
ENDBRANCH  20  16
ENDBRANCH   9   3
BRANCH  10   4
ATOM      4  N   UNL     1      -0.896  -2.704  24.141  0.00  0.00    -0.305 NA
ATOM     29  H   UNL     1      -0.571  -2.581  23.181  0.00  0.00    +0.123 HD
BRANCH   4  22
ATOM     22  C   UNL     1      -0.118  -1.860  25.034  0.00  0.00    +0.116 C 
BRANCH  22  23
ATOM     23  C   UNL     1       0.591  -0.759  24.289  0.00  0.00    -0.034 A 
ATOM     24  C   UNL     1       0.173   0.555  24.452  0.00  0.00    +0.005 A 
ATOM     25  C   UNL     1       1.649  -1.074  23.450  0.00  0.00    +0.005 A 
ATOM     26  C   UNL     1       0.828   1.574  23.761  0.00  0.00    +0.000 A 
ATOM     27  C   UNL     1       2.305  -0.055  22.760  0.00  0.00    +0.000 A 
ATOM     28  C   UNL     1       1.895   1.269  22.914  0.00  0.00    +0.000 A 
ENDBRANCH  22  23
ENDBRANCH   4  22
ENDBRANCH  10   4
TORSDOF 6
ENDMDL
