MODEL 1
REMARK VINA RESULT:      -6.6      0.000      0.000
REMARK  Name = 75536682
REMARK  8 active torsions:
REMARK  status: ('A' for Active; 'I' for Inactive)
REMARK    1  A    between atoms: S_1  and  N_7
REMARK    2  A    between atoms: S_1  and  C_15
REMARK    3  A    between atoms: O_3  and  C_9
REMARK    4  A    between atoms: N_6  and  C_8
REMARK    5  A    between atoms: N_6  and  C_13
REMARK    6  A    between atoms: N_7  and  C_12
REMARK    7  A    between atoms: C_10  and  C_12
REMARK    8  A    between atoms: C_13  and  C_14
REMARK                            x       y       z     vdW  Elec       q    Type
REMARK                         _______ _______ _______ _____ _____    ______ ____
ROOT
ATOM      2  O   UNL     1      -0.422   3.293  25.635  0.00  0.00    -0.371 OA
ATOM      8  C   UNL     1       0.085   1.595  24.054  0.00  0.00    +0.111 C 
ATOM      9  C   UNL     1      -1.394   1.924  23.970  0.00  0.00    +0.164 C 
ATOM     10  C   UNL     1      -1.423   3.308  24.605  0.00  0.00    +0.164 C 
ATOM     11  C   UNL     1       0.444   2.165  25.417  0.00  0.00    +0.181 C 
ENDROOT
BRANCH   9   3
ATOM      3  O   UNL     1      -1.875   1.943  22.640  0.00  0.00    -0.388 OA
ATOM     27  H   UNL     1      -1.156   2.246  22.060  0.00  0.00    +0.210 HD
ENDBRANCH   9   3
BRANCH   8   6
ATOM      6  N   UNL     1       0.373   0.174  23.941  0.00  0.00    -0.305 NA
ATOM     26  H   UNL     1      -0.506  -0.341  23.890  0.00  0.00    +0.123 HD
BRANCH   6  13
ATOM     13  C   UNL     1       1.157  -0.109  22.745  0.00  0.00    +0.116 C 
BRANCH  13  14
ATOM     14  C   UNL     1       2.634  -0.123  23.032  0.00  0.00    -0.034 A 
ATOM     16  C   UNL     1       3.412   1.000  22.743  0.00  0.00    +0.005 A 
ATOM     17  C   UNL     1       3.227  -1.257  23.587  0.00  0.00    +0.005 A 
ATOM     20  C   UNL     1       4.781   0.987  23.010  0.00  0.00    +0.000 A 
ATOM     21  C   UNL     1       4.595  -1.269  23.854  0.00  0.00    +0.000 A 
ATOM     22  C   UNL     1       5.373  -0.148  23.565  0.00  0.00    +0.000 A 
ENDBRANCH  13  14
ENDBRANCH   6  13
ENDBRANCH   8   6
BRANCH  10  12
ATOM     12  C   UNL     1      -2.771   3.666  25.204  0.00  0.00    +0.140 C 
BRANCH  12   7
ATOM      7  N   UNL     1      -3.397   2.455  25.771  0.00  0.00    -0.187 NA
ATOM     28  H   UNL     1      -2.786   1.867  26.351  0.00  0.00    +0.148 HD
BRANCH   7   1
ATOM      1  S   UNL     1      -4.709   1.721  24.974  0.00  0.00    +0.058 S 
ATOM      4  O   UNL     1      -4.786   2.222  23.614  0.00  0.00    -0.153 OA
ATOM      5  O   UNL     1      -5.873   1.771  25.836  0.00  0.00    -0.153 OA
BRANCH   1  15
ATOM     15  C   UNL     1      -4.190   0.033  24.903  0.00  0.00    +0.105 A 
ATOM     18  C   UNL     1      -4.618  -0.784  23.857  0.00  0.00    +0.028 A 
ATOM     19  C   UNL     1      -3.355  -0.483  25.894  0.00  0.00    +0.028 A 
ATOM     23  C   UNL     1      -4.212  -2.118  23.802  0.00  0.00    +0.002 A 
ATOM     24  C   UNL     1      -2.950  -1.817  25.839  0.00  0.00    +0.002 A 
ATOM     25  C   UNL     1      -3.378  -2.634  24.794  0.00  0.00    +0.000 A 
ENDBRANCH   1  15
ENDBRANCH   7   1
ENDBRANCH  12   7
ENDBRANCH  10  12
TORSDOF 8
ENDMDL
MODEL 2
REMARK VINA RESULT:      -5.8      2.381      5.734
REMARK  Name = 75536682
REMARK  8 active torsions:
REMARK  status: ('A' for Active; 'I' for Inactive)
REMARK    1  A    between atoms: S_1  and  N_7
REMARK    2  A    between atoms: S_1  and  C_15
REMARK    3  A    between atoms: O_3  and  C_9
REMARK    4  A    between atoms: N_6  and  C_8
REMARK    5  A    between atoms: N_6  and  C_13
REMARK    6  A    between atoms: N_7  and  C_12
REMARK    7  A    between atoms: C_10  and  C_12
REMARK    8  A    between atoms: C_13  and  C_14
REMARK                            x       y       z     vdW  Elec       q    Type
REMARK                         _______ _______ _______ _____ _____    ______ ____
ROOT
ATOM      2  O   UNL     1      -2.331   3.388  23.401  0.00  0.00    -0.371 OA
ATOM      8  C   UNL     1      -4.517   2.684  24.006  0.00  0.00    +0.111 C 
ATOM      9  C   UNL     1      -3.961   3.569  25.106  0.00  0.00    +0.164 C 
ATOM     10  C   UNL     1      -2.869   4.320  24.354  0.00  0.00    +0.164 C 
ATOM     11  C   UNL     1      -3.250   2.289  23.266  0.00  0.00    +0.181 C 
ENDROOT
BRANCH   9   3
ATOM      3  O   UNL     1      -4.930   4.447  25.643  0.00  0.00    -0.388 OA
ATOM     27  H   UNL     1      -4.618   4.752  26.512  0.00  0.00    +0.210 HD
ENDBRANCH   9   3
BRANCH   8   6
ATOM      6  N   UNL     1      -5.263   1.538  24.501  0.00  0.00    -0.305 NA
ATOM     26  H   UNL     1      -5.400   0.875  23.738  0.00  0.00    +0.123 HD
BRANCH   6  13
ATOM     13  C   UNL     1      -4.546   0.872  25.582  0.00  0.00    +0.116 C 
BRANCH  13  14
ATOM     14  C   UNL     1      -4.153  -0.532  25.212  0.00  0.00    -0.034 A 
ATOM     16  C   UNL     1      -3.487  -1.338  26.138  0.00  0.00    +0.005 A 
ATOM     17  C   UNL     1      -4.453  -1.030  23.945  0.00  0.00    +0.005 A 
ATOM     20  C   UNL     1      -3.123  -2.639  25.795  0.00  0.00    +0.000 A 
ATOM     21  C   UNL     1      -4.089  -2.332  23.602  0.00  0.00    +0.000 A 
ATOM     22  C   UNL     1      -3.424  -3.137  24.527  0.00  0.00    +0.000 A 
ENDBRANCH  13  14
ENDBRANCH   6  13
ENDBRANCH   8   6
BRANCH  10  12
ATOM     12  C   UNL     1      -1.760   4.829  25.257  0.00  0.00    +0.140 C 
BRANCH  12   7
ATOM      7  N   UNL     1      -0.554   3.998  25.075  0.00  0.00    -0.187 NA
ATOM     28  H   UNL     1      -0.163   3.981  24.125  0.00  0.00    +0.148 HD
BRANCH   7   1
ATOM      1  S   UNL     1      -0.283   2.657  26.087  0.00  0.00    +0.058 S 
ATOM      4  O   UNL     1      -1.504   2.341  26.803  0.00  0.00    -0.153 OA
ATOM      5  O   UNL     1       0.957   2.856  26.812  0.00  0.00    -0.153 OA
BRANCH   1  15
ATOM     15  C   UNL     1       0.007   1.369  24.911  0.00  0.00    +0.105 A 
ATOM     18  C   UNL     1      -0.685   0.163  25.014  0.00  0.00    +0.028 A 
ATOM     19  C   UNL     1       0.929   1.559  23.881  0.00  0.00    +0.028 A 
ATOM     23  C   UNL     1      -0.454  -0.855  24.089  0.00  0.00    +0.002 A 
ATOM     24  C   UNL     1       1.160   0.540  22.956  0.00  0.00    +0.002 A 
ATOM     25  C   UNL     1       0.468  -0.666  23.060  0.00  0.00    +0.000 A 
ENDBRANCH   1  15
ENDBRANCH   7   1
ENDBRANCH  12   7
ENDBRANCH  10  12
TORSDOF 8
ENDMDL
MODEL 3
REMARK VINA RESULT:      -5.5      1.918      6.784
REMARK  Name = 75536682
REMARK  8 active torsions:
REMARK  status: ('A' for Active; 'I' for Inactive)
REMARK    1  A    between atoms: S_1  and  N_7
REMARK    2  A    between atoms: S_1  and  C_15
REMARK    3  A    between atoms: O_3  and  C_9
REMARK    4  A    between atoms: N_6  and  C_8
REMARK    5  A    between atoms: N_6  and  C_13
REMARK    6  A    between atoms: N_7  and  C_12
REMARK    7  A    between atoms: C_10  and  C_12
REMARK    8  A    between atoms: C_13  and  C_14
REMARK                            x       y       z     vdW  Elec       q    Type
REMARK                         _______ _______ _______ _____ _____    ______ ____
ROOT
ATOM      2  O   UNL     1      -1.534   2.378  22.980  0.00  0.00    -0.371 OA
ATOM      8  C   UNL     1      -3.123   2.771  24.702  0.00  0.00    +0.111 C 
ATOM      9  C   UNL     1      -1.775   2.468  25.331  0.00  0.00    +0.164 C 
ATOM     10  C   UNL     1      -0.835   2.773  24.172  0.00  0.00    +0.164 C 
ATOM     11  C   UNL     1      -2.929   2.223  23.297  0.00  0.00    +0.181 C 
ENDROOT
BRANCH   9   3
ATOM      3  O   UNL     1      -1.504   3.280  26.457  0.00  0.00    -0.388 OA
ATOM     27  H   UNL     1      -1.143   2.715  27.161  0.00  0.00    +0.210 HD
ENDBRANCH   9   3
BRANCH   8   6
ATOM      6  N   UNL     1      -4.242   2.159  25.399  0.00  0.00    -0.305 NA
ATOM     26  H   UNL     1      -4.912   2.885  25.654  0.00  0.00    +0.123 HD
BRANCH   6  13
ATOM     13  C   UNL     1      -4.910   1.174  24.555  0.00  0.00    +0.116 C 
BRANCH  13  14
ATOM     14  C   UNL     1      -4.332  -0.203  24.736  0.00  0.00    -0.034 A 
ATOM     16  C   UNL     1      -3.647  -0.525  25.909  0.00  0.00    +0.005 A 
ATOM     17  C   UNL     1      -4.481  -1.160  23.732  0.00  0.00    +0.005 A 
ATOM     20  C   UNL     1      -3.111  -1.801  26.076  0.00  0.00    +0.000 A 
ATOM     21  C   UNL     1      -3.946  -2.436  23.900  0.00  0.00    +0.000 A 
ATOM     22  C   UNL     1      -3.261  -2.757  25.071  0.00  0.00    +0.000 A 
ENDBRANCH  13  14
ENDBRANCH   6  13
ENDBRANCH   8   6
BRANCH  10  12
ATOM     12  C   UNL     1       0.487   2.031  24.261  0.00  0.00    +0.140 C 
BRANCH  12   7
ATOM      7  N   UNL     1       0.849   1.506  22.930  0.00  0.00    -0.187 NA
ATOM     28  H   UNL     1       0.470   2.023  22.127  0.00  0.00    +0.148 HD
BRANCH   7   1
ATOM      1  S   UNL     1       1.204  -0.147  22.734  0.00  0.00    +0.058 S 
ATOM      4  O   UNL     1       1.049  -0.509  21.338  0.00  0.00    -0.153 OA
ATOM      5  O   UNL     1       0.517  -0.902  23.764  0.00  0.00    -0.153 OA
BRANCH   1  15
ATOM     15  C   UNL     1       2.929  -0.195  23.121  0.00  0.00    +0.105 A 
ATOM     18  C   UNL     1       3.490  -1.353  23.659  0.00  0.00    +0.028 A 
ATOM     19  C   UNL     1       3.727   0.926  22.891  0.00  0.00    +0.028 A 
ATOM     23  C   UNL     1       4.850  -1.390  23.967  0.00  0.00    +0.002 A 
ATOM     24  C   UNL     1       5.087   0.888  23.201  0.00  0.00    +0.002 A 
ATOM     25  C   UNL     1       5.648  -0.269  23.738  0.00  0.00    +0.000 A 
ENDBRANCH   1  15
ENDBRANCH   7   1
ENDBRANCH  12   7
ENDBRANCH  10  12
TORSDOF 8
ENDMDL
MODEL 4
REMARK VINA RESULT:      -4.9      1.630      3.556
REMARK  Name = 75536682
REMARK  8 active torsions:
REMARK  status: ('A' for Active; 'I' for Inactive)
REMARK    1  A    between atoms: S_1  and  N_7
REMARK    2  A    between atoms: S_1  and  C_15
REMARK    3  A    between atoms: O_3  and  C_9
REMARK    4  A    between atoms: N_6  and  C_8
REMARK    5  A    between atoms: N_6  and  C_13
REMARK    6  A    between atoms: N_7  and  C_12
REMARK    7  A    between atoms: C_10  and  C_12
REMARK    8  A    between atoms: C_13  and  C_14
REMARK                            x       y       z     vdW  Elec       q    Type
REMARK                         _______ _______ _______ _____ _____    ______ ____
ROOT
ATOM      2  O   UNL     1      -2.099  -1.900  24.333  0.00  0.00    -0.371 OA
ATOM      8  C   UNL     1      -0.159  -0.530  24.353  0.00  0.00    +0.111 C 
ATOM      9  C   UNL     1      -1.243   0.135  25.182  0.00  0.00    +0.164 C 
ATOM     10  C   UNL     1      -2.145  -1.053  25.493  0.00  0.00    +0.164 C 
ATOM     11  C   UNL     1      -0.972  -1.513  23.527  0.00  0.00    +0.181 C 
ENDROOT
BRANCH   9   3
ATOM      3  O   UNL     1      -0.740   0.738  26.358  0.00  0.00    -0.388 OA
ATOM     27  H   UNL     1      -0.121   0.117  26.778  0.00  0.00    +0.210 HD
ENDBRANCH   9   3
BRANCH   8   6
ATOM      6  N   UNL     1       0.603   0.401  23.537  0.00  0.00    -0.305 NA
ATOM     26  H   UNL     1       1.190   0.973  24.144  0.00  0.00    +0.123 HD
BRANCH   6  13
ATOM     13  C   UNL     1       1.455  -0.309  22.590  0.00  0.00    +0.116 C 
BRANCH  13  14
ATOM     14  C   UNL     1       2.904  -0.260  22.993  0.00  0.00    -0.034 A 
ATOM     16  C   UNL     1       3.653   0.896  22.767  0.00  0.00    +0.005 A 
ATOM     17  C   UNL     1       3.499  -1.369  23.594  0.00  0.00    +0.005 A 
ATOM     20  C   UNL     1       4.996   0.942  23.142  0.00  0.00    +0.000 A 
ATOM     21  C   UNL     1       4.842  -1.323  23.968  0.00  0.00    +0.000 A 
ATOM     22  C   UNL     1       5.590  -0.168  23.742  0.00  0.00    +0.000 A 
ENDBRANCH  13  14
ENDBRANCH   6  13
ENDBRANCH   8   6
BRANCH  10  12
ATOM     12  C   UNL     1      -3.581  -0.657  25.784  0.00  0.00    +0.140 C 
BRANCH  12   7
ATOM      7  N   UNL     1      -4.104   0.159  24.670  0.00  0.00    -0.187 NA
ATOM     28  H   UNL     1      -3.622   0.046  23.770  0.00  0.00    +0.148 HD
BRANCH   7   1
ATOM      1  S   UNL     1      -4.888   1.635  24.990  0.00  0.00    +0.058 S 
ATOM      4  O   UNL     1      -5.479   1.588  26.315  0.00  0.00    -0.153 OA
ATOM      5  O   UNL     1      -5.699   1.997  23.843  0.00  0.00    -0.153 OA
BRANCH   1  15
ATOM     15  C   UNL     1      -3.529   2.763  25.039  0.00  0.00    +0.105 A 
ATOM     18  C   UNL     1      -2.527   2.690  24.071  0.00  0.00    +0.028 A 
ATOM     19  C   UNL     1      -3.456   3.724  26.048  0.00  0.00    +0.028 A 
ATOM     23  C   UNL     1      -1.452   3.579  24.112  0.00  0.00    +0.002 A 
ATOM     24  C   UNL     1      -2.380   4.612  26.088  0.00  0.00    +0.002 A 
ATOM     25  C   UNL     1      -1.379   4.539  25.120  0.00  0.00    +0.000 A 
ENDBRANCH   1  15
ENDBRANCH   7   1
ENDBRANCH  12   7
ENDBRANCH  10  12
TORSDOF 8
ENDMDL
MODEL 5
REMARK VINA RESULT:      -4.9      3.212      6.813
REMARK  Name = 75536682
REMARK  8 active torsions:
REMARK  status: ('A' for Active; 'I' for Inactive)
REMARK    1  A    between atoms: S_1  and  N_7
REMARK    2  A    between atoms: S_1  and  C_15
REMARK    3  A    between atoms: O_3  and  C_9
REMARK    4  A    between atoms: N_6  and  C_8
REMARK    5  A    between atoms: N_6  and  C_13
REMARK    6  A    between atoms: N_7  and  C_12
REMARK    7  A    between atoms: C_10  and  C_12
REMARK    8  A    between atoms: C_13  and  C_14
REMARK                            x       y       z     vdW  Elec       q    Type
REMARK                         _______ _______ _______ _____ _____    ______ ____
ROOT
ATOM      2  O   UNL     1      -1.543  -1.081  26.471  0.00  0.00    -0.371 OA
ATOM      8  C   UNL     1      -3.480  -1.725  25.257  0.00  0.00    +0.111 C 
ATOM      9  C   UNL     1      -2.265  -1.862  24.358  0.00  0.00    +0.164 C 
ATOM     10  C   UNL     1      -1.146  -1.939  25.388  0.00  0.00    +0.164 C 
ATOM     11  C   UNL     1      -2.949  -0.805  26.344  0.00  0.00    +0.181 C 
ENDROOT
BRANCH   9   3
ATOM      3  O   UNL     1      -2.315  -3.018  23.546  0.00  0.00    -0.388 OA
ATOM     27  H   UNL     1      -2.399  -3.795  24.125  0.00  0.00    +0.210 HD
ENDBRANCH   9   3
BRANCH   8   6
ATOM      6  N   UNL     1      -4.648  -1.185  24.580  0.00  0.00    -0.305 NA
ATOM     26  H   UNL     1      -5.302  -0.828  25.278  0.00  0.00    +0.123 HD
BRANCH   6  13
ATOM     13  C   UNL     1      -4.278  -0.098  23.681  0.00  0.00    +0.116 C 
BRANCH  13  14
ATOM     14  C   UNL     1      -4.602   1.250  24.267  0.00  0.00    -0.034 A 
ATOM     16  C   UNL     1      -5.427   1.343  25.389  0.00  0.00    +0.005 A 
ATOM     17  C   UNL     1      -4.078   2.406  23.690  0.00  0.00    +0.005 A 
ATOM     20  C   UNL     1      -5.726   2.592  25.933  0.00  0.00    +0.000 A 
ATOM     21  C   UNL     1      -4.378   3.654  24.233  0.00  0.00    +0.000 A 
ATOM     22  C   UNL     1      -5.202   3.748  25.354  0.00  0.00    +0.000 A 
ENDBRANCH  13  14
ENDBRANCH   6  13
ENDBRANCH   8   6
BRANCH  10  12
ATOM     12  C   UNL     1       0.200  -1.492  24.846  0.00  0.00    +0.140 C 
BRANCH  12   7
ATOM      7  N   UNL     1       0.390  -0.054  25.117  0.00  0.00    -0.187 NA
ATOM     28  H   UNL     1       0.064   0.274  26.034  0.00  0.00    +0.148 HD
BRANCH   7   1
ATOM      1  S   UNL     1       0.435   1.057  23.829  0.00  0.00    +0.058 S 
ATOM      4  O   UNL     1      -0.412   0.578  22.752  0.00  0.00    -0.153 OA
ATOM      5  O   UNL     1       1.814   1.418  23.565  0.00  0.00    -0.153 OA
BRANCH   1  15
ATOM     15  C   UNL     1      -0.343   2.473  24.545  0.00  0.00    +0.105 A 
ATOM     18  C   UNL     1      -1.086   2.341  25.718  0.00  0.00    +0.028 A 
ATOM     19  C   UNL     1      -0.217   3.721  23.935  0.00  0.00    +0.028 A 
ATOM     23  C   UNL     1      -1.704   3.458  26.282  0.00  0.00    +0.002 A 
ATOM     24  C   UNL     1      -0.835   4.838  24.500  0.00  0.00    +0.002 A 
ATOM     25  C   UNL     1      -1.578   4.707  25.672  0.00  0.00    +0.000 A 
ENDBRANCH   1  15
ENDBRANCH   7   1
ENDBRANCH  12   7
ENDBRANCH  10  12
TORSDOF 8
ENDMDL
MODEL 6
REMARK VINA RESULT:      -4.6      2.493      3.973
REMARK  Name = 75536682
REMARK  8 active torsions:
REMARK  status: ('A' for Active; 'I' for Inactive)
REMARK    1  A    between atoms: S_1  and  N_7
REMARK    2  A    between atoms: S_1  and  C_15
REMARK    3  A    between atoms: O_3  and  C_9
REMARK    4  A    between atoms: N_6  and  C_8
REMARK    5  A    between atoms: N_6  and  C_13
REMARK    6  A    between atoms: N_7  and  C_12
REMARK    7  A    between atoms: C_10  and  C_12
REMARK    8  A    between atoms: C_13  and  C_14
REMARK                            x       y       z     vdW  Elec       q    Type
REMARK                         _______ _______ _______ _____ _____    ______ ____
ROOT
ATOM      2  O   UNL     1      -0.775   2.931  26.472  0.00  0.00    -0.371 OA
ATOM      8  C   UNL     1       0.147   1.797  24.599  0.00  0.00    +0.111 C 
ATOM      9  C   UNL     1      -0.570   3.045  24.118  0.00  0.00    +0.164 C 
ATOM     10  C   UNL     1      -0.611   3.872  25.398  0.00  0.00    +0.164 C 
ATOM     11  C   UNL     1      -0.458   1.616  25.982  0.00  0.00    +0.181 C 
ENDROOT
BRANCH   9   3
ATOM      3  O   UNL     1       0.126   3.711  23.083  0.00  0.00    -0.388 OA
ATOM     27  H   UNL     1       0.488   4.539  23.442  0.00  0.00    +0.210 HD
ENDBRANCH   9   3
BRANCH   8   6
ATOM      6  N   UNL     1      -0.052   0.643  23.739  0.00  0.00    -0.305 NA
ATOM     26  H   UNL     1       0.563   0.722  22.928  0.00  0.00    +0.123 HD
BRANCH   6  13
ATOM     13  C   UNL     1       0.254  -0.597  24.444  0.00  0.00    +0.116 C 
BRANCH  13  14
ATOM     14  C   UNL     1      -0.994  -1.337  24.843  0.00  0.00    -0.034 A 
ATOM     16  C   UNL     1      -1.686  -0.968  25.997  0.00  0.00    +0.005 A 
ATOM     17  C   UNL     1      -1.459  -2.393  24.059  0.00  0.00    +0.005 A 
ATOM     20  C   UNL     1      -2.843  -1.654  26.366  0.00  0.00    +0.000 A 
ATOM     21  C   UNL     1      -2.616  -3.079  24.429  0.00  0.00    +0.000 A 
ATOM     22  C   UNL     1      -3.307  -2.711  25.582  0.00  0.00    +0.000 A 
ENDBRANCH  13  14
ENDBRANCH   6  13
ENDBRANCH   8   6
BRANCH  10  12
ATOM     12  C   UNL     1      -1.744   4.882  25.423  0.00  0.00    +0.140 C 
BRANCH  12   7
ATOM      7  N   UNL     1      -2.962   4.246  25.961  0.00  0.00    -0.187 NA
ATOM     28  H   UNL     1      -2.811   3.533  26.685  0.00  0.00    +0.148 HD
BRANCH   7   1
ATOM      1  S   UNL     1      -4.363   4.142  25.002  0.00  0.00    +0.058 S 
ATOM      4  O   UNL     1      -4.191   4.952  23.810  0.00  0.00    -0.153 OA
ATOM      5  O   UNL     1      -5.528   4.325  25.846  0.00  0.00    -0.153 OA
BRANCH   1  15
ATOM     15  C   UNL     1      -4.341   2.443  24.513  0.00  0.00    +0.105 A 
ATOM     18  C   UNL     1      -3.449   2.012  23.532  0.00  0.00    +0.028 A 
ATOM     19  C   UNL     1      -5.219   1.535  25.106  0.00  0.00    +0.028 A 
ATOM     23  C   UNL     1      -3.434   0.672  23.143  0.00  0.00    +0.002 A 
ATOM     24  C   UNL     1      -5.203   0.195  24.716  0.00  0.00    +0.002 A 
ATOM     25  C   UNL     1      -4.311  -0.236  23.736  0.00  0.00    +0.000 A 
ENDBRANCH   1  15
ENDBRANCH   7   1
ENDBRANCH  12   7
ENDBRANCH  10  12
TORSDOF 8
ENDMDL
MODEL 7
REMARK VINA RESULT:      -4.2      1.460      2.077
REMARK  Name = 75536682
REMARK  8 active torsions:
REMARK  status: ('A' for Active; 'I' for Inactive)
REMARK    1  A    between atoms: S_1  and  N_7
REMARK    2  A    between atoms: S_1  and  C_15
REMARK    3  A    between atoms: O_3  and  C_9
REMARK    4  A    between atoms: N_6  and  C_8
REMARK    5  A    between atoms: N_6  and  C_13
REMARK    6  A    between atoms: N_7  and  C_12
REMARK    7  A    between atoms: C_10  and  C_12
REMARK    8  A    between atoms: C_13  and  C_14
REMARK                            x       y       z     vdW  Elec       q    Type
REMARK                         _______ _______ _______ _____ _____    ______ ____
ROOT
ATOM      2  O   UNL     1      -2.458   4.104  26.067  0.00  0.00    -0.371 OA
ATOM      8  C   UNL     1      -0.760   2.641  25.280  0.00  0.00    +0.111 C 
ATOM      9  C   UNL     1      -1.907   2.648  24.287  0.00  0.00    +0.164 C 
ATOM     10  C   UNL     1      -2.597   3.958  24.644  0.00  0.00    +0.164 C 
ATOM     11  C   UNL     1      -1.434   3.202  26.522  0.00  0.00    +0.181 C 
ENDROOT
BRANCH   9   3
ATOM      3  O   UNL     1      -1.466   2.634  22.943  0.00  0.00    -0.388 OA
ATOM     27  H   UNL     1      -1.802   1.827  22.519  0.00  0.00    +0.210 HD
ENDBRANCH   9   3
BRANCH   8   6
ATOM      6  N   UNL     1      -0.183   1.325  25.496  0.00  0.00    -0.305 NA
ATOM     26  H   UNL     1      -0.587   0.918  26.340  0.00  0.00    +0.123 HD
BRANCH   6  13
ATOM     13  C   UNL     1      -0.457   0.441  24.369  0.00  0.00    +0.116 C 
BRANCH  13  14
ATOM     14  C   UNL     1       0.730   0.319  23.451  0.00  0.00    -0.034 A 
ATOM     16  C   UNL     1       1.907   1.012  23.736  0.00  0.00    +0.005 A 
ATOM     17  C   UNL     1       0.654  -0.487  22.315  0.00  0.00    +0.005 A 
ATOM     20  C   UNL     1       3.007   0.899  22.886  0.00  0.00    +0.000 A 
ATOM     21  C   UNL     1       1.753  -0.600  21.465  0.00  0.00    +0.000 A 
ATOM     22  C   UNL     1       2.930   0.093  21.750  0.00  0.00    +0.000 A 
ENDBRANCH  13  14
ENDBRANCH   6  13
ENDBRANCH   8   6
BRANCH  10  12
ATOM     12  C   UNL     1      -4.068   3.984  24.267  0.00  0.00    +0.140 C 
BRANCH  12   7
ATOM      7  N   UNL     1      -4.514   2.620  23.921  0.00  0.00    -0.187 NA
ATOM     28  H   UNL     1      -4.666   2.440  22.921  0.00  0.00    +0.148 HD
BRANCH   7   1
ATOM      1  S   UNL     1      -5.389   1.698  25.052  0.00  0.00    +0.058 S 
ATOM      4  O   UNL     1      -6.737   1.484  24.557  0.00  0.00    -0.153 OA
ATOM      5  O   UNL     1      -5.178   2.251  26.376  0.00  0.00    -0.153 OA
BRANCH   1  15
ATOM     15  C   UNL     1      -4.536   0.151  24.995  0.00  0.00    +0.105 A 
ATOM     18  C   UNL     1      -3.785  -0.271  26.092  0.00  0.00    +0.028 A 
ATOM     19  C   UNL     1      -4.611  -0.646  23.853  0.00  0.00    +0.028 A 
ATOM     23  C   UNL     1      -3.109  -1.490  26.046  0.00  0.00    +0.002 A 
ATOM     24  C   UNL     1      -3.933  -1.865  23.808  0.00  0.00    +0.002 A 
ATOM     25  C   UNL     1      -3.183  -2.287  24.904  0.00  0.00    +0.000 A 
ENDBRANCH   1  15
ENDBRANCH   7   1
ENDBRANCH  12   7
ENDBRANCH  10  12
TORSDOF 8
ENDMDL
MODEL 8
REMARK VINA RESULT:      -4.1      2.378      6.908
REMARK  Name = 75536682
REMARK  8 active torsions:
REMARK  status: ('A' for Active; 'I' for Inactive)
REMARK    1  A    between atoms: S_1  and  N_7
REMARK    2  A    between atoms: S_1  and  C_15
REMARK    3  A    between atoms: O_3  and  C_9
REMARK    4  A    between atoms: N_6  and  C_8
REMARK    5  A    between atoms: N_6  and  C_13
REMARK    6  A    between atoms: N_7  and  C_12
REMARK    7  A    between atoms: C_10  and  C_12
REMARK    8  A    between atoms: C_13  and  C_14
REMARK                            x       y       z     vdW  Elec       q    Type
REMARK                         _______ _______ _______ _____ _____    ______ ____
ROOT
ATOM      2  O   UNL     1      -1.229  -1.055  25.802  0.00  0.00    -0.371 OA
ATOM      8  C   UNL     1      -3.568  -0.702  25.592  0.00  0.00    +0.111 C 
ATOM      9  C   UNL     1      -3.028  -1.231  24.276  0.00  0.00    +0.164 C 
ATOM     10  C   UNL     1      -1.726  -1.877  24.733  0.00  0.00    +0.164 C 
ATOM     11  C   UNL     1      -2.297  -0.209  26.263  0.00  0.00    +0.181 C 
ENDROOT
BRANCH   9   3
ATOM      3  O   UNL     1      -3.895  -2.167  23.667  0.00  0.00    -0.388 OA
ATOM     27  H   UNL     1      -3.839  -3.003  24.161  0.00  0.00    +0.210 HD
ENDBRANCH   9   3
BRANCH   8   6
ATOM      6  N   UNL     1      -4.566   0.344  25.433  0.00  0.00    -0.305 NA
ATOM     26  H   UNL     1      -4.597   0.907  26.284  0.00  0.00    +0.123 HD
BRANCH   6  13
ATOM     13  C   UNL     1      -4.244   1.210  24.305  0.00  0.00    +0.116 C 
BRANCH  13  14
ATOM     14  C   UNL     1      -3.424   2.399  24.728  0.00  0.00    -0.034 A 
ATOM     16  C   UNL     1      -3.922   3.287  25.683  0.00  0.00    +0.005 A 
ATOM     17  C   UNL     1      -2.165   2.614  24.167  0.00  0.00    +0.005 A 
ATOM     20  C   UNL     1      -3.162   4.389  26.075  0.00  0.00    +0.000 A 
ATOM     21  C   UNL     1      -1.405   3.716  24.559  0.00  0.00    +0.000 A 
ATOM     22  C   UNL     1      -1.903   4.603  25.513  0.00  0.00    +0.000 A 
ENDBRANCH  13  14
ENDBRANCH   6  13
ENDBRANCH   8   6
BRANCH  10  12
ATOM     12  C   UNL     1      -0.684  -1.973  23.633  0.00  0.00    +0.140 C 
BRANCH  12   7
ATOM      7  N   UNL     1       0.503  -1.179  24.006  0.00  0.00    -0.187 NA
ATOM     28  H   UNL     1       0.647  -1.037  25.013  0.00  0.00    +0.148 HD
BRANCH   7   1
ATOM      1  S   UNL     1       1.126  -0.020  22.928  0.00  0.00    +0.058 S 
ATOM      4  O   UNL     1       0.703   1.303  23.348  0.00  0.00    -0.153 OA
ATOM      5  O   UNL     1       0.887  -0.463  21.568  0.00  0.00    -0.153 OA
BRANCH   1  15
ATOM     15  C   UNL     1       2.865  -0.154  23.217  0.00  0.00    +0.105 A 
ATOM     18  C   UNL     1       3.699   0.935  22.962  0.00  0.00    +0.028 A 
ATOM     19  C   UNL     1       3.402  -1.348  23.697  0.00  0.00    +0.028 A 
ATOM     23  C   UNL     1       5.072   0.828  23.187  0.00  0.00    +0.002 A 
ATOM     24  C   UNL     1       4.775  -1.453  23.921  0.00  0.00    +0.002 A 
ATOM     25  C   UNL     1       5.609  -0.366  23.667  0.00  0.00    +0.000 A 
ENDBRANCH   1  15
ENDBRANCH   7   1
ENDBRANCH  12   7
ENDBRANCH  10  12
TORSDOF 8
ENDMDL
MODEL 9
REMARK VINA RESULT:      -3.4      2.778      4.729
REMARK  Name = 75536682
REMARK  8 active torsions:
REMARK  status: ('A' for Active; 'I' for Inactive)
REMARK    1  A    between atoms: S_1  and  N_7
REMARK    2  A    between atoms: S_1  and  C_15
REMARK    3  A    between atoms: O_3  and  C_9
REMARK    4  A    between atoms: N_6  and  C_8
REMARK    5  A    between atoms: N_6  and  C_13
REMARK    6  A    between atoms: N_7  and  C_12
REMARK    7  A    between atoms: C_10  and  C_12
REMARK    8  A    between atoms: C_13  and  C_14
REMARK                            x       y       z     vdW  Elec       q    Type
REMARK                         _______ _______ _______ _____ _____    ______ ____
ROOT
ATOM      2  O   UNL     1      -0.973   2.628  26.278  0.00  0.00    -0.371 OA
ATOM      8  C   UNL     1       0.208   0.969  25.056  0.00  0.00    +0.111 C 
ATOM      9  C   UNL     1       0.165   2.248  24.240  0.00  0.00    +0.164 C 
ATOM     10  C   UNL     1      -0.116   3.279  25.325  0.00  0.00    +0.164 C 
ATOM     11  C   UNL     1      -0.915   1.208  26.051  0.00  0.00    +0.181 C 
ENDROOT
BRANCH   9   3
ATOM      3  O   UNL     1       1.382   2.509  23.568  0.00  0.00    -0.388 OA
ATOM     27  H   UNL     1       1.509   1.824  22.890  0.00  0.00    +0.210 HD
ENDBRANCH   9   3
BRANCH   8   6
ATOM      6  N   UNL     1       0.015  -0.235  24.263  0.00  0.00    -0.305 NA
ATOM     26  H   UNL     1       0.913  -0.525  23.875  0.00  0.00    +0.123 HD
BRANCH   6  13
ATOM     13  C   UNL     1      -0.519  -1.320  25.078  0.00  0.00    +0.116 C 
BRANCH  13  14
ATOM     14  C   UNL     1      -1.896  -1.731  24.630  0.00  0.00    -0.034 A 
ATOM     16  C   UNL     1      -2.664  -0.865  23.850  0.00  0.00    +0.005 A 
ATOM     17  C   UNL     1      -2.405  -2.977  24.994  0.00  0.00    +0.005 A 
ATOM     20  C   UNL     1      -3.940  -1.245  23.435  0.00  0.00    +0.000 A 
ATOM     21  C   UNL     1      -3.681  -3.357  24.579  0.00  0.00    +0.000 A 
ATOM     22  C   UNL     1      -4.449  -2.492  23.800  0.00  0.00    +0.000 A 
ENDBRANCH  13  14
ENDBRANCH   6  13
ENDBRANCH   8   6
BRANCH  10  12
ATOM     12  C   UNL     1      -0.792   4.533  24.801  0.00  0.00    +0.140 C 
BRANCH  12   7
ATOM      7  N   UNL     1      -2.247   4.444  25.032  0.00  0.00    -0.187 NA
ATOM     28  H   UNL     1      -2.539   4.367  26.014  0.00  0.00    +0.148 HD
BRANCH   7   1
ATOM      1  S   UNL     1      -3.262   3.794  23.831  0.00  0.00    +0.058 S 
ATOM      4  O   UNL     1      -2.530   2.797  23.072  0.00  0.00    -0.153 OA
ATOM      5  O   UNL     1      -3.939   4.879  23.147  0.00  0.00    -0.153 OA
BRANCH   1  15
ATOM     15  C   UNL     1      -4.479   2.955  24.801  0.00  0.00    +0.105 A 
ATOM     18  C   UNL     1      -5.276   3.673  25.691  0.00  0.00    +0.028 A 
ATOM     19  C   UNL     1      -4.638   1.575  24.679  0.00  0.00    +0.028 A 
ATOM     23  C   UNL     1      -6.234   3.011  26.460  0.00  0.00    +0.002 A 
ATOM     24  C   UNL     1      -5.596   0.913  25.448  0.00  0.00    +0.002 A 
ATOM     25  C   UNL     1      -6.394   1.631  26.338  0.00  0.00    +0.000 A 
ENDBRANCH   1  15
ENDBRANCH   7   1
ENDBRANCH  12   7
ENDBRANCH  10  12
TORSDOF 8
ENDMDL
MODEL 10
REMARK VINA RESULT:      -3.2     14.902     17.503
REMARK  Name = 75536682
REMARK  8 active torsions:
REMARK  status: ('A' for Active; 'I' for Inactive)
REMARK    1  A    between atoms: S_1  and  N_7
REMARK    2  A    between atoms: S_1  and  C_15
REMARK    3  A    between atoms: O_3  and  C_9
REMARK    4  A    between atoms: N_6  and  C_8
REMARK    5  A    between atoms: N_6  and  C_13
REMARK    6  A    between atoms: N_7  and  C_12
REMARK    7  A    between atoms: C_10  and  C_12
REMARK    8  A    between atoms: C_13  and  C_14
REMARK                            x       y       z     vdW  Elec       q    Type
REMARK                         _______ _______ _______ _____ _____    ______ ____
ROOT
ATOM      2  O   UNL     1      -6.186  -8.752  12.469  0.00  0.00    -0.371 OA
ATOM      8  C   UNL     1      -7.362  -9.482  10.539  0.00  0.00    +0.111 C 
ATOM      9  C   UNL     1      -7.862 -10.256  11.745  0.00  0.00    +0.164 C 
ATOM     10  C   UNL     1      -7.432  -9.337  12.881  0.00  0.00    +0.164 C 
ATOM     11  C   UNL     1      -6.035  -8.949  11.052  0.00  0.00    +0.181 C 
ENDROOT
BRANCH   9   3
ATOM      3  O   UNL     1      -9.262 -10.452  11.726  0.00  0.00    -0.388 OA
ATOM     27  H   UNL     1      -9.437 -11.408  11.707  0.00  0.00    +0.210 HD
ENDBRANCH   9   3
BRANCH   8   6
ATOM      6  N   UNL     1      -7.221 -10.296   9.342  0.00  0.00    -0.305 NA
ATOM     26  H   UNL     1      -7.290 -11.281   9.600  0.00  0.00    +0.123 HD
BRANCH   6  13
ATOM     13  C   UNL     1      -8.263  -9.987   8.371  0.00  0.00    +0.116 C 
BRANCH  13  14
ATOM     14  C   UNL     1      -8.662  -8.537   8.418  0.00  0.00    -0.034 A 
ATOM     16  C   UNL     1      -9.969  -8.183   8.757  0.00  0.00    +0.005 A 
ATOM     17  C   UNL     1      -7.726  -7.546   8.124  0.00  0.00    +0.005 A 
ATOM     20  C   UNL     1     -10.339  -6.839   8.801  0.00  0.00    +0.000 A 
ATOM     21  C   UNL     1      -8.096  -6.202   8.168  0.00  0.00    +0.000 A 
ATOM     22  C   UNL     1      -9.402  -5.848   8.506  0.00  0.00    +0.000 A 
ENDBRANCH  13  14
ENDBRANCH   6  13
ENDBRANCH   8   6
BRANCH  10  12
ATOM     12  C   UNL     1      -7.246 -10.062  14.202  0.00  0.00    +0.140 C 
BRANCH  12   7
ATOM      7  N   UNL     1      -8.558 -10.252  14.851  0.00  0.00    -0.187 NA
ATOM     28  H   UNL     1      -9.361 -10.345  14.216  0.00  0.00    +0.148 HD
BRANCH   7   1
ATOM      1  S   UNL     1      -8.831  -9.645  16.416  0.00  0.00    +0.058 S 
ATOM      4  O   UNL     1      -9.917 -10.381  17.035  0.00  0.00    -0.153 OA
ATOM      5  O   UNL     1      -8.872  -8.196  16.360  0.00  0.00    -0.153 OA
BRANCH   1  15
ATOM     15  C   UNL     1      -7.332 -10.088  17.242  0.00  0.00    +0.105 A 
ATOM     18  C   UNL     1      -7.357 -10.430  18.594  0.00  0.00    +0.028 A 
ATOM     19  C   UNL     1      -6.125 -10.093  16.543  0.00  0.00    +0.028 A 
ATOM     23  C   UNL     1      -6.174 -10.776  19.248  0.00  0.00    +0.002 A 
ATOM     24  C   UNL     1      -4.942 -10.439  17.197  0.00  0.00    +0.002 A 
ATOM     25  C   UNL     1      -4.967 -10.781  18.548  0.00  0.00    +0.000 A 
ENDBRANCH   1  15
ENDBRANCH   7   1
ENDBRANCH  12   7
ENDBRANCH  10  12
TORSDOF 8
ENDMDL
