MODEL 1
REMARK VINA RESULT:      -0.1      0.000      0.000
REMARK  Name = 7051282
REMARK  6 active torsions:
REMARK  status: ('A' for Active; 'I' for Inactive)
REMARK    1  A    between atoms: S_1  and  N_9
REMARK    2  A    between atoms: S_1  and  C_23
REMARK    3  A    between atoms: O_4  and  C_22
REMARK    4  A    between atoms: O_4  and  C_24
REMARK    5  A    between atoms: N_9  and  C_20
REMARK    6  A    between atoms: C_19  and  C_22
REMARK                            x       y       z     vdW  Elec       q    Type
REMARK                         _______ _______ _______ _____ _____    ______ ____
ROOT
ATOM      2  O   UNL     1      -0.474   2.636  26.385  0.00  0.00    -0.266 OA
ATOM      3  O   UNL     1      -5.735   1.918  27.108  0.00  0.00    -0.272 OA
ATOM      7  N   UNL     1      -5.329   3.117  25.159  0.00  0.00    -0.298 N 
ATOM      8  N   UNL     1      -2.150   3.280  24.878  0.00  0.00    -0.310 N 
ATOM     10  C   UNL     1      -3.854   5.119  25.386  0.00  0.00    +0.027 C 
ATOM     11  C   UNL     1      -3.959   3.918  23.242  0.00  0.00    +0.054 C 
ATOM     12  C   UNL     1      -3.894   5.307  23.874  0.00  0.00    +0.018 C 
ATOM     13  C   UNL     1      -5.111   4.378  25.871  0.00  0.00    +0.113 C 
ATOM     14  C   UNL     1      -2.565   4.377  25.760  0.00  0.00    +0.130 C 
ATOM     15  C   UNL     1      -5.249   3.205  23.693  0.00  0.00    +0.117 C 
ATOM     16  C   UNL     1      -2.750   3.085  23.626  0.00  0.00    +0.027 A 
ATOM     17  C   UNL     1      -2.279   2.149  22.782  0.00  0.00    +0.024 A 
ATOM     18  C   UNL     1      -1.053   2.502  25.307  0.00  0.00    +0.274 A 
ATOM     19  C   UNL     1      -5.674   1.972  25.876  0.00  0.00    +0.253 C 
ATOM     20  C   UNL     1      -0.594   1.471  24.343  0.00  0.00    +0.112 A 
ATOM     21  C   UNL     1      -1.168   1.313  23.150  0.00  0.00    +0.031 A 
ENDROOT
BRANCH  20   9
ATOM      9  N   UNL     1       0.485   0.630  24.666  0.00  0.00    -0.211 N 
ATOM     35  H   UNL     1       1.288   1.143  25.056  0.00  0.00    +0.174 HD
BRANCH   9   1
ATOM      1  S   UNL     1       0.892  -0.568  23.541  0.00  0.00    +0.072 S 
ATOM      5  O   UNL     1       0.667  -1.879  24.120  0.00  0.00    -0.150 OA
ATOM      6  O   UNL     1       0.327  -0.234  22.247  0.00  0.00    -0.150 OA
BRANCH   1  23
ATOM     23  C   UNL     1       2.641  -0.333  23.430  0.00  0.00    +0.108 A 
ATOM     25  C   UNL     1       3.486  -1.343  23.854  0.00  0.00    +0.029 A 
ATOM     26  C   UNL     1       3.131   0.856  22.922  0.00  0.00    +0.029 A 
ATOM     29  C   UNL     1       4.865  -1.158  23.769  0.00  0.00    +0.002 A 
ATOM     30  C   UNL     1       4.511   1.042  22.836  0.00  0.00    +0.002 A 
ATOM     31  C   UNL     1       5.378   0.034  23.260  0.00  0.00    +0.000 A 
ENDBRANCH   1  23
ENDBRANCH   9   1
ENDBRANCH  20   9
BRANCH  19  22
ATOM     22  C   UNL     1      -5.975   0.734  25.069  0.00  0.00    +0.324 C 
BRANCH  22   4
ATOM      4  O   UNL     1      -4.846   0.493  24.266  0.00  0.00    -0.483 OA
BRANCH   4  24
ATOM     24  C   UNL     1      -4.103  -0.633  24.541  0.00  0.00    +0.121 A 
ATOM     27  C   UNL     1      -4.334  -1.795  23.821  0.00  0.00    +0.045 A 
ATOM     28  C   UNL     1      -3.137  -0.586  25.535  0.00  0.00    +0.045 A 
ATOM     32  C   UNL     1      -3.582  -2.937  24.100  0.00  0.00    +0.004 A 
ATOM     33  C   UNL     1      -2.385  -1.727  25.816  0.00  0.00    +0.004 A 
ATOM     34  C   UNL     1      -2.608  -2.902  25.097  0.00  0.00    +0.000 A 
ENDBRANCH   4  24
ENDBRANCH  22   4
ENDBRANCH  19  22
TORSDOF 6
ENDMDL
MODEL 2
REMARK VINA RESULT:       3.2      2.143      6.180
REMARK  Name = 7051282
REMARK  6 active torsions:
REMARK  status: ('A' for Active; 'I' for Inactive)
REMARK    1  A    between atoms: S_1  and  N_9
REMARK    2  A    between atoms: S_1  and  C_23
REMARK    3  A    between atoms: O_4  and  C_22
REMARK    4  A    between atoms: O_4  and  C_24
REMARK    5  A    between atoms: N_9  and  C_20
REMARK    6  A    between atoms: C_19  and  C_22
REMARK                            x       y       z     vdW  Elec       q    Type
REMARK                         _______ _______ _______ _____ _____    ______ ____
ROOT
ATOM      2  O   UNL     1      -4.232   2.321  26.349  0.00  0.00    -0.266 OA
ATOM      3  O   UNL     1      -0.068  -1.045  26.152  0.00  0.00    -0.272 OA
ATOM      7  N   UNL     1      -1.635  -1.580  24.522  0.00  0.00    -0.298 N 
ATOM      8  N   UNL     1      -3.924   0.640  24.745  0.00  0.00    -0.310 N 
ATOM     10  C   UNL     1      -3.990  -1.855  25.307  0.00  0.00    +0.027 C 
ATOM     11  C   UNL     1      -3.551  -1.137  22.996  0.00  0.00    +0.054 C 
ATOM     12  C   UNL     1      -4.441  -2.027  23.862  0.00  0.00    +0.018 C 
ATOM     13  C   UNL     1      -2.517  -2.270  25.466  0.00  0.00    +0.113 C 
ATOM     14  C   UNL     1      -4.230  -0.402  25.734  0.00  0.00    +0.130 C 
ATOM     15  C   UNL     1      -2.085  -1.595  23.122  0.00  0.00    +0.117 C 
ATOM     16  C   UNL     1      -3.672   0.320  23.405  0.00  0.00    +0.027 A 
ATOM     17  C   UNL     1      -3.508   1.294  22.490  0.00  0.00    +0.024 A 
ATOM     18  C   UNL     1      -3.999   1.977  25.191  0.00  0.00    +0.274 A 
ATOM     19  C   UNL     1      -0.427  -1.048  24.971  0.00  0.00    +0.253 C 
ATOM     20  C   UNL     1      -3.786   3.005  24.141  0.00  0.00    +0.112 A 
ATOM     21  C   UNL     1      -3.565   2.680  22.867  0.00  0.00    +0.031 A 
ENDROOT
BRANCH  20   9
ATOM      9  N   UNL     1      -3.829   4.371  24.469  0.00  0.00    -0.211 N 
ATOM     35  H   UNL     1      -3.910   4.979  23.642  0.00  0.00    +0.174 HD
BRANCH   9   1
ATOM      1  S   UNL     1      -2.735   4.917  25.641  0.00  0.00    +0.072 S 
ATOM      5  O   UNL     1      -2.316   6.270  25.326  0.00  0.00    -0.150 OA
ATOM      6  O   UNL     1      -3.237   4.596  26.964  0.00  0.00    -0.150 OA
BRANCH   1  23
ATOM     23  C   UNL     1      -1.359   3.852  25.326  0.00  0.00    +0.108 A 
ATOM     25  C   UNL     1      -0.886   3.041  26.342  0.00  0.00    +0.029 A 
ATOM     26  C   UNL     1      -0.782   3.849  24.069  0.00  0.00    +0.029 A 
ATOM     29  C   UNL     1       0.200   2.203  26.095  0.00  0.00    +0.002 A 
ATOM     30  C   UNL     1       0.305   3.010  23.820  0.00  0.00    +0.002 A 
ATOM     31  C   UNL     1       0.796   2.187  24.834  0.00  0.00    +0.000 A 
ENDBRANCH   1  23
ENDBRANCH   9   1
ENDBRANCH  20   9
BRANCH  19  22
ATOM     22  C   UNL     1       0.472  -0.436  23.926  0.00  0.00    +0.324 C 
BRANCH  22   4
ATOM      4  O   UNL     1       1.544  -1.330  23.745  0.00  0.00    -0.483 OA
BRANCH   4  24
ATOM     24  C   UNL     1       2.790  -0.787  23.526  0.00  0.00    +0.121 A 
ATOM     27  C   UNL     1       3.915  -1.449  23.994  0.00  0.00    +0.045 A 
ATOM     28  C   UNL     1       2.898   0.414  22.840  0.00  0.00    +0.045 A 
ATOM     32  C   UNL     1       5.177  -0.898  23.773  0.00  0.00    +0.004 A 
ATOM     33  C   UNL     1       4.160   0.966  22.619  0.00  0.00    +0.004 A 
ATOM     34  C   UNL     1       5.299   0.309  23.084  0.00  0.00    +0.000 A 
ENDBRANCH   4  24
ENDBRANCH  22   4
ENDBRANCH  19  22
TORSDOF 6
ENDMDL
