MODEL 1
REMARK VINA RESULT:      -5.2      0.000      0.000
REMARK  Name = 11883294
REMARK  6 active torsions:
REMARK  status: ('A' for Active; 'I' for Inactive)
REMARK    1  A    between atoms: S_2  and  N_9
REMARK    2  A    between atoms: S_2  and  C_18
REMARK    3  A    between atoms: O_5  and  C_14
REMARK    4  A    between atoms: O_5  and  C_17
REMARK    5  A    between atoms: N_9  and  C_13
REMARK    6  A    between atoms: C_17  and  C_19
REMARK                            x       y       z     vdW  Elec       q    Type
REMARK                         _______ _______ _______ _____ _____    ______ ____
ROOT
ATOM      3  O   UNL     1       0.551  -1.247  23.975  0.00  0.00    -0.370 OA
ATOM      4  O   UNL     1       0.262   1.797  24.209  0.00  0.00    -0.370 OA
ATOM     11  C   UNL     1      -0.550   0.808  23.543  0.00  0.00    +0.170 C 
ATOM     12  C   UNL     1       0.397  -0.228  22.973  0.00  0.00    +0.179 C 
ATOM     13  C   UNL     1      -1.364   0.036  24.556  0.00  0.00    +0.133 C 
ATOM     14  C   UNL     1       1.668   0.564  22.781  0.00  0.00    +0.176 C 
ATOM     15  C   UNL     1      -0.366  -0.996  25.052  0.00  0.00    +0.183 C 
ATOM     16  C   UNL     1       1.645   1.499  23.969  0.00  0.00    +0.194 C 
ENDROOT
BRANCH  13   9
ATOM      9  N   UNL     1      -2.507  -0.592  23.941  0.00  0.00    -0.182 NA
ATOM     25  H   UNL     1      -2.577  -0.537  22.916  0.00  0.00    +0.148 HD
BRANCH   9   2
ATOM      2  S   UNL     1      -3.926  -0.836  24.841  0.00  0.00    +0.059 S 
ATOM      6  O   UNL     1      -3.582  -1.341  26.156  0.00  0.00    -0.153 OA
ATOM      7  O   UNL     1      -4.888  -1.542  24.017  0.00  0.00    -0.153 OA
BRANCH   2  18
ATOM      1 CL   UNL     1      -6.045   5.012  25.517  0.00  0.00    -0.084 Cl
ATOM     18  C   UNL     1      -4.525   0.817  25.031  0.00  0.00    +0.105 A 
ATOM     20  C   UNL     1      -3.876   1.849  24.377  0.00  0.00    +0.030 A 
ATOM     21  C   UNL     1      -5.632   1.046  25.830  0.00  0.00    +0.030 A 
ATOM     22  C   UNL     1      -4.349   3.154  24.529  0.00  0.00    +0.022 A 
ATOM     23  C   UNL     1      -6.104   2.350  25.982  0.00  0.00    +0.022 A 
ATOM     24  C   UNL     1      -5.463   3.404  25.331  0.00  0.00    +0.041 A 
ENDBRANCH   2  18
ENDBRANCH   9   2
ENDBRANCH  13   9
BRANCH  14   5
ATOM      5  O   UNL     1       2.830  -0.235  22.757  0.00  0.00    -0.362 OA
BRANCH   5  17
ATOM     17  C   UNL     1       4.019   0.552  22.777  0.00  0.00    +0.255 C 
BRANCH  17  19
ATOM      8  O   UNL     1       6.289   0.156  23.508  0.00  0.00    -0.274 OA
ATOM     10  N   UNL     1       4.656  -1.362  24.079  0.00  0.00    -0.327 N 
ATOM     19  C   UNL     1       5.118  -0.211  23.478  0.00  0.00    +0.236 C 
ATOM     26  H   UNL     1       3.681  -1.642  24.038  0.00  0.00    +0.145 HD
ATOM     27  H   UNL     1       5.285  -1.974  24.587  0.00  0.00    +0.145 HD
ENDBRANCH  17  19
ENDBRANCH   5  17
ENDBRANCH  14   5
TORSDOF 6
ENDMDL
MODEL 2
REMARK VINA RESULT:      -5.2      2.603      3.949
REMARK  Name = 11883294
REMARK  6 active torsions:
REMARK  status: ('A' for Active; 'I' for Inactive)
REMARK    1  A    between atoms: S_2  and  N_9
REMARK    2  A    between atoms: S_2  and  C_18
REMARK    3  A    between atoms: O_5  and  C_14
REMARK    4  A    between atoms: O_5  and  C_17
REMARK    5  A    between atoms: N_9  and  C_13
REMARK    6  A    between atoms: C_17  and  C_19
REMARK                            x       y       z     vdW  Elec       q    Type
REMARK                         _______ _______ _______ _____ _____    ______ ____
ROOT
ATOM      3  O   UNL     1      -2.126   0.429  24.750  0.00  0.00    -0.370 OA
ATOM      4  O   UNL     1      -3.296  -2.397  24.528  0.00  0.00    -0.370 OA
ATOM     11  C   UNL     1      -3.499  -1.352  25.502  0.00  0.00    +0.170 C 
ATOM     12  C   UNL     1      -2.165  -0.659  25.689  0.00  0.00    +0.179 C 
ATOM     13  C   UNL     1      -4.389  -0.273  24.928  0.00  0.00    +0.133 C 
ATOM     14  C   UNL     1      -1.180  -1.745  25.327  0.00  0.00    +0.176 C 
ATOM     15  C   UNL     1      -3.409   0.557  24.119  0.00  0.00    +0.183 C 
ATOM     16  C   UNL     1      -1.898  -2.468  24.210  0.00  0.00    +0.194 C 
ENDROOT
BRANCH  13   9
ATOM      9  N   UNL     1      -5.003   0.508  25.973  0.00  0.00    -0.182 NA
ATOM     25  H   UNL     1      -5.325   0.004  26.808  0.00  0.00    +0.148 HD
BRANCH   9   2
ATOM      2  S   UNL     1      -5.711   2.007  25.603  0.00  0.00    +0.059 S 
ATOM      6  O   UNL     1      -6.418   2.508  26.766  0.00  0.00    -0.153 OA
ATOM      7  O   UNL     1      -6.390   1.901  24.326  0.00  0.00    -0.153 OA
BRANCH   2  18
ATOM      1 CL   UNL     1      -0.679   5.613  24.699  0.00  0.00    -0.084 Cl
ATOM     18  C   UNL     1      -4.290   3.027  25.347  0.00  0.00    +0.105 A 
ATOM     20  C   UNL     1      -4.016   3.497  24.075  0.00  0.00    +0.030 A 
ATOM     21  C   UNL     1      -3.479   3.337  26.425  0.00  0.00    +0.030 A 
ATOM     22  C   UNL     1      -2.893   4.301  23.874  0.00  0.00    +0.022 A 
ATOM     23  C   UNL     1      -2.356   4.140  26.223  0.00  0.00    +0.022 A 
ATOM     24  C   UNL     1      -2.063   4.622  24.948  0.00  0.00    +0.041 A 
ENDBRANCH   2  18
ENDBRANCH   9   2
ENDBRANCH  13   9
BRANCH  14   5
ATOM      5  O   UNL     1       0.076  -1.252  24.919  0.00  0.00    -0.362 OA
BRANCH   5  17
ATOM     17  C   UNL     1       0.101  -0.941  23.527  0.00  0.00    +0.255 C 
BRANCH  17  19
ATOM      8  O   UNL     1       2.012   0.094  22.467  0.00  0.00    -0.274 OA
ATOM     10  N   UNL     1       0.844   1.280  24.057  0.00  0.00    -0.327 N 
ATOM     19  C   UNL     1       1.091   0.171  23.276  0.00  0.00    +0.236 C 
ATOM     26  H   UNL     1       0.075   1.316  24.719  0.00  0.00    +0.145 HD
ATOM     27  H   UNL     1       1.431   2.104  23.993  0.00  0.00    +0.145 HD
ENDBRANCH  17  19
ENDBRANCH   5  17
ENDBRANCH  14   5
TORSDOF 6
ENDMDL
MODEL 3
REMARK VINA RESULT:      -4.8      2.869      5.056
REMARK  Name = 11883294
REMARK  6 active torsions:
REMARK  status: ('A' for Active; 'I' for Inactive)
REMARK    1  A    between atoms: S_2  and  N_9
REMARK    2  A    between atoms: S_2  and  C_18
REMARK    3  A    between atoms: O_5  and  C_14
REMARK    4  A    between atoms: O_5  and  C_17
REMARK    5  A    between atoms: N_9  and  C_13
REMARK    6  A    between atoms: C_17  and  C_19
REMARK                            x       y       z     vdW  Elec       q    Type
REMARK                         _______ _______ _______ _____ _____    ______ ____
ROOT
ATOM      3  O   UNL     1      -0.891   0.752  25.574  0.00  0.00    -0.370 OA
ATOM      4  O   UNL     1       1.133   0.181  23.342  0.00  0.00    -0.370 OA
ATOM     11  C   UNL     1       0.015   1.091  23.409  0.00  0.00    +0.170 C 
ATOM     12  C   UNL     1      -1.075   0.391  24.195  0.00  0.00    +0.179 C 
ATOM     13  C   UNL     1       0.368   2.286  24.265  0.00  0.00    +0.133 C 
ATOM     14  C   UNL     1      -0.767  -1.067  23.953  0.00  0.00    +0.176 C 
ATOM     15  C   UNL     1       0.130   1.758  25.669  0.00  0.00    +0.183 C 
ATOM     16  C   UNL     1       0.745  -1.073  23.922  0.00  0.00    +0.194 C 
ENDROOT
BRANCH  13   9
ATOM      9  N   UNL     1      -0.487   3.409  23.974  0.00  0.00    -0.182 NA
ATOM     25  H   UNL     1      -0.290   3.939  23.116  0.00  0.00    +0.148 HD
BRANCH   9   2
ATOM      2  S   UNL     1      -1.329   4.180  25.232  0.00  0.00    +0.059 S 
ATOM      6  O   UNL     1      -1.430   5.598  24.947  0.00  0.00    -0.153 OA
ATOM      7  O   UNL     1      -0.792   3.726  26.501  0.00  0.00    -0.153 OA
BRANCH   2  18
ATOM      1 CL   UNL     1      -7.039   1.684  24.675  0.00  0.00    -0.084 Cl
ATOM     18  C   UNL     1      -2.943   3.476  25.074  0.00  0.00    +0.105 A 
ATOM     20  C   UNL     1      -3.867   3.673  26.085  0.00  0.00    +0.030 A 
ATOM     21  C   UNL     1      -3.251   2.741  23.943  0.00  0.00    +0.030 A 
ATOM     22  C   UNL     1      -5.141   3.116  25.960  0.00  0.00    +0.022 A 
ATOM     23  C   UNL     1      -4.524   2.184  23.819  0.00  0.00    +0.022 A 
ATOM     24  C   UNL     1      -5.469   2.372  24.827  0.00  0.00    +0.041 A 
ENDBRANCH   2  18
ENDBRANCH   9   2
ENDBRANCH  13   9
BRANCH  14   5
ATOM      5  O   UNL     1      -1.281  -1.923  24.948  0.00  0.00    -0.362 OA
BRANCH   5  17
ATOM     17  C   UNL     1      -2.469  -2.586  24.520  0.00  0.00    +0.255 C 
BRANCH  17  19
ATOM      8  O   UNL     1      -4.564  -1.521  23.950  0.00  0.00    -0.274 OA
ATOM     10  N   UNL     1      -3.622  -1.093  26.006  0.00  0.00    -0.327 N 
ATOM     19  C   UNL     1      -3.662  -1.692  24.766  0.00  0.00    +0.236 C 
ATOM     26  H   UNL     1      -2.863  -1.252  26.661  0.00  0.00    +0.145 HD
ATOM     27  H   UNL     1      -4.359  -0.466  26.307  0.00  0.00    +0.145 HD
ENDBRANCH  17  19
ENDBRANCH   5  17
ENDBRANCH  14   5
TORSDOF 6
ENDMDL
MODEL 4
REMARK VINA RESULT:      -4.4      3.309      4.557
REMARK  Name = 11883294
REMARK  6 active torsions:
REMARK  status: ('A' for Active; 'I' for Inactive)
REMARK    1  A    between atoms: S_2  and  N_9
REMARK    2  A    between atoms: S_2  and  C_18
REMARK    3  A    between atoms: O_5  and  C_14
REMARK    4  A    between atoms: O_5  and  C_17
REMARK    5  A    between atoms: N_9  and  C_13
REMARK    6  A    between atoms: C_17  and  C_19
REMARK                            x       y       z     vdW  Elec       q    Type
REMARK                         _______ _______ _______ _____ _____    ______ ____
ROOT
ATOM      3  O   UNL     1      -2.126   2.318  25.592  0.00  0.00    -0.370 OA
ATOM      4  O   UNL     1      -1.786   5.240  24.726  0.00  0.00    -0.370 OA
ATOM     11  C   UNL     1      -2.621   4.181  24.212  0.00  0.00    +0.170 C 
ATOM     12  C   UNL     1      -1.819   2.900  24.314  0.00  0.00    +0.179 C 
ATOM     13  C   UNL     1      -3.794   3.949  25.136  0.00  0.00    +0.133 C 
ATOM     14  C   UNL     1      -0.395   3.401  24.255  0.00  0.00    +0.176 C 
ATOM     15  C   UNL     1      -3.188   3.062  26.210  0.00  0.00    +0.183 C 
ATOM     16  C   UNL     1      -0.485   4.707  25.011  0.00  0.00    +0.194 C 
ENDROOT
BRANCH  13   9
ATOM      9  N   UNL     1      -4.874   3.282  24.452  0.00  0.00    -0.182 NA
ATOM     25  H   UNL     1      -5.331   3.793  23.686  0.00  0.00    +0.148 HD
BRANCH   9   2
ATOM      2  S   UNL     1      -5.739   2.048  25.237  0.00  0.00    +0.059 S 
ATOM      6  O   UNL     1      -6.983   1.808  24.533  0.00  0.00    -0.153 OA
ATOM      7  O   UNL     1      -5.745   2.316  26.663  0.00  0.00    -0.153 OA
BRANCH   2  18
ATOM      1 CL   UNL     1      -2.024  -2.905  24.331  0.00  0.00    -0.084 Cl
ATOM     18  C   UNL     1      -4.688   0.649  24.981  0.00  0.00    +0.105 A 
ATOM     20  C   UNL     1      -4.223   0.378  23.706  0.00  0.00    +0.030 A 
ATOM     21  C   UNL     1      -4.350  -0.147  26.060  0.00  0.00    +0.030 A 
ATOM     22  C   UNL     1      -3.395  -0.727  23.504  0.00  0.00    +0.022 A 
ATOM     23  C   UNL     1      -3.523  -1.253  25.858  0.00  0.00    +0.022 A 
ATOM     24  C   UNL     1      -3.045  -1.542  24.581  0.00  0.00    +0.041 A 
ENDBRANCH   2  18
ENDBRANCH   9   2
ENDBRANCH  13   9
BRANCH  14   5
ATOM      5  O   UNL     1       0.537   2.515  24.834  0.00  0.00    -0.362 OA
BRANCH   5  17
ATOM     17  C   UNL     1       1.040   1.576  23.886  0.00  0.00    +0.255 C 
BRANCH  17  19
ATOM      8  O   UNL     1       0.247  -0.596  23.181  0.00  0.00    -0.274 OA
ATOM     10  N   UNL     1      -0.190   0.104  25.329  0.00  0.00    -0.327 N 
ATOM     19  C   UNL     1       0.337   0.252  24.065  0.00  0.00    +0.236 C 
ATOM     26  H   UNL     1      -0.102   0.822  26.041  0.00  0.00    +0.145 HD
ATOM     27  H   UNL     1      -0.691  -0.738  25.591  0.00  0.00    +0.145 HD
ENDBRANCH  17  19
ENDBRANCH   5  17
ENDBRANCH  14   5
TORSDOF 6
ENDMDL
MODEL 5
REMARK VINA RESULT:      -4.3     15.022     17.191
REMARK  Name = 11883294
REMARK  6 active torsions:
REMARK  status: ('A' for Active; 'I' for Inactive)
REMARK    1  A    between atoms: S_2  and  N_9
REMARK    2  A    between atoms: S_2  and  C_18
REMARK    3  A    between atoms: O_5  and  C_14
REMARK    4  A    between atoms: O_5  and  C_17
REMARK    5  A    between atoms: N_9  and  C_13
REMARK    6  A    between atoms: C_17  and  C_19
REMARK                            x       y       z     vdW  Elec       q    Type
REMARK                         _______ _______ _______ _____ _____    ______ ____
ROOT
ATOM      3  O   UNL     1      -7.239  -9.602  15.591  0.00  0.00    -0.370 OA
ATOM      4  O   UNL     1     -10.021 -10.664  14.863  0.00  0.00    -0.370 OA
ATOM     11  C   UNL     1      -9.253  -9.560  14.342  0.00  0.00    +0.170 C 
ATOM     12  C   UNL     1      -8.515  -8.946  15.514  0.00  0.00    +0.179 C 
ATOM     13  C   UNL     1      -8.149 -10.071  13.446  0.00  0.00    +0.133 C 
ATOM     14  C   UNL     1      -9.401  -9.306  16.682  0.00  0.00    +0.176 C 
ATOM     15  C   UNL     1      -7.073 -10.455  14.447  0.00  0.00    +0.183 C 
ATOM     16  C   UNL     1      -9.900 -10.679  16.293  0.00  0.00    +0.194 C 
ENDROOT
BRANCH  13   9
ATOM      9  N   UNL     1      -7.687  -9.044  12.546  0.00  0.00    -0.182 NA
ATOM     25  H   UNL     1      -7.963  -8.077  12.758  0.00  0.00    +0.148 HD
BRANCH   9   2
ATOM      2  S   UNL     1      -7.273  -9.442  10.948  0.00  0.00    +0.059 S 
ATOM      6  O   UNL     1      -7.612  -8.338  10.072  0.00  0.00    -0.153 OA
ATOM      7  O   UNL     1      -7.757 -10.779  10.659  0.00  0.00    -0.153 OA
BRANCH   2  18
ATOM      1 CL   UNL     1      -1.035  -9.791  11.284  0.00  0.00    -0.084 Cl
ATOM     18  C   UNL     1      -5.510  -9.542  11.043  0.00  0.00    +0.105 A 
ATOM     20  C   UNL     1      -4.923 -10.024  12.199  0.00  0.00    +0.030 A 
ATOM     21  C   UNL     1      -4.752  -9.137   9.959  0.00  0.00    +0.030 A 
ATOM     22  C   UNL     1      -3.531 -10.101  12.274  0.00  0.00    +0.022 A 
ATOM     23  C   UNL     1      -3.361  -9.213  10.034  0.00  0.00    +0.022 A 
ATOM     24  C   UNL     1      -2.751  -9.696  11.191  0.00  0.00    +0.041 A 
ENDBRANCH   2  18
ENDBRANCH   9   2
ENDBRANCH  13   9
BRANCH  14   5
ATOM      5  O   UNL     1      -8.724  -9.319  17.918  0.00  0.00    -0.362 OA
BRANCH   5  17
ATOM     17  C   UNL     1      -8.364 -10.640  18.317  0.00  0.00    +0.255 C 
BRANCH  17  19
ATOM      8  O   UNL     1      -6.746 -10.735  20.111  0.00  0.00    -0.274 OA
ATOM     10  N   UNL     1      -5.996 -10.487  17.949  0.00  0.00    -0.327 N 
ATOM     19  C   UNL     1      -6.974 -10.629  18.909  0.00  0.00    +0.236 C 
ATOM     26  H   UNL     1      -6.215 -10.401  16.961  0.00  0.00    +0.145 HD
ATOM     27  H   UNL     1      -5.015 -10.463  18.203  0.00  0.00    +0.145 HD
ENDBRANCH  17  19
ENDBRANCH   5  17
ENDBRANCH  14   5
TORSDOF 6
ENDMDL
MODEL 6
REMARK VINA RESULT:      -3.7      2.769      6.342
REMARK  Name = 11883294
REMARK  6 active torsions:
REMARK  status: ('A' for Active; 'I' for Inactive)
REMARK    1  A    between atoms: S_2  and  N_9
REMARK    2  A    between atoms: S_2  and  C_18
REMARK    3  A    between atoms: O_5  and  C_14
REMARK    4  A    between atoms: O_5  and  C_17
REMARK    5  A    between atoms: N_9  and  C_13
REMARK    6  A    between atoms: C_17  and  C_19
REMARK                            x       y       z     vdW  Elec       q    Type
REMARK                         _______ _______ _______ _____ _____    ______ ____
ROOT
ATOM      3  O   UNL     1      -2.561  -0.225  26.086  0.00  0.00    -0.370 OA
ATOM      4  O   UNL     1      -3.035  -2.266  23.847  0.00  0.00    -0.370 OA
ATOM     11  C   UNL     1      -2.017  -1.259  24.023  0.00  0.00    +0.170 C 
ATOM     12  C   UNL     1      -2.689  -0.061  24.664  0.00  0.00    +0.179 C 
ATOM     13  C   UNL     1      -1.014  -1.709  25.059  0.00  0.00    +0.133 C 
ATOM     14  C   UNL     1      -4.121  -0.210  24.211  0.00  0.00    +0.176 C 
ATOM     15  C   UNL     1      -1.711  -1.350  26.360  0.00  0.00    +0.183 C 
ATOM     16  C   UNL     1      -4.305  -1.711  24.219  0.00  0.00    +0.194 C 
ENDROOT
BRANCH  13   9
ATOM      9  N   UNL     1       0.235  -1.003  24.920  0.00  0.00    -0.182 NA
ATOM     25  H   UNL     1       0.757  -0.799  25.782  0.00  0.00    +0.148 HD
BRANCH   9   2
ATOM      2  S   UNL     1       0.513  -0.036  23.552  0.00  0.00    +0.059 S 
ATOM      6  O   UNL     1      -0.293  -0.518  22.448  0.00  0.00    -0.153 OA
ATOM      7  O   UNL     1       1.943   0.144  23.389  0.00  0.00    -0.153 OA
BRANCH   2  18
ATOM      1 CL   UNL     1      -1.813   5.479  25.377  0.00  0.00    -0.084 Cl
ATOM     18  C   UNL     1      -0.145   1.522  24.068  0.00  0.00    +0.105 A 
ATOM     20  C   UNL     1      -1.028   2.191  23.238  0.00  0.00    +0.030 A 
ATOM     21  C   UNL     1       0.234   2.043  25.293  0.00  0.00    +0.030 A 
ATOM     22  C   UNL     1      -1.546   3.421  23.645  0.00  0.00    +0.022 A 
ATOM     23  C   UNL     1      -0.284   3.273  25.699  0.00  0.00    +0.022 A 
ATOM     24  C   UNL     1      -1.174   3.961  24.876  0.00  0.00    +0.041 A 
ENDBRANCH   2  18
ENDBRANCH   9   2
ENDBRANCH  13   9
BRANCH  14   5
ATOM      5  O   UNL     1      -5.047   0.442  25.049  0.00  0.00    -0.362 OA
BRANCH   5  17
ATOM     17  C   UNL     1      -5.376   1.745  24.571  0.00  0.00    +0.255 C 
BRANCH  17  19
ATOM      8  O   UNL     1      -4.673   3.726  25.765  0.00  0.00    -0.274 OA
ATOM     10  N   UNL     1      -6.258   2.357  26.719  0.00  0.00    -0.327 N 
ATOM     19  C   UNL     1      -5.377   2.721  25.723  0.00  0.00    +0.236 C 
ATOM     26  H   UNL     1      -6.828   1.519  26.658  0.00  0.00    +0.145 HD
ATOM     27  H   UNL     1      -6.364   2.921  27.554  0.00  0.00    +0.145 HD
ENDBRANCH  17  19
ENDBRANCH   5  17
ENDBRANCH  14   5
TORSDOF 6
ENDMDL
MODEL 7
REMARK VINA RESULT:      -3.6      3.044      3.733
REMARK  Name = 11883294
REMARK  6 active torsions:
REMARK  status: ('A' for Active; 'I' for Inactive)
REMARK    1  A    between atoms: S_2  and  N_9
REMARK    2  A    between atoms: S_2  and  C_18
REMARK    3  A    between atoms: O_5  and  C_14
REMARK    4  A    between atoms: O_5  and  C_17
REMARK    5  A    between atoms: N_9  and  C_13
REMARK    6  A    between atoms: C_17  and  C_19
REMARK                            x       y       z     vdW  Elec       q    Type
REMARK                         _______ _______ _______ _____ _____    ______ ____
ROOT
ATOM      3  O   UNL     1      -0.448   1.359  25.885  0.00  0.00    -0.370 OA
ATOM      4  O   UNL     1      -0.330   3.578  23.772  0.00  0.00    -0.370 OA
ATOM     11  C   UNL     1      -1.444   2.863  24.346  0.00  0.00    +0.170 C 
ATOM     12  C   UNL     1      -0.987   1.433  24.555  0.00  0.00    +0.179 C 
ATOM     13  C   UNL     1      -1.717   3.364  25.745  0.00  0.00    +0.133 C 
ATOM     14  C   UNL     1       0.088   1.277  23.506  0.00  0.00    +0.176 C 
ATOM     15  C   UNL     1      -0.695   2.599  26.567  0.00  0.00    +0.183 C 
ATOM     16  C   UNL     1       0.727   2.647  23.498  0.00  0.00    +0.194 C 
ENDROOT
BRANCH  13   9
ATOM      9  N   UNL     1      -3.063   3.052  26.159  0.00  0.00    -0.182 NA
ATOM     25  H   UNL     1      -3.191   2.712  27.120  0.00  0.00    +0.148 HD
BRANCH   9   2
ATOM      2  S   UNL     1      -4.238   2.665  24.995  0.00  0.00    +0.059 S 
ATOM      6  O   UNL     1      -3.884   3.277  23.729  0.00  0.00    -0.153 OA
ATOM      7  O   UNL     1      -5.553   2.881  25.568  0.00  0.00    -0.153 OA
BRANCH   2  18
ATOM      1 CL   UNL     1      -3.488  -3.520  24.420  0.00  0.00    -0.084 Cl
ATOM     18  C   UNL     1      -4.027   0.917  24.833  0.00  0.00    +0.105 A 
ATOM     20  C   UNL     1      -3.836   0.152  25.970  0.00  0.00    +0.030 A 
ATOM     21  C   UNL     1      -4.058   0.347  23.572  0.00  0.00    +0.030 A 
ATOM     22  C   UNL     1      -3.668  -1.228  25.841  0.00  0.00    +0.022 A 
ATOM     23  C   UNL     1      -3.890  -1.032  23.444  0.00  0.00    +0.022 A 
ATOM     24  C   UNL     1      -3.696  -1.819  24.578  0.00  0.00    +0.041 A 
ENDBRANCH   2  18
ENDBRANCH   9   2
ENDBRANCH  13   9
BRANCH  14   5
ATOM      5  O   UNL     1       1.017   0.259  23.800  0.00  0.00    -0.362 OA
BRANCH   5  17
ATOM     17  C   UNL     1       1.782  -0.112  22.655  0.00  0.00    +0.255 C 
BRANCH  17  19
ATOM      8  O   UNL     1       3.853   1.135  22.702  0.00  0.00    -0.274 OA
ATOM     10  N   UNL     1       3.836  -1.023  23.501  0.00  0.00    -0.327 N 
ATOM     19  C   UNL     1       3.251   0.092  22.942  0.00  0.00    +0.236 C 
ATOM     26  H   UNL     1       3.314  -1.874  23.688  0.00  0.00    +0.145 HD
ATOM     27  H   UNL     1       4.820  -1.029  23.746  0.00  0.00    +0.145 HD
ENDBRANCH  17  19
ENDBRANCH   5  17
ENDBRANCH  14   5
TORSDOF 6
ENDMDL
MODEL 8
REMARK VINA RESULT:      -3.5      3.600      6.554
REMARK  Name = 11883294
REMARK  6 active torsions:
REMARK  status: ('A' for Active; 'I' for Inactive)
REMARK    1  A    between atoms: S_2  and  N_9
REMARK    2  A    between atoms: S_2  and  C_18
REMARK    3  A    between atoms: O_5  and  C_14
REMARK    4  A    between atoms: O_5  and  C_17
REMARK    5  A    between atoms: N_9  and  C_13
REMARK    6  A    between atoms: C_17  and  C_19
REMARK                            x       y       z     vdW  Elec       q    Type
REMARK                         _______ _______ _______ _____ _____    ______ ____
ROOT
ATOM      3  O   UNL     1      -2.544   2.101  24.199  0.00  0.00    -0.370 OA
ATOM      4  O   UNL     1      -0.606   4.001  25.627  0.00  0.00    -0.370 OA
ATOM     11  C   UNL     1      -1.087   2.686  25.976  0.00  0.00    +0.170 C 
ATOM     12  C   UNL     1      -2.537   2.618  25.540  0.00  0.00    +0.179 C 
ATOM     13  C   UNL     1      -0.404   1.640  25.125  0.00  0.00    +0.133 C 
ATOM     14  C   UNL     1      -2.959   4.068  25.583  0.00  0.00    +0.176 C 
ATOM     15  C   UNL     1      -1.216   1.688  23.842  0.00  0.00    +0.183 C 
ATOM     16  C   UNL     1      -1.704   4.779  25.128  0.00  0.00    +0.194 C 
ENDROOT
BRANCH  13   9
ATOM      9  N   UNL     1      -0.472   0.339  25.742  0.00  0.00    -0.182 NA
ATOM     25  H   UNL     1      -0.336   0.295  26.760  0.00  0.00    +0.148 HD
BRANCH   9   2
ATOM      2  S   UNL     1      -0.164  -1.053  24.818  0.00  0.00    +0.059 S 
ATOM      6  O   UNL     1       0.473  -2.054  25.650  0.00  0.00    -0.153 OA
ATOM      7  O   UNL     1       0.441  -0.655  23.561  0.00  0.00    -0.153 OA
BRANCH   2  18
ATOM      1 CL   UNL     1      -5.953  -3.030  23.503  0.00  0.00    -0.084 Cl
ATOM     18  C   UNL     1      -1.800  -1.612  24.447  0.00  0.00    +0.105 A 
ATOM     20  C   UNL     1      -2.000  -2.939  24.111  0.00  0.00    +0.030 A 
ATOM     21  C   UNL     1      -2.850  -0.712  24.501  0.00  0.00    +0.030 A 
ATOM     22  C   UNL     1      -3.291  -3.380  23.818  0.00  0.00    +0.022 A 
ATOM     23  C   UNL     1      -4.141  -1.152  24.206  0.00  0.00    +0.022 A 
ATOM     24  C   UNL     1      -4.361  -2.486  23.865  0.00  0.00    +0.041 A 
ENDBRANCH   2  18
ENDBRANCH   9   2
ENDBRANCH  13   9
BRANCH  14   5
ATOM      5  O   UNL     1      -4.063   4.357  24.756  0.00  0.00    -0.362 OA
BRANCH   5  17
ATOM     17  C   UNL     1      -5.299   4.246  25.457  0.00  0.00    +0.255 C 
BRANCH  17  19
ATOM      8  O   UNL     1      -5.694   2.072  24.476  0.00  0.00    -0.274 OA
ATOM     10  N   UNL     1      -6.233   2.408  26.688  0.00  0.00    -0.327 N 
ATOM     19  C   UNL     1      -5.751   2.805  25.460  0.00  0.00    +0.236 C 
ATOM     26  H   UNL     1      -6.269   3.036  27.485  0.00  0.00    +0.145 HD
ATOM     27  H   UNL     1      -6.571   1.464  26.835  0.00  0.00    +0.145 HD
ENDBRANCH  17  19
ENDBRANCH   5  17
ENDBRANCH  14   5
TORSDOF 6
ENDMDL
MODEL 9
REMARK VINA RESULT:      -2.6      3.757      8.015
REMARK  Name = 11883294
REMARK  6 active torsions:
REMARK  status: ('A' for Active; 'I' for Inactive)
REMARK    1  A    between atoms: S_2  and  N_9
REMARK    2  A    between atoms: S_2  and  C_18
REMARK    3  A    between atoms: O_5  and  C_14
REMARK    4  A    between atoms: O_5  and  C_17
REMARK    5  A    between atoms: N_9  and  C_13
REMARK    6  A    between atoms: C_17  and  C_19
REMARK                            x       y       z     vdW  Elec       q    Type
REMARK                         _______ _______ _______ _____ _____    ______ ____
ROOT
ATOM      3  O   UNL     1      -2.346  -0.045  26.186  0.00  0.00    -0.370 OA
ATOM      4  O   UNL     1      -3.138  -1.643  23.692  0.00  0.00    -0.370 OA
ATOM     11  C   UNL     1      -2.037  -0.744  23.942  0.00  0.00    +0.170 C 
ATOM     12  C   UNL     1      -2.568   0.365  24.827  0.00  0.00    +0.179 C 
ATOM     13  C   UNL     1      -0.995  -1.424  24.800  0.00  0.00    +0.133 C 
ATOM     14  C   UNL     1      -4.038   0.383  24.481  0.00  0.00    +0.176 C 
ATOM     15  C   UNL     1      -1.564  -1.249  26.197  0.00  0.00    +0.183 C 
ATOM     16  C   UNL     1      -4.331  -1.083  24.259  0.00  0.00    +0.194 C 
ENDROOT
BRANCH  13   9
ATOM      9  N   UNL     1       0.289  -0.782  24.671  0.00  0.00    -0.182 NA
ATOM     25  H   UNL     1       0.771  -0.519  25.540  0.00  0.00    +0.148 HD
BRANCH   9   2
ATOM      2  S   UNL     1       0.682   0.044  23.240  0.00  0.00    +0.059 S 
ATOM      6  O   UNL     1       0.293   1.435  23.361  0.00  0.00    -0.153 OA
ATOM      7  O   UNL     1       0.234  -0.744  22.107  0.00  0.00    -0.153 OA
BRANCH   2  18
ATOM      1 CL   UNL     1       6.934  -0.223  23.276  0.00  0.00    -0.084 Cl
ATOM     18  C   UNL     1       2.449  -0.031  23.251  0.00  0.00    +0.105 A 
ATOM     20  C   UNL     1       3.174   1.074  22.841  0.00  0.00    +0.030 A 
ATOM     21  C   UNL     1       3.073  -1.193  23.670  0.00  0.00    +0.030 A 
ATOM     22  C   UNL     1       4.568   1.014  22.849  0.00  0.00    +0.022 A 
ATOM     23  C   UNL     1       4.467  -1.253  23.677  0.00  0.00    +0.022 A 
ATOM     24  C   UNL     1       5.214  -0.149  23.267  0.00  0.00    +0.041 A 
ENDBRANCH   2  18
ENDBRANCH   9   2
ENDBRANCH  13   9
BRANCH  14   5
ATOM      5  O   UNL     1      -4.847   0.939  25.493  0.00  0.00    -0.362 OA
BRANCH   5  17
ATOM     17  C   UNL     1      -5.669   1.995  24.999  0.00  0.00    +0.255 C 
BRANCH  17  19
ATOM      8  O   UNL     1      -4.056   3.555  25.899  0.00  0.00    -0.274 OA
ATOM     10  N   UNL     1      -6.264   4.189  25.771  0.00  0.00    -0.327 N 
ATOM     19  C   UNL     1      -5.220   3.306  25.600  0.00  0.00    +0.236 C 
ATOM     26  H   UNL     1      -7.219   3.957  25.514  0.00  0.00    +0.145 HD
ATOM     27  H   UNL     1      -6.110   5.111  26.165  0.00  0.00    +0.145 HD
ENDBRANCH  17  19
ENDBRANCH   5  17
ENDBRANCH  14   5
TORSDOF 6
ENDMDL
MODEL 10
REMARK VINA RESULT:      -2.6      4.014      8.031
REMARK  Name = 11883294
REMARK  6 active torsions:
REMARK  status: ('A' for Active; 'I' for Inactive)
REMARK    1  A    between atoms: S_2  and  N_9
REMARK    2  A    between atoms: S_2  and  C_18
REMARK    3  A    between atoms: O_5  and  C_14
REMARK    4  A    between atoms: O_5  and  C_17
REMARK    5  A    between atoms: N_9  and  C_13
REMARK    6  A    between atoms: C_17  and  C_19
REMARK                            x       y       z     vdW  Elec       q    Type
REMARK                         _______ _______ _______ _____ _____    ______ ____
ROOT
ATOM      3  O   UNL     1      -2.452   2.171  24.068  0.00  0.00    -0.370 OA
ATOM      4  O   UNL     1      -0.782   4.512  25.133  0.00  0.00    -0.370 OA
ATOM     11  C   UNL     1      -0.738   3.098  25.419  0.00  0.00    +0.170 C 
ATOM     12  C   UNL     1      -2.171   2.603  25.410  0.00  0.00    +0.179 C 
ATOM     13  C   UNL     1      -0.091   2.356  24.273  0.00  0.00    +0.133 C 
ATOM     14  C   UNL     1      -2.948   3.846  25.772  0.00  0.00    +0.176 C 
ATOM     15  C   UNL     1      -1.243   2.207  23.294  0.00  0.00    +0.183 C 
ATOM     16  C   UNL     1      -2.153   4.932  25.081  0.00  0.00    +0.194 C 
ENDROOT
BRANCH  13   9
ATOM      9  N   UNL     1       0.408   1.071  24.696  0.00  0.00    -0.182 NA
ATOM     25  H   UNL     1       0.934   1.041  25.579  0.00  0.00    +0.148 HD
BRANCH   9   2
ATOM      2  S   UNL     1       0.666  -0.156  23.551  0.00  0.00    +0.059 S 
ATOM      6  O   UNL     1       0.135   0.261  22.268  0.00  0.00    -0.153 OA
ATOM      7  O   UNL     1       0.267  -1.425  24.128  0.00  0.00    -0.153 OA
BRANCH   2  18
ATOM      1 CL   UNL     1       6.908  -0.231  23.124  0.00  0.00    -0.084 Cl
ATOM     18  C   UNL     1       2.430  -0.176  23.431  0.00  0.00    +0.105 A 
ATOM     20  C   UNL     1       3.086   0.939  22.940  0.00  0.00    +0.030 A 
ATOM     21  C   UNL     1       3.120  -1.306  23.832  0.00  0.00    +0.030 A 
ATOM     22  C   UNL     1       4.478   0.921  22.845  0.00  0.00    +0.022 A 
ATOM     23  C   UNL     1       4.512  -1.324  23.735  0.00  0.00    +0.022 A 
ATOM     24  C   UNL     1       5.191  -0.210  23.243  0.00  0.00    +0.041 A 
ENDBRANCH   2  18
ENDBRANCH   9   2
ENDBRANCH  13   9
BRANCH  14   5
ATOM      5  O   UNL     1      -4.290   3.815  25.342  0.00  0.00    -0.362 OA
BRANCH   5  17
ATOM     17  C   UNL     1      -5.083   2.932  26.131  0.00  0.00    +0.255 C 
BRANCH  17  19
ATOM      8  O   UNL     1      -6.751   1.942  24.688  0.00  0.00    -0.274 OA
ATOM     10  N   UNL     1      -4.834   0.755  25.149  0.00  0.00    -0.327 N 
ATOM     19  C   UNL     1      -5.663   1.851  25.250  0.00  0.00    +0.236 C 
ATOM     26  H   UNL     1      -3.939   0.706  25.626  0.00  0.00    +0.145 HD
ATOM     27  H   UNL     1      -5.097  -0.048  24.589  0.00  0.00    +0.145 HD
ENDBRANCH  17  19
ENDBRANCH   5  17
ENDBRANCH  14   5
TORSDOF 6
ENDMDL
