MODEL 1
REMARK VINA RESULT:      -6.6      0.000      0.000
REMARK  Name = 25390436
REMARK  9 active torsions:
REMARK  status: ('A' for Active; 'I' for Inactive)
REMARK    1  A    between atoms: S_1  and  N_9
REMARK    2  A    between atoms: S_1  and  C_20
REMARK    3  A    between atoms: O_3  and  C_12
REMARK    4  A    between atoms: O_4  and  C_13
REMARK    5  A    between atoms: N_8  and  C_11
REMARK    6  A    between atoms: N_9  and  C_18
REMARK    7  A    between atoms: C_10  and  C_17
REMARK    8  A    between atoms: C_14  and  C_18
REMARK    9  A    between atoms: C_17  and  C_19
REMARK                            x       y       z     vdW  Elec       q    Type
REMARK                         _______ _______ _______ _____ _____    ______ ____
ROOT
ATOM      2  O   UNL     1      -1.682   2.506  23.550  0.00  0.00    -0.366 OA
ATOM     10  C   UNL     1      -0.833   3.129  24.530  0.00  0.00    +0.158 C 
ATOM     12  C   UNL     1      -0.590   2.072  25.593  0.00  0.00    +0.175 C 
ATOM     13  C   UNL     1      -0.535   0.809  24.759  0.00  0.00    +0.175 C 
ATOM     14  C   UNL     1      -1.616   1.072  23.716  0.00  0.00    +0.165 C 
ENDROOT
BRANCH  12   3
ATOM      3  O   UNL     1       0.597   2.314  26.319  0.00  0.00    -0.387 OA
ATOM     22  H   UNL     1       1.261   2.643  25.690  0.00  0.00    +0.210 HD
ENDBRANCH  12   3
BRANCH  13   4
ATOM      4  O   UNL     1       0.718   0.715  24.083  0.00  0.00    -0.387 OA
ATOM     23  H   UNL     1       0.540   0.393  23.183  0.00  0.00    +0.210 HD
ENDBRANCH  13   4
BRANCH  10  17
ATOM     17  C   UNL     1      -1.505   4.380  25.067  0.00  0.00    +0.130 C 
BRANCH  17  19
ATOM      5  O   UNL     1      -2.946   4.098  26.992  0.00  0.00    -0.276 OA
ATOM      8  N   UNL     1      -3.829   3.793  24.866  0.00  0.00    -0.312 N 
ATOM     19  C   UNL     1      -2.816   4.081  25.770  0.00  0.00    +0.216 C 
ATOM     21  H   UNL     1      -3.630   3.796  23.869  0.00  0.00    +0.149 HD
BRANCH   8  11
ATOM     11  C   UNL     1      -5.165   3.476  25.280  0.00  0.00    +0.073 C 
ATOM     15  C   UNL     1      -5.893   2.291  24.715  0.00  0.00    +0.024 C 
ATOM     16  C   UNL     1      -5.449   2.285  26.148  0.00  0.00    +0.024 C 
ENDBRANCH   8  11
ENDBRANCH  17  19
ENDBRANCH  10  17
BRANCH  14  18
ATOM     18  C   UNL     1      -2.993   0.589  24.149  0.00  0.00    +0.139 C 
BRANCH  18   9
ATOM      9  N   UNL     1      -3.246  -0.749  23.583  0.00  0.00    -0.192 NA
ATOM     24  H   UNL     1      -2.980  -0.832  22.593  0.00  0.00    +0.148 HD
BRANCH   9   1
ATOM      1  S   UNL     1      -2.977  -2.128  24.553  0.00  0.00    +0.027 S 
ATOM      6  O   UNL     1      -1.568  -2.473  24.538  0.00  0.00    -0.158 OA
ATOM      7  O   UNL     1      -3.986  -3.119  24.233  0.00  0.00    -0.158 OA
ATOM     20  C   UNL     1      -3.364  -1.476  26.160  0.00  0.00    +0.214 C 
ENDBRANCH   9   1
ENDBRANCH  18   9
ENDBRANCH  14  18
TORSDOF 8
ENDMDL
MODEL 2
REMARK VINA RESULT:      -5.9      1.516      2.134
REMARK  Name = 25390436
REMARK  9 active torsions:
REMARK  status: ('A' for Active; 'I' for Inactive)
REMARK    1  A    between atoms: S_1  and  N_9
REMARK    2  A    between atoms: S_1  and  C_20
REMARK    3  A    between atoms: O_3  and  C_12
REMARK    4  A    between atoms: O_4  and  C_13
REMARK    5  A    between atoms: N_8  and  C_11
REMARK    6  A    between atoms: N_9  and  C_18
REMARK    7  A    between atoms: C_10  and  C_17
REMARK    8  A    between atoms: C_14  and  C_18
REMARK    9  A    between atoms: C_17  and  C_19
REMARK                            x       y       z     vdW  Elec       q    Type
REMARK                         _______ _______ _______ _____ _____    ______ ____
ROOT
ATOM      2  O   UNL     1      -0.653   0.638  23.563  0.00  0.00    -0.366 OA
ATOM     10  C   UNL     1      -1.334   1.893  23.742  0.00  0.00    +0.158 C 
ATOM     12  C   UNL     1      -1.630   1.990  25.229  0.00  0.00    +0.175 C 
ATOM     13  C   UNL     1      -0.408   1.327  25.827  0.00  0.00    +0.175 C 
ATOM     14  C   UNL     1      -0.151   0.190  24.843  0.00  0.00    +0.165 C 
ENDROOT
BRANCH  12   3
ATOM      3  O   UNL     1      -1.803   3.327  25.648  0.00  0.00    -0.387 OA
ATOM     22  H   UNL     1      -1.326   3.433  26.488  0.00  0.00    +0.210 HD
ENDBRANCH  12   3
BRANCH  13   4
ATOM      4  O   UNL     1       0.709   2.213  25.781  0.00  0.00    -0.387 OA
ATOM     23  H   UNL     1       1.408   1.830  26.339  0.00  0.00    +0.210 HD
ENDBRANCH  13   4
BRANCH  10  17
ATOM     17  C   UNL     1      -2.579   1.926  22.875  0.00  0.00    +0.130 C 
BRANCH  17  19
ATOM      5  O   UNL     1      -3.880   3.858  23.538  0.00  0.00    -0.276 OA
ATOM      8  N   UNL     1      -4.602   1.741  24.163  0.00  0.00    -0.312 N 
ATOM     19  C   UNL     1      -3.739   2.638  23.548  0.00  0.00    +0.216 C 
ATOM     21  H   UNL     1      -4.405   0.745  24.126  0.00  0.00    +0.149 HD
BRANCH   8  11
ATOM     11  C   UNL     1      -5.778   2.164  24.869  0.00  0.00    +0.073 C 
ATOM     15  C   UNL     1      -6.146   1.563  26.194  0.00  0.00    +0.024 C 
ATOM     16  C   UNL     1      -5.680   2.987  26.119  0.00  0.00    +0.024 C 
ENDBRANCH   8  11
ENDBRANCH  17  19
ENDBRANCH  10  17
BRANCH  14  18
ATOM     18  C   UNL     1      -0.884  -1.092  25.208  0.00  0.00    +0.139 C 
BRANCH  18   9
ATOM      9  N   UNL     1      -1.781  -1.478  24.103  0.00  0.00    -0.192 NA
ATOM     24  H   UNL     1      -1.325  -2.065  23.392  0.00  0.00    +0.148 HD
BRANCH   9   1
ATOM      1  S   UNL     1      -3.414  -1.839  24.444  0.00  0.00    +0.027 S 
ATOM      6  O   UNL     1      -3.593  -3.276  24.529  0.00  0.00    -0.158 OA
ATOM      7  O   UNL     1      -4.253  -1.038  23.573  0.00  0.00    -0.158 OA
ATOM     20  C   UNL     1      -3.560  -1.171  26.084  0.00  0.00    +0.214 C 
ENDBRANCH   9   1
ENDBRANCH  18   9
ENDBRANCH  14  18
TORSDOF 8
ENDMDL
MODEL 3
REMARK VINA RESULT:      -5.8      2.187      4.513
REMARK  Name = 25390436
REMARK  9 active torsions:
REMARK  status: ('A' for Active; 'I' for Inactive)
REMARK    1  A    between atoms: S_1  and  N_9
REMARK    2  A    between atoms: S_1  and  C_20
REMARK    3  A    between atoms: O_3  and  C_12
REMARK    4  A    between atoms: O_4  and  C_13
REMARK    5  A    between atoms: N_8  and  C_11
REMARK    6  A    between atoms: N_9  and  C_18
REMARK    7  A    between atoms: C_10  and  C_17
REMARK    8  A    between atoms: C_14  and  C_18
REMARK    9  A    between atoms: C_17  and  C_19
REMARK                            x       y       z     vdW  Elec       q    Type
REMARK                         _______ _______ _______ _____ _____    ______ ____
ROOT
ATOM      2  O   UNL     1      -2.647  -0.245  25.734  0.00  0.00    -0.366 OA
ATOM     10  C   UNL     1      -3.812  -0.392  24.901  0.00  0.00    +0.158 C 
ATOM     12  C   UNL     1      -3.505  -1.550  23.968  0.00  0.00    +0.175 C 
ATOM     13  C   UNL     1      -2.696  -2.460  24.868  0.00  0.00    +0.175 C 
ATOM     14  C   UNL     1      -1.866  -1.460  25.666  0.00  0.00    +0.165 C 
ENDROOT
BRANCH  12   3
ATOM      3  O   UNL     1      -4.681  -2.155  23.472  0.00  0.00    -0.387 OA
ATOM     22  H   UNL     1      -4.761  -1.909  22.535  0.00  0.00    +0.210 HD
ENDBRANCH  12   3
BRANCH  13   4
ATOM      4  O   UNL     1      -3.553  -3.149  25.777  0.00  0.00    -0.387 OA
ATOM     23  H   UNL     1      -3.165  -4.026  25.935  0.00  0.00    +0.210 HD
ENDBRANCH  13   4
BRANCH  10  17
ATOM     17  C   UNL     1      -4.087   0.912  24.174  0.00  0.00    +0.130 C 
BRANCH  17  19
ATOM      5  O   UNL     1      -4.730   2.659  25.721  0.00  0.00    -0.276 OA
ATOM      8  N   UNL     1      -2.529   2.552  24.990  0.00  0.00    -0.312 N 
ATOM     19  C   UNL     1      -3.849   2.129  25.050  0.00  0.00    +0.216 C 
ATOM     21  H   UNL     1      -1.866   2.055  24.401  0.00  0.00    +0.149 HD
BRANCH   8  11
ATOM     11  C   UNL     1      -2.048   3.684  25.729  0.00  0.00    +0.073 C 
ATOM     15  C   UNL     1      -0.970   4.570  25.177  0.00  0.00    +0.024 C 
ATOM     16  C   UNL     1      -2.374   5.085  25.302  0.00  0.00    +0.024 C 
ENDBRANCH   8  11
ENDBRANCH  17  19
ENDBRANCH  10  17
BRANCH  14  18
ATOM     18  C   UNL     1      -0.538  -1.124  25.003  0.00  0.00    +0.139 C 
BRANCH  18   9
ATOM      9  N   UNL     1      -0.299   0.328  25.089  0.00  0.00    -0.192 NA
ATOM     24  H   UNL     1       0.123   0.622  25.980  0.00  0.00    +0.148 HD
BRANCH   9   1
ATOM      1  S   UNL     1       0.217   1.171  23.697  0.00  0.00    +0.027 S 
ATOM      6  O   UNL     1       1.197   2.176  24.065  0.00  0.00    -0.158 OA
ATOM      7  O   UNL     1      -0.951   1.527  22.915  0.00  0.00    -0.158 OA
ATOM     20  C   UNL     1       1.064  -0.126  22.826  0.00  0.00    +0.214 C 
ENDBRANCH   9   1
ENDBRANCH  18   9
ENDBRANCH  14  18
TORSDOF 8
ENDMDL
MODEL 4
REMARK VINA RESULT:      -5.6      3.328      6.277
REMARK  Name = 25390436
REMARK  9 active torsions:
REMARK  status: ('A' for Active; 'I' for Inactive)
REMARK    1  A    between atoms: S_1  and  N_9
REMARK    2  A    between atoms: S_1  and  C_20
REMARK    3  A    between atoms: O_3  and  C_12
REMARK    4  A    between atoms: O_4  and  C_13
REMARK    5  A    between atoms: N_8  and  C_11
REMARK    6  A    between atoms: N_9  and  C_18
REMARK    7  A    between atoms: C_10  and  C_17
REMARK    8  A    between atoms: C_14  and  C_18
REMARK    9  A    between atoms: C_17  and  C_19
REMARK                            x       y       z     vdW  Elec       q    Type
REMARK                         _______ _______ _______ _____ _____    ______ ____
ROOT
ATOM      2  O   UNL     1      -1.842   0.952  23.153  0.00  0.00    -0.366 OA
ATOM     10  C   UNL     1      -0.708   0.283  23.733  0.00  0.00    +0.158 C 
ATOM     12  C   UNL     1      -1.110  -0.044  25.160  0.00  0.00    +0.175 C 
ATOM     13  C   UNL     1      -2.583  -0.353  24.998  0.00  0.00    +0.175 C 
ATOM     14  C   UNL     1      -3.011   0.677  23.958  0.00  0.00    +0.165 C 
ENDROOT
BRANCH  12   3
ATOM      3  O   UNL     1      -0.366  -1.122  25.687  0.00  0.00    -0.387 OA
ATOM     22  H   UNL     1      -0.937  -1.587  26.321  0.00  0.00    +0.210 HD
ENDBRANCH  12   3
BRANCH  13   4
ATOM      4  O   UNL     1      -2.758  -1.652  24.433  0.00  0.00    -0.387 OA
ATOM     23  H   UNL     1      -3.676  -1.923  24.603  0.00  0.00    +0.210 HD
ENDBRANCH  13   4
BRANCH  10  17
ATOM     17  C   UNL     1       0.515   1.178  23.641  0.00  0.00    +0.130 C 
BRANCH  17  19
ATOM      5  O   UNL     1       1.557  -0.411  22.141  0.00  0.00    -0.276 OA
ATOM      8  N   UNL     1       2.900   1.022  23.379  0.00  0.00    -0.312 N 
ATOM     19  C   UNL     1       1.687   0.495  22.960  0.00  0.00    +0.216 C 
ATOM     21  H   UNL     1       2.915   1.770  24.067  0.00  0.00    +0.149 HD
BRANCH   8  11
ATOM     11  C   UNL     1       4.160   0.547  22.883  0.00  0.00    +0.073 C 
ATOM     15  C   UNL     1       5.412   0.669  23.701  0.00  0.00    +0.024 C 
ATOM     16  C   UNL     1       4.806  -0.681  23.453  0.00  0.00    +0.024 C 
ENDBRANCH   8  11
ENDBRANCH  17  19
ENDBRANCH  10  17
BRANCH  14  18
ATOM     18  C   UNL     1      -3.473   1.990  24.574  0.00  0.00    +0.139 C 
BRANCH  18   9
ATOM      9  N   UNL     1      -2.514   3.057  24.232  0.00  0.00    -0.192 NA
ATOM     24  H   UNL     1      -2.767   3.578  23.382  0.00  0.00    +0.148 HD
BRANCH   9   1
ATOM      1  S   UNL     1      -1.798   3.966  25.487  0.00  0.00    +0.027 S 
ATOM      6  O   UNL     1      -1.404   5.270  24.987  0.00  0.00    -0.158 OA
ATOM      7  O   UNL     1      -0.847   3.121  26.183  0.00  0.00    -0.158 OA
ATOM     20  C   UNL     1      -3.195   4.192  26.563  0.00  0.00    +0.214 C 
ENDBRANCH   9   1
ENDBRANCH  18   9
ENDBRANCH  14  18
TORSDOF 8
ENDMDL
MODEL 5
REMARK VINA RESULT:      -5.6      2.172      4.001
REMARK  Name = 25390436
REMARK  9 active torsions:
REMARK  status: ('A' for Active; 'I' for Inactive)
REMARK    1  A    between atoms: S_1  and  N_9
REMARK    2  A    between atoms: S_1  and  C_20
REMARK    3  A    between atoms: O_3  and  C_12
REMARK    4  A    between atoms: O_4  and  C_13
REMARK    5  A    between atoms: N_8  and  C_11
REMARK    6  A    between atoms: N_9  and  C_18
REMARK    7  A    between atoms: C_10  and  C_17
REMARK    8  A    between atoms: C_14  and  C_18
REMARK    9  A    between atoms: C_17  and  C_19
REMARK                            x       y       z     vdW  Elec       q    Type
REMARK                         _______ _______ _______ _____ _____    ______ ____
ROOT
ATOM      2  O   UNL     1      -1.838   2.868  23.842  0.00  0.00    -0.366 OA
ATOM     10  C   UNL     1      -3.163   3.396  24.024  0.00  0.00    +0.158 C 
ATOM     12  C   UNL     1      -3.300   3.657  25.513  0.00  0.00    +0.175 C 
ATOM     13  C   UNL     1      -1.898   4.102  25.874  0.00  0.00    +0.175 C 
ATOM     14  C   UNL     1      -1.042   3.186  25.006  0.00  0.00    +0.165 C 
ENDROOT
BRANCH  12   3
ATOM      3  O   UNL     1      -4.284   4.630  25.792  0.00  0.00    -0.387 OA
ATOM     22  H   UNL     1      -5.130   4.164  25.906  0.00  0.00    +0.210 HD
ENDBRANCH  12   3
BRANCH  13   4
ATOM      4  O   UNL     1      -1.679   5.446  25.449  0.00  0.00    -0.387 OA
ATOM     23  H   UNL     1      -2.530   5.913  25.508  0.00  0.00    +0.210 HD
ENDBRANCH  13   4
BRANCH  10  17
ATOM     17  C   UNL     1      -4.184   2.409  23.488  0.00  0.00    +0.130 C 
BRANCH  17  19
ATOM      5  O   UNL     1      -5.491   1.577  25.348  0.00  0.00    -0.276 OA
ATOM      8  N   UNL     1      -3.857   0.215  24.418  0.00  0.00    -0.312 N 
ATOM     19  C   UNL     1      -4.601   1.382  24.525  0.00  0.00    +0.216 C 
ATOM     21  H   UNL     1      -3.133   0.142  23.708  0.00  0.00    +0.149 HD
BRANCH   8  11
ATOM     11  C   UNL     1      -4.059  -0.910  25.285  0.00  0.00    +0.073 C 
ATOM     15  C   UNL     1      -3.409  -2.233  25.003  0.00  0.00    +0.024 C 
ATOM     16  C   UNL     1      -2.961  -1.411  26.176  0.00  0.00    +0.024 C 
ENDBRANCH   8  11
ENDBRANCH  17  19
ENDBRANCH  10  17
BRANCH  14  18
ATOM     18  C   UNL     1      -0.681   1.878  25.695  0.00  0.00    +0.139 C 
BRANCH  18   9
ATOM      9  N   UNL     1       0.365   1.185  24.920  0.00  0.00    -0.192 NA
ATOM     24  H   UNL     1       1.271   1.137  25.406  0.00  0.00    +0.148 HD
BRANCH   9   1
ATOM      1  S   UNL     1      -0.059  -0.175  23.980  0.00  0.00    +0.027 S 
ATOM      6  O   UNL     1      -1.300   0.081  23.274  0.00  0.00    -0.158 OA
ATOM      7  O   UNL     1       0.098  -1.365  24.795  0.00  0.00    -0.158 OA
ATOM     20  C   UNL     1       1.259  -0.171  22.788  0.00  0.00    +0.214 C 
ENDBRANCH   9   1
ENDBRANCH  18   9
ENDBRANCH  14  18
TORSDOF 8
ENDMDL
MODEL 6
REMARK VINA RESULT:      -5.6      2.208      4.446
REMARK  Name = 25390436
REMARK  9 active torsions:
REMARK  status: ('A' for Active; 'I' for Inactive)
REMARK    1  A    between atoms: S_1  and  N_9
REMARK    2  A    between atoms: S_1  and  C_20
REMARK    3  A    between atoms: O_3  and  C_12
REMARK    4  A    between atoms: O_4  and  C_13
REMARK    5  A    between atoms: N_8  and  C_11
REMARK    6  A    between atoms: N_9  and  C_18
REMARK    7  A    between atoms: C_10  and  C_17
REMARK    8  A    between atoms: C_14  and  C_18
REMARK    9  A    between atoms: C_17  and  C_19
REMARK                            x       y       z     vdW  Elec       q    Type
REMARK                         _______ _______ _______ _____ _____    ______ ____
ROOT
ATOM      2  O   UNL     1      -1.867   0.180  25.667  0.00  0.00    -0.366 OA
ATOM     10  C   UNL     1      -2.477  -1.111  25.496  0.00  0.00    +0.158 C 
ATOM     12  C   UNL     1      -1.711  -1.780  24.368  0.00  0.00    +0.175 C 
ATOM     13  C   UNL     1      -0.307  -1.270  24.609  0.00  0.00    +0.175 C 
ATOM     14  C   UNL     1      -0.563   0.169  25.044  0.00  0.00    +0.165 C 
ENDROOT
BRANCH  12   3
ATOM      3  O   UNL     1      -1.812  -3.188  24.422  0.00  0.00    -0.387 OA
ATOM     22  H   UNL     1      -1.543  -3.532  23.553  0.00  0.00    +0.210 HD
ENDBRANCH  12   3
BRANCH  13   4
ATOM      4  O   UNL     1       0.292  -1.962  25.704  0.00  0.00    -0.387 OA
ATOM     23  H   UNL     1       1.194  -1.616  25.810  0.00  0.00    +0.210 HD
ENDBRANCH  13   4
BRANCH  10  17
ATOM     17  C   UNL     1      -3.957  -0.943  25.203  0.00  0.00    +0.130 C 
BRANCH  17  19
ATOM      5  O   UNL     1      -3.871   0.635  23.369  0.00  0.00    -0.276 OA
ATOM      8  N   UNL     1      -5.042   1.202  25.292  0.00  0.00    -0.312 N 
ATOM     19  C   UNL     1      -4.267   0.366  24.500  0.00  0.00    +0.216 C 
ATOM     21  H   UNL     1      -5.320   0.900  26.222  0.00  0.00    +0.149 HD
BRANCH   8  11
ATOM     11  C   UNL     1      -5.470   2.499  24.856  0.00  0.00    +0.073 C 
ATOM     15  C   UNL     1      -5.292   3.710  25.726  0.00  0.00    +0.024 C 
ATOM     16  C   UNL     1      -4.477   3.558  24.475  0.00  0.00    +0.024 C 
ENDBRANCH   8  11
ENDBRANCH  17  19
ENDBRANCH  10  17
BRANCH  14  18
ATOM     18  C   UNL     1      -0.595   1.147  23.878  0.00  0.00    +0.139 C 
BRANCH  18   9
ATOM      9  N   UNL     1      -1.370   2.342  24.259  0.00  0.00    -0.192 NA
ATOM     24  H   UNL     1      -2.388   2.209  24.192  0.00  0.00    +0.148 HD
BRANCH   9   1
ATOM      1  S   UNL     1      -0.821   3.313  25.551  0.00  0.00    +0.027 S 
ATOM      6  O   UNL     1       0.515   2.905  25.941  0.00  0.00    -0.158 OA
ATOM      7  O   UNL     1      -1.883   3.412  26.535  0.00  0.00    -0.158 OA
ATOM     20  C   UNL     1      -0.698   4.891  24.743  0.00  0.00    +0.214 C 
ENDBRANCH   9   1
ENDBRANCH  18   9
ENDBRANCH  14  18
TORSDOF 8
ENDMDL
MODEL 7
REMARK VINA RESULT:      -5.5      3.422      6.165
REMARK  Name = 25390436
REMARK  9 active torsions:
REMARK  status: ('A' for Active; 'I' for Inactive)
REMARK    1  A    between atoms: S_1  and  N_9
REMARK    2  A    between atoms: S_1  and  C_20
REMARK    3  A    between atoms: O_3  and  C_12
REMARK    4  A    between atoms: O_4  and  C_13
REMARK    5  A    between atoms: N_8  and  C_11
REMARK    6  A    between atoms: N_9  and  C_18
REMARK    7  A    between atoms: C_10  and  C_17
REMARK    8  A    between atoms: C_14  and  C_18
REMARK    9  A    between atoms: C_17  and  C_19
REMARK                            x       y       z     vdW  Elec       q    Type
REMARK                         _______ _______ _______ _____ _____    ______ ____
ROOT
ATOM      2  O   UNL     1      -1.749   1.246  22.938  0.00  0.00    -0.366 OA
ATOM     10  C   UNL     1      -0.795   0.666  23.846  0.00  0.00    +0.158 C 
ATOM     12  C   UNL     1      -1.440   0.739  25.219  0.00  0.00    +0.175 C 
ATOM     13  C   UNL     1      -2.898   0.503  24.884  0.00  0.00    +0.175 C 
ATOM     14  C   UNL     1      -3.048   1.266  23.572  0.00  0.00    +0.165 C 
ENDROOT
BRANCH  12   3
ATOM      3  O   UNL     1      -0.908  -0.223  26.106  0.00  0.00    -0.387 OA
ATOM     22  H   UNL     1      -0.271   0.234  26.682  0.00  0.00    +0.210 HD
ENDBRANCH  12   3
BRANCH  13   4
ATOM      4  O   UNL     1      -3.129  -0.880  24.621  0.00  0.00    -0.387 OA
ATOM     23  H   UNL     1      -2.447  -1.175  23.993  0.00  0.00    +0.210 HD
ENDBRANCH  13   4
BRANCH  10  17
ATOM     17  C   UNL     1       0.519   1.420  23.757  0.00  0.00    +0.130 C 
BRANCH  17  19
ATOM      5  O   UNL     1       1.391  -0.382  22.395  0.00  0.00    -0.276 OA
ATOM      8  N   UNL     1       2.873   1.121  23.363  0.00  0.00    -0.312 N 
ATOM     19  C   UNL     1       1.613   0.607  23.090  0.00  0.00    +0.216 C 
ATOM     21  H   UNL     1       2.964   1.943  23.955  0.00  0.00    +0.149 HD
BRANCH   8  11
ATOM     11  C   UNL     1       4.075   0.532  22.848  0.00  0.00    +0.073 C 
ATOM     15  C   UNL     1       5.376   0.652  23.586  0.00  0.00    +0.024 C 
ATOM     16  C   UNL     1       4.686  -0.677  23.494  0.00  0.00    +0.024 C 
ENDBRANCH   8  11
ENDBRANCH  17  19
ENDBRANCH  10  17
BRANCH  14  18
ATOM     18  C   UNL     1      -3.448   2.721  23.771  0.00  0.00    +0.139 C 
BRANCH  18   9
ATOM      9  N   UNL     1      -4.862   2.790  24.182  0.00  0.00    -0.192 NA
ATOM     24  H   UNL     1      -5.420   1.985  23.868  0.00  0.00    +0.148 HD
BRANCH   9   1
ATOM      1  S   UNL     1      -5.252   3.423  25.719  0.00  0.00    +0.027 S 
ATOM      6  O   UNL     1      -5.753   2.364  26.575  0.00  0.00    -0.158 OA
ATOM      7  O   UNL     1      -6.008   4.647  25.534  0.00  0.00    -0.158 OA
ATOM     20  C   UNL     1      -3.637   3.880  26.302  0.00  0.00    +0.214 C 
ENDBRANCH   9   1
ENDBRANCH  18   9
ENDBRANCH  14  18
TORSDOF 8
ENDMDL
MODEL 8
REMARK VINA RESULT:      -5.3      2.388      4.026
REMARK  Name = 25390436
REMARK  9 active torsions:
REMARK  status: ('A' for Active; 'I' for Inactive)
REMARK    1  A    between atoms: S_1  and  N_9
REMARK    2  A    between atoms: S_1  and  C_20
REMARK    3  A    between atoms: O_3  and  C_12
REMARK    4  A    between atoms: O_4  and  C_13
REMARK    5  A    between atoms: N_8  and  C_11
REMARK    6  A    between atoms: N_9  and  C_18
REMARK    7  A    between atoms: C_10  and  C_17
REMARK    8  A    between atoms: C_14  and  C_18
REMARK    9  A    between atoms: C_17  and  C_19
REMARK                            x       y       z     vdW  Elec       q    Type
REMARK                         _______ _______ _______ _____ _____    ______ ____
ROOT
ATOM      2  O   UNL     1      -1.651   0.779  23.303  0.00  0.00    -0.366 OA
ATOM     10  C   UNL     1      -0.508   0.180  23.940  0.00  0.00    +0.158 C 
ATOM     12  C   UNL     1      -1.007  -0.333  25.279  0.00  0.00    +0.175 C 
ATOM     13  C   UNL     1      -2.411  -0.781  24.930  0.00  0.00    +0.175 C 
ATOM     14  C   UNL     1      -2.852   0.299  23.947  0.00  0.00    +0.165 C 
ENDROOT
BRANCH  12   3
ATOM      3  O   UNL     1      -0.197  -1.374  25.783  0.00  0.00    -0.387 OA
ATOM     22  H   UNL     1      -0.768  -1.960  26.306  0.00  0.00    +0.210 HD
ENDBRANCH  12   3
BRANCH  13   4
ATOM      4  O   UNL     1      -2.375  -2.025  24.233  0.00  0.00    -0.387 OA
ATOM     23  H   UNL     1      -1.576  -2.026  23.679  0.00  0.00    +0.210 HD
ENDBRANCH  13   4
BRANCH  10  17
ATOM     17  C   UNL     1       0.604   1.206  24.064  0.00  0.00    +0.130 C 
BRANCH  17  19
ATOM      5  O   UNL     1       0.541   2.322  26.211  0.00  0.00    -0.276 OA
ATOM      8  N   UNL     1      -0.422   3.360  24.371  0.00  0.00    -0.312 N 
ATOM     19  C   UNL     1       0.253   2.334  25.017  0.00  0.00    +0.216 C 
ATOM     21  H   UNL     1      -0.625   3.283  23.378  0.00  0.00    +0.149 HD
BRANCH   8  11
ATOM     11  C   UNL     1      -0.864   4.541  25.053  0.00  0.00    +0.073 C 
ATOM     15  C   UNL     1      -2.069   5.304  24.584  0.00  0.00    +0.024 C 
ATOM     16  C   UNL     1      -2.120   4.541  25.875  0.00  0.00    +0.024 C 
ENDBRANCH   8  11
ENDBRANCH  17  19
ENDBRANCH  10  17
BRANCH  14  18
ATOM     18  C   UNL     1      -3.524   1.484  24.626  0.00  0.00    +0.139 C 
BRANCH  18   9
ATOM      9  N   UNL     1      -4.648   1.006  25.451  0.00  0.00    -0.192 NA
ATOM     24  H   UNL     1      -4.351   0.471  26.278  0.00  0.00    +0.148 HD
BRANCH   9   1
ATOM      1  S   UNL     1      -6.017   2.006  25.653  0.00  0.00    +0.027 S 
ATOM      6  O   UNL     1      -6.489   1.924  27.022  0.00  0.00    -0.158 OA
ATOM      7  O   UNL     1      -6.921   1.778  24.542  0.00  0.00    -0.158 OA
ATOM     20  C   UNL     1      -5.286   3.609  25.422  0.00  0.00    +0.214 C 
ENDBRANCH   9   1
ENDBRANCH  18   9
ENDBRANCH  14  18
TORSDOF 8
ENDMDL
MODEL 9
REMARK VINA RESULT:      -5.1      2.024      4.235
REMARK  Name = 25390436
REMARK  9 active torsions:
REMARK  status: ('A' for Active; 'I' for Inactive)
REMARK    1  A    between atoms: S_1  and  N_9
REMARK    2  A    between atoms: S_1  and  C_20
REMARK    3  A    between atoms: O_3  and  C_12
REMARK    4  A    between atoms: O_4  and  C_13
REMARK    5  A    between atoms: N_8  and  C_11
REMARK    6  A    between atoms: N_9  and  C_18
REMARK    7  A    between atoms: C_10  and  C_17
REMARK    8  A    between atoms: C_14  and  C_18
REMARK    9  A    between atoms: C_17  and  C_19
REMARK                            x       y       z     vdW  Elec       q    Type
REMARK                         _______ _______ _______ _____ _____    ______ ____
ROOT
ATOM      2  O   UNL     1      -2.721   1.985  25.520  0.00  0.00    -0.366 OA
ATOM     10  C   UNL     1      -2.654   3.407  25.315  0.00  0.00    +0.158 C 
ATOM     12  C   UNL     1      -3.651   3.711  24.212  0.00  0.00    +0.175 C 
ATOM     13  C   UNL     1      -4.748   2.710  24.509  0.00  0.00    +0.175 C 
ATOM     14  C   UNL     1      -3.950   1.486  24.945  0.00  0.00    +0.165 C 
ENDROOT
BRANCH  12   3
ATOM      3  O   UNL     1      -4.092   5.052  24.250  0.00  0.00    -0.387 OA
ATOM     22  H   UNL     1      -5.064   5.039  24.235  0.00  0.00    +0.210 HD
ENDBRANCH  12   3
BRANCH  13   4
ATOM      4  O   UNL     1      -5.530   3.147  25.620  0.00  0.00    -0.387 OA
ATOM     23  H   UNL     1      -5.236   4.046  25.847  0.00  0.00    +0.210 HD
ENDBRANCH  13   4
BRANCH  10  17
ATOM     17  C   UNL     1      -1.231   3.807  24.969  0.00  0.00    +0.130 C 
BRANCH  17  19
ATOM      5  O   UNL     1       0.425   2.539  26.198  0.00  0.00    -0.276 OA
ATOM      8  N   UNL     1      -0.192   1.831  24.074  0.00  0.00    -0.312 N 
ATOM     19  C   UNL     1      -0.241   2.675  25.175  0.00  0.00    +0.216 C 
ATOM     21  H   UNL     1      -0.776   2.024  23.265  0.00  0.00    +0.149 HD
BRANCH   8  11
ATOM     11  C   UNL     1       0.667   0.684  24.020  0.00  0.00    +0.073 C 
ATOM     15  C   UNL     1       0.797  -0.130  22.765  0.00  0.00    +0.024 C 
ATOM     16  C   UNL     1       1.948   0.708  23.239  0.00  0.00    +0.024 C 
ENDBRANCH   8  11
ENDBRANCH  17  19
ENDBRANCH  10  17
BRANCH  14  18
ATOM     18  C   UNL     1      -3.585   0.569  23.787  0.00  0.00    +0.139 C 
BRANCH  18   9
ATOM      9  N   UNL     1      -2.488  -0.328  24.196  0.00  0.00    -0.192 NA
ATOM     24  H   UNL     1      -1.683   0.168  24.601  0.00  0.00    +0.148 HD
BRANCH   9   1
ATOM      1  S   UNL     1      -2.865  -1.843  24.888  0.00  0.00    +0.027 S 
ATOM      6  O   UNL     1      -3.401  -1.655  26.222  0.00  0.00    -0.158 OA
ATOM      7  O   UNL     1      -1.752  -2.744  24.655  0.00  0.00    -0.158 OA
ATOM     20  C   UNL     1      -4.197  -2.361  23.831  0.00  0.00    +0.214 C 
ENDBRANCH   9   1
ENDBRANCH  18   9
ENDBRANCH  14  18
TORSDOF 8
ENDMDL
MODEL 10
REMARK VINA RESULT:      -4.8      2.746      4.625
REMARK  Name = 25390436
REMARK  9 active torsions:
REMARK  status: ('A' for Active; 'I' for Inactive)
REMARK    1  A    between atoms: S_1  and  N_9
REMARK    2  A    between atoms: S_1  and  C_20
REMARK    3  A    between atoms: O_3  and  C_12
REMARK    4  A    between atoms: O_4  and  C_13
REMARK    5  A    between atoms: N_8  and  C_11
REMARK    6  A    between atoms: N_9  and  C_18
REMARK    7  A    between atoms: C_10  and  C_17
REMARK    8  A    between atoms: C_14  and  C_18
REMARK    9  A    between atoms: C_17  and  C_19
REMARK                            x       y       z     vdW  Elec       q    Type
REMARK                         _______ _______ _______ _____ _____    ______ ____
ROOT
ATOM      2  O   UNL     1      -1.447   0.583  25.279  0.00  0.00    -0.366 OA
ATOM     10  C   UNL     1      -2.414  -0.476  25.168  0.00  0.00    +0.158 C 
ATOM     12  C   UNL     1      -1.812  -1.481  24.202  0.00  0.00    +0.175 C 
ATOM     13  C   UNL     1      -0.341  -1.391  24.547  0.00  0.00    +0.175 C 
ATOM     14  C   UNL     1      -0.168   0.102  24.808  0.00  0.00    +0.165 C 
ENDROOT
BRANCH  12   3
ATOM      3  O   UNL     1      -2.350  -2.775  24.381  0.00  0.00    -0.387 OA
ATOM     22  H   UNL     1      -1.745  -3.403  23.953  0.00  0.00    +0.210 HD
ENDBRANCH  12   3
BRANCH  13   4
ATOM      4  O   UNL     1      -0.073  -2.087  25.763  0.00  0.00    -0.387 OA
ATOM     23  H   UNL     1       0.739  -1.709  26.143  0.00  0.00    +0.210 HD
ENDBRANCH  13   4
BRANCH  10  17
ATOM     17  C   UNL     1      -3.741   0.092  24.698  0.00  0.00    +0.130 C 
BRANCH  17  19
ATOM      5  O   UNL     1      -3.599   1.862  23.052  0.00  0.00    -0.276 OA
ATOM      8  N   UNL     1      -3.562   2.411  25.308  0.00  0.00    -0.312 N 
ATOM     19  C   UNL     1      -3.628   1.533  24.235  0.00  0.00    +0.216 C 
ATOM     21  H   UNL     1      -3.586   2.050  26.258  0.00  0.00    +0.149 HD
BRANCH   8  11
ATOM     11  C   UNL     1      -3.451   3.831  25.136  0.00  0.00    +0.073 C 
ATOM     15  C   UNL     1      -2.996   4.716  26.260  0.00  0.00    +0.024 C 
ATOM     16  C   UNL     1      -2.111   4.503  25.067  0.00  0.00    +0.024 C 
ENDBRANCH   8  11
ENDBRANCH  17  19
ENDBRANCH  10  17
BRANCH  14  18
ATOM     18  C   UNL     1       0.195   0.888  23.557  0.00  0.00    +0.139 C 
BRANCH  18   9
ATOM      9  N   UNL     1       1.648   1.138  23.537  0.00  0.00    -0.192 NA
ATOM     24  H   UNL     1       2.015   1.487  24.432  0.00  0.00    +0.148 HD
BRANCH   9   1
ATOM      1  S   UNL     1       2.664   0.077  22.667  0.00  0.00    +0.027 S 
ATOM      6  O   UNL     1       2.123  -0.145  21.340  0.00  0.00    -0.158 OA
ATOM      7  O   UNL     1       3.003  -1.042  23.526  0.00  0.00    -0.158 OA
ATOM     20  C   UNL     1       4.120   1.082  22.503  0.00  0.00    +0.214 C 
ENDBRANCH   9   1
ENDBRANCH  18   9
ENDBRANCH  14  18
TORSDOF 8
ENDMDL
