MODEL 1
REMARK VINA RESULT:      -0.2      0.000      0.000
REMARK  Name = 11912504
REMARK  10 active torsions:
REMARK  status: ('A' for Active; 'I' for Inactive)
REMARK    1  A    between atoms: O_4  and  C_28
REMARK    2  A    between atoms: O_4  and  C_31
REMARK    3  A    between atoms: N_6  and  C_19
REMARK    4  A    between atoms: N_7  and  C_23
REMARK    5  A    between atoms: N_8  and  C_20
REMARK    6  A    between atoms: C_9  and  C_15
REMARK    7  A    between atoms: C_10  and  C_14
REMARK    8  A    between atoms: C_14  and  C_16
REMARK    9  A    between atoms: C_15  and  C_17
REMARK   10  A    between atoms: C_19  and  C_20
REMARK                            x       y       z     vdW  Elec       q    Type
REMARK                         _______ _______ _______ _____ _____    ______ ____
ROOT
ATOM      2  O   UNL     1      -0.441  -1.228  25.911  0.00  0.00    -0.252 OA
ATOM      5  N   UNL     1      -2.363  -1.077  24.636  0.00  0.00    -0.285 N 
ATOM      7  N   UNL     1      -0.240  -1.053  23.607  0.00  0.00    -0.269 N 
ATOM      9  C   UNL     1      -4.911   0.290  24.549  0.00  0.00    +0.004 C 
ATOM     10  C   UNL     1      -3.973   0.265  23.314  0.00  0.00    +0.010 C 
ATOM     11  C   UNL     1      -4.131   0.108  25.864  0.00  0.00    +0.023 C 
ATOM     12  C   UNL     1      -3.093  -0.995  23.362  0.00  0.00    +0.113 C 
ATOM     13  C   UNL     1      -3.228  -1.124  25.815  0.00  0.00    +0.109 C 
ATOM     18  C   UNL     1      -0.962  -1.136  24.797  0.00  0.00    +0.306 C 
ATOM     33  H   UNL     1      -0.669  -1.399  22.757  0.00  0.00    +0.156 HD
ENDROOT
BRANCH   7  23
ATOM     23  C   UNL     1       1.057  -0.512  23.423  0.00  0.00    +0.038 A 
ATOM     26  C   UNL     1       2.181  -1.285  23.714  0.00  0.00    +0.069 A 
ATOM     27  C   UNL     1       1.210   0.791  22.952  0.00  0.00    +0.023 A 
ATOM     28  C   UNL     1       3.458  -0.754  23.534  0.00  0.00    +0.122 A 
ATOM     29  C   UNL     1       2.486   1.323  22.772  0.00  0.00    +0.005 A 
ATOM     30  C   UNL     1       3.611   0.550  23.063  0.00  0.00    +0.046 A 
BRANCH  28   4
ATOM      4  O   UNL     1       4.555  -1.508  23.818  0.00  0.00    -0.495 OA
ATOM     31  C   UNL     1       5.738  -0.813  24.209  0.00  0.00    +0.277 C 
ENDBRANCH  28   4
ENDBRANCH   7  23
BRANCH  10  14
ATOM     14  C   UNL     1      -3.106   1.520  23.162  0.00  0.00    +0.002 C 
ATOM     16  C   UNL     1      -2.511   1.609  21.772  0.00  0.00    +0.004 C 
ENDBRANCH  10  14
BRANCH   9  15
ATOM     15  C   UNL     1      -5.789   1.540  24.612  0.00  0.00    +0.099 C 
BRANCH  15  17
ATOM      1  O   UNL     1      -6.013   2.156  26.940  0.00  0.00    -0.276 OA
ATOM      6  N   UNL     1      -4.626   3.406  25.557  0.00  0.00    -0.314 N 
ATOM     17  C   UNL     1      -5.510   2.376  25.842  0.00  0.00    +0.213 C 
ATOM     32  H   UNL     1      -4.257   3.498  24.615  0.00  0.00    +0.149 HD
BRANCH   6  19
ATOM     19  C   UNL     1      -4.183   4.362  26.546  0.00  0.00    +0.119 C 
BRANCH  19  20
ATOM     20  C   UNL     1      -2.869   5.010  26.138  0.00  0.00    +0.103 C 
BRANCH  20   8
ATOM      3  O   UNL     1       0.561   2.769  25.226  0.00  0.00    -0.377 OA
ATOM      8  N   UNL     1      -1.977   4.018  25.540  0.00  0.00    -0.297 NA
ATOM     21  C   UNL     1      -0.884   4.673  24.809  0.00  0.00    +0.112 C 
ATOM     22  C   UNL     1      -1.431   3.122  26.568  0.00  0.00    +0.112 C 
ATOM     24  C   UNL     1       0.038   3.618  24.204  0.00  0.00    +0.175 C 
ATOM     25  C   UNL     1      -0.495   2.103  25.922  0.00  0.00    +0.175 C 
ENDBRANCH  20   8
ENDBRANCH  19  20
ENDBRANCH   6  19
ENDBRANCH  15  17
ENDBRANCH   9  15
TORSDOF 8
ENDMDL
MODEL 2
REMARK VINA RESULT:       3.0      1.798      5.120
REMARK  Name = 11912504
REMARK  10 active torsions:
REMARK  status: ('A' for Active; 'I' for Inactive)
REMARK    1  A    between atoms: O_4  and  C_28
REMARK    2  A    between atoms: O_4  and  C_31
REMARK    3  A    between atoms: N_6  and  C_19
REMARK    4  A    between atoms: N_7  and  C_23
REMARK    5  A    between atoms: N_8  and  C_20
REMARK    6  A    between atoms: C_9  and  C_15
REMARK    7  A    between atoms: C_10  and  C_14
REMARK    8  A    between atoms: C_14  and  C_16
REMARK    9  A    between atoms: C_15  and  C_17
REMARK   10  A    between atoms: C_19  and  C_20
REMARK                            x       y       z     vdW  Elec       q    Type
REMARK                         _______ _______ _______ _____ _____    ______ ____
ROOT
ATOM      2  O   UNL     1      -4.764   0.376  26.536  0.00  0.00    -0.252 OA
ATOM      5  N   UNL     1      -4.722   2.220  25.142  0.00  0.00    -0.285 N 
ATOM      7  N   UNL     1      -4.732   0.040  24.241  0.00  0.00    -0.269 N 
ATOM      9  C   UNL     1      -3.400   4.774  24.817  0.00  0.00    +0.004 C 
ATOM     10  C   UNL     1      -3.490   3.763  23.644  0.00  0.00    +0.010 C 
ATOM     11  C   UNL     1      -3.488   4.071  26.185  0.00  0.00    +0.023 C 
ATOM     12  C   UNL     1      -4.731   2.874  23.825  0.00  0.00    +0.113 C 
ATOM     13  C   UNL     1      -4.707   3.154  26.268  0.00  0.00    +0.109 C 
ATOM     18  C   UNL     1      -4.751   0.831  25.389  0.00  0.00    +0.306 C 
ATOM     33  H   UNL     1      -5.138   0.414  23.390  0.00  0.00    +0.156 HD
ENDROOT
BRANCH   7  23
ATOM     23  C   UNL     1      -4.185  -1.260  24.100  0.00  0.00    +0.038 A 
ATOM     26  C   UNL     1      -2.886  -1.520  24.537  0.00  0.00    +0.069 A 
ATOM     27  C   UNL     1      -4.944  -2.277  23.525  0.00  0.00    +0.023 A 
ATOM     28  C   UNL     1      -2.347  -2.799  24.399  0.00  0.00    +0.122 A 
ATOM     29  C   UNL     1      -4.406  -3.556  23.386  0.00  0.00    +0.005 A 
ATOM     30  C   UNL     1      -3.107  -3.817  23.823  0.00  0.00    +0.046 A 
BRANCH  28   4
ATOM      4  O   UNL     1      -1.080  -3.054  24.825  0.00  0.00    -0.495 OA
ATOM     31  C   UNL     1      -0.438  -2.041  25.597  0.00  0.00    +0.277 C 
ENDBRANCH  28   4
ENDBRANCH   7  23
BRANCH  10  14
ATOM     14  C   UNL     1      -2.234   2.902  23.464  0.00  0.00    +0.002 C 
ATOM     16  C   UNL     1      -2.410   1.907  22.336  0.00  0.00    +0.004 C 
ENDBRANCH  10  14
BRANCH   9  15
ATOM     15  C   UNL     1      -2.162   5.667  24.749  0.00  0.00    +0.099 C 
BRANCH  15  17
ATOM      1  O   UNL     1       0.048   5.126  23.927  0.00  0.00    -0.276 OA
ATOM      6  N   UNL     1      -0.901   3.818  25.598  0.00  0.00    -0.314 N 
ATOM     17  C   UNL     1      -0.880   4.867  24.690  0.00  0.00    +0.213 C 
ATOM     32  H   UNL     1      -1.715   3.693  26.192  0.00  0.00    +0.149 HD
BRANCH   6  19
ATOM     19  C   UNL     1       0.194   2.888  25.755  0.00  0.00    +0.119 C 
BRANCH  19  20
ATOM     20  C   UNL     1      -0.155   1.522  25.185  0.00  0.00    +0.103 C 
BRANCH  20   8
ATOM      3  O   UNL     1       2.488  -0.106  22.361  0.00  0.00    -0.377 OA
ATOM      8  N   UNL     1       0.576   1.289  23.941  0.00  0.00    -0.297 NA
ATOM     21  C   UNL     1       2.020   1.473  24.141  0.00  0.00    +0.112 C 
ATOM     22  C   UNL     1       0.307  -0.060  23.424  0.00  0.00    +0.112 C 
ATOM     24  C   UNL     1       2.760   1.213  22.833  0.00  0.00    +0.175 C 
ATOM     25  C   UNL     1       1.090  -0.285  22.133  0.00  0.00    +0.175 C 
ENDBRANCH  20   8
ENDBRANCH  19  20
ENDBRANCH   6  19
ENDBRANCH  15  17
ENDBRANCH   9  15
TORSDOF 8
ENDMDL
MODEL 3
REMARK VINA RESULT:       3.4      1.610      4.110
REMARK  Name = 11912504
REMARK  10 active torsions:
REMARK  status: ('A' for Active; 'I' for Inactive)
REMARK    1  A    between atoms: O_4  and  C_28
REMARK    2  A    between atoms: O_4  and  C_31
REMARK    3  A    between atoms: N_6  and  C_19
REMARK    4  A    between atoms: N_7  and  C_23
REMARK    5  A    between atoms: N_8  and  C_20
REMARK    6  A    between atoms: C_9  and  C_15
REMARK    7  A    between atoms: C_10  and  C_14
REMARK    8  A    between atoms: C_14  and  C_16
REMARK    9  A    between atoms: C_15  and  C_17
REMARK   10  A    between atoms: C_19  and  C_20
REMARK                            x       y       z     vdW  Elec       q    Type
REMARK                         _______ _______ _______ _____ _____    ______ ____
ROOT
ATOM      2  O   UNL     1      -1.289   1.354  21.854  0.00  0.00    -0.252 OA
ATOM      5  N   UNL     1      -1.704   3.132  23.273  0.00  0.00    -0.285 N 
ATOM      7  N   UNL     1       0.459   2.202  23.121  0.00  0.00    -0.269 N 
ATOM      9  C   UNL     1      -3.616   4.048  25.242  0.00  0.00    +0.004 C 
ATOM     10  C   UNL     1      -2.096   4.025  25.551  0.00  0.00    +0.010 C 
ATOM     11  C   UNL     1      -3.994   3.023  24.157  0.00  0.00    +0.023 C 
ATOM     12  C   UNL     1      -1.303   4.163  24.241  0.00  0.00    +0.113 C 
ATOM     13  C   UNL     1      -3.121   3.175  22.912  0.00  0.00    +0.109 C 
ATOM     18  C   UNL     1      -0.863   2.168  22.677  0.00  0.00    +0.306 C 
ATOM     33  H   UNL     1       0.841   3.088  23.432  0.00  0.00    +0.156 HD
ENDROOT
BRANCH   7  23
ATOM     23  C   UNL     1       1.365   1.117  23.211  0.00  0.00    +0.038 A 
ATOM     26  C   UNL     1       2.730   1.331  23.014  0.00  0.00    +0.069 A 
ATOM     27  C   UNL     1       0.894  -0.164  23.496  0.00  0.00    +0.023 A 
ATOM     28  C   UNL     1       3.623   0.262  23.102  0.00  0.00    +0.122 A 
ATOM     29  C   UNL     1       1.786  -1.232  23.584  0.00  0.00    +0.005 A 
ATOM     30  C   UNL     1       3.151  -1.019  23.387  0.00  0.00    +0.046 A 
BRANCH  28   4
ATOM      4  O   UNL     1       4.954   0.471  22.910  0.00  0.00    -0.495 OA
ATOM     31  C   UNL     1       5.852  -0.242  23.759  0.00  0.00    +0.277 C 
ENDBRANCH  28   4
ENDBRANCH   7  23
BRANCH  10  14
ATOM     14  C   UNL     1      -1.635   2.788  26.330  0.00  0.00    +0.002 C 
ATOM     16  C   UNL     1      -0.125   2.675  26.335  0.00  0.00    +0.004 C 
ENDBRANCH  10  14
BRANCH   9  15
ATOM     15  C   UNL     1      -4.486   3.862  26.485  0.00  0.00    +0.099 C 
BRANCH  15  17
ATOM      1  O   UNL     1      -6.575   2.697  26.839  0.00  0.00    -0.276 OA
ATOM      6  N   UNL     1      -4.900   1.682  25.589  0.00  0.00    -0.314 N 
ATOM     17  C   UNL     1      -5.452   2.707  26.342  0.00  0.00    +0.213 C 
ATOM     32  H   UNL     1      -3.962   1.791  25.214  0.00  0.00    +0.149 HD
BRANCH   6  19
ATOM     19  C   UNL     1      -5.602   0.453  25.294  0.00  0.00    +0.119 C 
BRANCH  19  20
ATOM     20  C   UNL     1      -4.877  -0.353  24.227  0.00  0.00    +0.103 C 
BRANCH  20   8
ATOM      3  O   UNL     1      -1.322  -2.520  24.762  0.00  0.00    -0.377 OA
ATOM      8  N   UNL     1      -3.827  -1.170  24.833  0.00  0.00    -0.297 NA
ATOM     21  C   UNL     1      -3.653  -2.428  24.094  0.00  0.00    +0.112 C 
ATOM     22  C   UNL     1      -2.556  -0.434  24.880  0.00  0.00    +0.112 C 
ATOM     24  C   UNL     1      -2.545  -3.257  24.738  0.00  0.00    +0.175 C 
ATOM     25  C   UNL     1      -1.473  -1.310  25.505  0.00  0.00    +0.175 C 
ENDBRANCH  20   8
ENDBRANCH  19  20
ENDBRANCH   6  19
ENDBRANCH  15  17
ENDBRANCH   9  15
TORSDOF 8
ENDMDL
