MODEL 1
REMARK VINA RESULT:       5.8      0.000      0.000
REMARK  Name = 40780204
REMARK  7 active torsions:
REMARK  status: ('A' for Active; 'I' for Inactive)
REMARK    1  A    between atoms: N_5  and  C_15
REMARK    2  A    between atoms: N_7  and  C_22
REMARK    3  A    between atoms: N_8  and  C_30
REMARK    4  A    between atoms: C_10  and  C_15
REMARK    5  A    between atoms: C_12  and  C_22
REMARK    6  A    between atoms: C_35  and  C_36
REMARK    7  A    between atoms: C_36  and  C_37
REMARK                            x       y       z     vdW  Elec       q    Type
REMARK                         _______ _______ _______ _____ _____    ______ ____
ROOT
ATOM      4  N   UNL     1      -3.321  -1.728  23.846  0.00  0.00    -0.298 NA
ATOM      9  C   UNL     1      -3.618  -0.239  25.958  0.00  0.00    -0.003 C 
ATOM     10  C   UNL     1      -4.956  -0.393  25.199  0.00  0.00    +0.020 C 
ATOM     11  C   UNL     1      -2.559   0.350  25.009  0.00  0.00    +0.024 C 
ATOM     12  C   UNL     1      -2.311  -0.636  23.845  0.00  0.00    +0.074 C 
ATOM     13  C   UNL     1      -4.691  -1.161  23.885  0.00  0.00    +0.089 C 
ATOM     14  C   UNL     1      -3.153  -1.657  26.337  0.00  0.00    +0.019 C 
ATOM     16  C   UNL     1      -3.120  -2.535  25.073  0.00  0.00    +0.085 C 
ENDROOT
BRANCH  10  15
ATOM     15  C   UNL     1      -5.654   0.927  24.944  0.00  0.00    +0.089 C 
BRANCH  15   5
ATOM      1  O   UNL     1      -0.380   2.799  27.505  0.00  0.00    -0.268 OA
ATOM      5  N   UNL     1      -4.753   2.058  25.154  0.00  0.00    -0.301 NA
ATOM      6  N   UNL     1      -1.959   3.411  25.888  0.00  0.00    -0.312 N 
ATOM     17  C   UNL     1      -4.342   4.159  26.459  0.00  0.00    +0.024 C 
ATOM     18  C   UNL     1      -3.636   4.037  24.116  0.00  0.00    +0.050 C 
ATOM     19  C   UNL     1      -5.236   2.921  26.240  0.00  0.00    +0.089 C 
ATOM     20  C   UNL     1      -4.562   2.817  23.909  0.00  0.00    +0.094 C 
ATOM     21  C   UNL     1      -4.239   4.963  25.169  0.00  0.00    +0.017 C 
ATOM     23  C   UNL     1      -2.927   3.789  26.926  0.00  0.00    +0.130 C 
ATOM     24  C   UNL     1      -2.247   3.586  24.529  0.00  0.00    +0.026 A 
ATOM     25  C   UNL     1      -1.306   3.335  23.602  0.00  0.00    +0.022 A 
ATOM     26  C   UNL     1      -0.701   2.958  26.327  0.00  0.00    +0.251 A 
ATOM     27  C   UNL     1      -0.004   2.868  23.985  0.00  0.00    +0.007 A 
ATOM     28  C   UNL     1       0.306   2.671  25.268  0.00  0.00    +0.070 A 
ENDBRANCH  15   5
ENDBRANCH  10  15
BRANCH  12  22
ATOM     22  C   UNL     1      -2.230   0.084  22.498  0.00  0.00    +0.124 C 
BRANCH  22   7
ATOM      2  O   UNL     1       0.117  -0.831  23.859  0.00  0.00    -0.253 OA
ATOM      7  N   UNL     1      -0.874   0.389  22.163  0.00  0.00    -0.298 N 
ATOM      8  N   UNL     1       1.429   0.366  22.324  0.00  0.00    -0.269 N 
ATOM     29  C   UNL     1       0.233  -0.098  22.880  0.00  0.00    +0.304 C 
ATOM     38  H   UNL     1      -0.700   0.993  21.365  0.00  0.00    +0.150 HD
ATOM     39  H   UNL     1       1.348   0.969  21.509  0.00  0.00    +0.156 HD
BRANCH   8  30
ATOM     30  C   UNL     1       2.748   0.099  22.756  0.00  0.00    +0.035 A 
ATOM     31  C   UNL     1       3.726   1.089  22.661  0.00  0.00    +0.024 A 
ATOM     32  C   UNL     1       3.073  -1.154  23.277  0.00  0.00    +0.024 A 
ATOM     33  C   UNL     1       5.029   0.826  23.087  0.00  0.00    +0.013 A 
ATOM     34  C   UNL     1       4.374  -1.416  23.703  0.00  0.00    +0.013 A 
ATOM     35  C   UNL     1       5.352  -0.426  23.608  0.00  0.00    +0.017 A 
BRANCH  35  36
ATOM      3  O   UNL     1       6.941  -1.189  25.176  0.00  0.00    -0.292 OA
ATOM     36  C   UNL     1       6.710  -0.699  24.052  0.00  0.00    +0.160 C 
ATOM     37  C   UNL     1       7.894  -0.389  23.143  0.00  0.00    +0.091 C 
ENDBRANCH  35  36
ENDBRANCH   8  30
ENDBRANCH  22   7
ENDBRANCH  12  22
TORSDOF 6
ENDMDL
MODEL 2
REMARK VINA RESULT:       6.8      1.109      1.258
REMARK  Name = 40780204
REMARK  7 active torsions:
REMARK  status: ('A' for Active; 'I' for Inactive)
REMARK    1  A    between atoms: N_5  and  C_15
REMARK    2  A    between atoms: N_7  and  C_22
REMARK    3  A    between atoms: N_8  and  C_30
REMARK    4  A    between atoms: C_10  and  C_15
REMARK    5  A    between atoms: C_12  and  C_22
REMARK    6  A    between atoms: C_35  and  C_36
REMARK    7  A    between atoms: C_36  and  C_37
REMARK                            x       y       z     vdW  Elec       q    Type
REMARK                         _______ _______ _______ _____ _____    ______ ____
ROOT
ATOM      4  N   UNL     1      -2.379  -1.695  23.936  0.00  0.00    -0.298 NA
ATOM      9  C   UNL     1      -3.635  -0.402  25.811  0.00  0.00    -0.003 C 
ATOM     10  C   UNL     1      -4.557  -0.642  24.593  0.00  0.00    +0.020 C 
ATOM     11  C   UNL     1      -2.380   0.364  25.355  0.00  0.00    +0.024 C 
ATOM     12  C   UNL     1      -1.590  -0.504  24.351  0.00  0.00    +0.074 C 
ATOM     13  C   UNL     1      -3.721  -1.281  23.461  0.00  0.00    +0.089 C 
ATOM     14  C   UNL     1      -3.173  -1.786  26.302  0.00  0.00    +0.019 C 
ATOM     16  C   UNL     1      -2.556  -2.563  25.125  0.00  0.00    +0.085 C 
ENDROOT
BRANCH  10  15
ATOM     15  C   UNL     1      -5.267   0.611  24.124  0.00  0.00    +0.089 C 
BRANCH  15   5
ATOM      1  O   UNL     1      -0.634   2.825  27.517  0.00  0.00    -0.268 OA
ATOM      5  N   UNL     1      -4.601   1.817  24.609  0.00  0.00    -0.301 NA
ATOM      6  N   UNL     1      -2.158   3.451  25.853  0.00  0.00    -0.312 N 
ATOM     17  C   UNL     1      -4.675   3.695  26.268  0.00  0.00    +0.024 C 
ATOM     18  C   UNL     1      -3.769   4.101  24.028  0.00  0.00    +0.050 C 
ATOM     19  C   UNL     1      -5.315   2.388  25.759  0.00  0.00    +0.089 C 
ATOM     20  C   UNL     1      -4.445   2.803  23.529  0.00  0.00    +0.094 C 
ATOM     21  C   UNL     1      -4.610   4.719  25.141  0.00  0.00    +0.017 C 
ATOM     23  C   UNL     1      -3.260   3.481  26.824  0.00  0.00    +0.130 C 
ATOM     24  C   UNL     1      -2.360   3.812  24.516  0.00  0.00    +0.026 A 
ATOM     25  C   UNL     1      -1.318   3.882  23.671  0.00  0.00    +0.022 A 
ATOM     26  C   UNL     1      -0.881   3.135  26.351  0.00  0.00    +0.251 A 
ATOM     27  C   UNL     1       0.011   3.569  24.115  0.00  0.00    +0.007 A 
ATOM     28  C   UNL     1       0.245   3.203  25.377  0.00  0.00    +0.070 A 
ENDBRANCH  15   5
ENDBRANCH  10  15
BRANCH  12  22
ATOM     22  C   UNL     1      -1.097   0.315  23.156  0.00  0.00    +0.124 C 
BRANCH  22   7
ATOM      2  O   UNL     1       1.385  -0.988  22.571  0.00  0.00    -0.253 OA
ATOM      7  N   UNL     1       0.216   0.829  23.396  0.00  0.00    -0.298 N 
ATOM      8  N   UNL     1       2.524   0.877  23.428  0.00  0.00    -0.269 N 
ATOM     29  C   UNL     1       1.395   0.130  23.081  0.00  0.00    +0.304 C 
ATOM     38  H   UNL     1       0.302   1.748  23.820  0.00  0.00    +0.150 HD
ATOM     39  H   UNL     1       2.355   1.789  23.845  0.00  0.00    +0.156 HD
BRANCH   8  30
ATOM     30  C   UNL     1       3.883   0.521  23.270  0.00  0.00    +0.035 A 
ATOM     31  C   UNL     1       4.751   0.585  24.360  0.00  0.00    +0.024 A 
ATOM     32  C   UNL     1       4.356   0.105  22.026  0.00  0.00    +0.024 A 
ATOM     33  C   UNL     1       6.092   0.234  24.205  0.00  0.00    +0.013 A 
ATOM     34  C   UNL     1       5.697  -0.246  21.871  0.00  0.00    +0.013 A 
ATOM     35  C   UNL     1       6.565  -0.181  22.961  0.00  0.00    +0.017 A 
BRANCH  35  36
ATOM      3  O   UNL     1       8.304  -1.524  22.104  0.00  0.00    -0.292 OA
ATOM     36  C   UNL     1       7.964  -0.547  22.800  0.00  0.00    +0.160 C 
ATOM     37  C   UNL     1       9.055   0.265  23.488  0.00  0.00    +0.091 C 
ENDBRANCH  35  36
ENDBRANCH   8  30
ENDBRANCH  22   7
ENDBRANCH  12  22
TORSDOF 6
ENDMDL
