MODEL 1
REMARK VINA RESULT:      -1.8      0.000      0.000
REMARK  Name = 38029812
REMARK  13 active torsions:
REMARK  status: ('A' for Active; 'I' for Inactive)
REMARK    1  A    between atoms: O_1  and  C_18
REMARK    2  A    between atoms: O_1  and  C_21
REMARK    3  A    between atoms: N_4  and  C_13
REMARK    4  A    between atoms: C_6  and  C_10
REMARK    5  A    between atoms: C_7  and  C_13
REMARK    6  A    between atoms: C_9  and  C_14
REMARK    7  A    between atoms: C_10  and  C_15
REMARK    8  A    between atoms: C_10  and  C_16
REMARK    9  A    between atoms: C_11  and  C_17
REMARK   10  A    between atoms: C_14  and  C_18
REMARK   11  A    between atoms: C_19  and  C_20
REMARK   12  A    between atoms: C_21  and  C_24
REMARK   13  A    between atoms: C_27  and  C_28
REMARK                            x       y       z     vdW  Elec       q    Type
REMARK                         _______ _______ _______ _____ _____    ______ ____
ROOT
ATOM      6  C   UNL     1      -3.157   1.307  24.438  0.00  0.00    +0.000 C 
ATOM      7  C   UNL     1      -1.631   1.275  24.168  0.00  0.00    +0.032 C 
ATOM      8  C   UNL     1      -3.762   2.625  23.933  0.00  0.00    +0.012 C 
ATOM      9  C   UNL     1      -3.122   3.856  24.604  0.00  0.00    +0.025 C 
ATOM     11  C   UNL     1      -1.609   3.766  24.615  0.00  0.00    -0.073 C 
ATOM     12  C   UNL     1      -0.961   2.607  24.405  0.00  0.00    -0.022 C 
ATOM     17  C   UNL     1      -0.857   5.051  24.829  0.00  0.00    +0.039 C 
ENDROOT
BRANCH   6  10
ATOM     10  C   UNL     1      -3.875   0.122  23.785  0.00  0.00    -0.013 C 
ATOM     15  C   UNL     1      -3.966  -1.047  24.761  0.00  0.00    +0.007 C 
ATOM     16  C   UNL     1      -3.158  -0.297  22.506  0.00  0.00    +0.007 C 
ENDBRANCH   6  10
BRANCH   7  13
ATOM     13  C   UNL     1      -0.942   0.198  25.014  0.00  0.00    +0.112 C 
BRANCH  13   4
ATOM      3  O   UNL     1       0.302  -0.480  22.516  0.00  0.00    -0.270 OA
ATOM      4  N   UNL     1       0.461   0.160  24.742  0.00  0.00    -0.311 N 
ATOM     19  C   UNL     1       0.982  -0.182  23.495  0.00  0.00    +0.244 C 
ATOM     29  H   UNL     1       1.085   0.387  25.508  0.00  0.00    +0.149 HD
BRANCH  19  20
ATOM     20  C   UNL     1       2.464  -0.200  23.380  0.00  0.00    +0.037 A 
ATOM     22  C   UNL     1       3.138   0.911  22.875  0.00  0.00    +0.014 A 
ATOM     23  C   UNL     1       3.179  -1.330  23.779  0.00  0.00    +0.014 A 
ATOM     25  C   UNL     1       4.528   0.893  22.767  0.00  0.00    +0.019 A 
ATOM     26  C   UNL     1       4.569  -1.347  23.672  0.00  0.00    +0.019 A 
ATOM     27  C   UNL     1       5.245  -0.236  23.166  0.00  0.00    +0.052 A 
BRANCH  27  28
ATOM      5  N   UNL     1       7.826  -0.270  22.967  0.00  0.00    -0.191 NA
ATOM     28  C   UNL     1       6.669  -0.255  23.056  0.00  0.00    +0.099 C 
ENDBRANCH  27  28
ENDBRANCH  19  20
ENDBRANCH  13   4
ENDBRANCH   7  13
BRANCH   9  14
ATOM     14  C   UNL     1      -3.669   4.060  26.021  0.00  0.00    +0.128 C 
BRANCH  14  18
ATOM      2  O   UNL     1      -6.007   4.625  25.662  0.00  0.00    -0.251 OA
ATOM     18  C   UNL     1      -5.159   3.846  26.075  0.00  0.00    +0.308 C 
BRANCH  18   1
ATOM      1  O   UNL     1      -5.400   2.637  26.664  0.00  0.00    -0.465 OA
BRANCH   1  21
ATOM     21  C   UNL     1      -6.658   2.036  26.343  0.00  0.00    +0.229 C 
ATOM     24  C   UNL     1      -6.648   1.616  24.888  0.00  0.00    +0.048 C 
ENDBRANCH   1  21
ENDBRANCH  18   1
ENDBRANCH  14  18
ENDBRANCH   9  14
TORSDOF 9
ENDMDL
MODEL 2
REMARK VINA RESULT:      -1.2      1.132      3.192
REMARK  Name = 38029812
REMARK  13 active torsions:
REMARK  status: ('A' for Active; 'I' for Inactive)
REMARK    1  A    between atoms: O_1  and  C_18
REMARK    2  A    between atoms: O_1  and  C_21
REMARK    3  A    between atoms: N_4  and  C_13
REMARK    4  A    between atoms: C_6  and  C_10
REMARK    5  A    between atoms: C_7  and  C_13
REMARK    6  A    between atoms: C_9  and  C_14
REMARK    7  A    between atoms: C_10  and  C_15
REMARK    8  A    between atoms: C_10  and  C_16
REMARK    9  A    between atoms: C_11  and  C_17
REMARK   10  A    between atoms: C_14  and  C_18
REMARK   11  A    between atoms: C_19  and  C_20
REMARK   12  A    between atoms: C_21  and  C_24
REMARK   13  A    between atoms: C_27  and  C_28
REMARK                            x       y       z     vdW  Elec       q    Type
REMARK                         _______ _______ _______ _____ _____    ______ ____
ROOT
ATOM      6  C   UNL     1      -2.230   1.943  25.081  0.00  0.00    +0.000 C 
ATOM      7  C   UNL     1      -1.464   0.865  24.274  0.00  0.00    +0.032 C 
ATOM      8  C   UNL     1      -3.196   1.284  26.075  0.00  0.00    +0.012 C 
ATOM      9  C   UNL     1      -4.225   0.377  25.373  0.00  0.00    +0.025 C 
ATOM     11  C   UNL     1      -3.570  -0.538  24.359  0.00  0.00    -0.073 C 
ATOM     12  C   UNL     1      -2.330  -0.311  23.889  0.00  0.00    -0.022 C 
ATOM     17  C   UNL     1      -4.355  -1.746  23.929  0.00  0.00    +0.039 C 
ENDROOT
BRANCH   6  10
ATOM     10  C   UNL     1      -1.275   2.879  25.828  0.00  0.00    -0.013 C 
ATOM     15  C   UNL     1      -0.938   4.094  24.967  0.00  0.00    +0.007 C 
ATOM     16  C   UNL     1      -0.006   2.135  26.232  0.00  0.00    +0.007 C 
ENDBRANCH   6  10
BRANCH   7  13
ATOM     13  C   UNL     1      -0.826   1.464  23.016  0.00  0.00    +0.112 C 
BRANCH  13   4
ATOM      3  O   UNL     1       0.521  -1.048  23.368  0.00  0.00    -0.270 OA
ATOM      4  N   UNL     1       0.587   1.245  23.010  0.00  0.00    -0.311 N 
ATOM     19  C   UNL     1       1.160  -0.014  23.189  0.00  0.00    +0.244 C 
ATOM     29  H   UNL     1       1.179   2.057  22.876  0.00  0.00    +0.149 HD
BRANCH  19  20
ATOM     20  C   UNL     1       2.645  -0.071  23.184  0.00  0.00    +0.037 A 
ATOM     22  C   UNL     1       3.301  -1.207  23.657  0.00  0.00    +0.014 A 
ATOM     23  C   UNL     1       3.382   1.012  22.704  0.00  0.00    +0.014 A 
ATOM     25  C   UNL     1       4.694  -1.259  23.652  0.00  0.00    +0.019 A 
ATOM     26  C   UNL     1       4.775   0.959  22.698  0.00  0.00    +0.019 A 
ATOM     27  C   UNL     1       5.432  -0.177  23.173  0.00  0.00    +0.052 A 
BRANCH  27  28
ATOM      5  N   UNL     1       8.019  -0.274  23.162  0.00  0.00    -0.191 NA
ATOM     28  C   UNL     1       6.860  -0.231  23.167  0.00  0.00    +0.099 C 
ENDBRANCH  27  28
ENDBRANCH  19  20
ENDBRANCH  13   4
ENDBRANCH   7  13
BRANCH   9  14
ATOM     14  C   UNL     1      -5.340   1.205  24.725  0.00  0.00    +0.128 C 
BRANCH  14  18
ATOM      2  O   UNL     1      -6.513   1.694  26.798  0.00  0.00    -0.251 OA
ATOM     18  C   UNL     1      -6.044   2.073  25.734  0.00  0.00    +0.308 C 
BRANCH  18   1
ATOM      1  O   UNL     1      -6.068   3.354  25.259  0.00  0.00    -0.465 OA
BRANCH   1  21
ATOM     21  C   UNL     1      -4.834   4.071  25.357  0.00  0.00    +0.229 C 
ATOM     24  C   UNL     1      -4.261   4.259  23.968  0.00  0.00    +0.048 C 
ENDBRANCH   1  21
ENDBRANCH  18   1
ENDBRANCH  14  18
ENDBRANCH   9  14
TORSDOF 9
ENDMDL
MODEL 3
REMARK VINA RESULT:      -0.9      2.231      3.637
REMARK  Name = 38029812
REMARK  13 active torsions:
REMARK  status: ('A' for Active; 'I' for Inactive)
REMARK    1  A    between atoms: O_1  and  C_18
REMARK    2  A    between atoms: O_1  and  C_21
REMARK    3  A    between atoms: N_4  and  C_13
REMARK    4  A    between atoms: C_6  and  C_10
REMARK    5  A    between atoms: C_7  and  C_13
REMARK    6  A    between atoms: C_9  and  C_14
REMARK    7  A    between atoms: C_10  and  C_15
REMARK    8  A    between atoms: C_10  and  C_16
REMARK    9  A    between atoms: C_11  and  C_17
REMARK   10  A    between atoms: C_14  and  C_18
REMARK   11  A    between atoms: C_19  and  C_20
REMARK   12  A    between atoms: C_21  and  C_24
REMARK   13  A    between atoms: C_27  and  C_28
REMARK                            x       y       z     vdW  Elec       q    Type
REMARK                         _______ _______ _______ _____ _____    ______ ____
ROOT
ATOM      6  C   UNL     1      -3.379   2.073  24.865  0.00  0.00    +0.000 C 
ATOM      7  C   UNL     1      -2.682   2.279  23.497  0.00  0.00    +0.032 C 
ATOM      8  C   UNL     1      -3.458   3.401  25.632  0.00  0.00    +0.012 C 
ATOM      9  C   UNL     1      -2.066   4.014  25.881  0.00  0.00    +0.025 C 
ATOM     11  C   UNL     1      -1.216   4.006  24.627  0.00  0.00    -0.073 C 
ATOM     12  C   UNL     1      -1.514   3.235  23.567  0.00  0.00    -0.022 C 
ATOM     17  C   UNL     1      -0.038   4.940  24.603  0.00  0.00    +0.039 C 
ENDROOT
BRANCH   6  10
ATOM     10  C   UNL     1      -4.783   1.482  24.704  0.00  0.00    -0.013 C 
ATOM     15  C   UNL     1      -5.765   2.182  25.639  0.00  0.00    +0.007 C 
ATOM     16  C   UNL     1      -4.762  -0.020  24.968  0.00  0.00    +0.007 C 
ENDBRANCH   6  10
BRANCH   7  13
ATOM     13  C   UNL     1      -2.215   0.944  22.906  0.00  0.00    +0.112 C 
BRANCH  13   4
ATOM      3  O   UNL     1      -0.632  -1.249  23.872  0.00  0.00    -0.270 OA
ATOM      4  N   UNL     1      -0.788   0.858  22.911  0.00  0.00    -0.311 N 
ATOM     19  C   UNL     1      -0.096  -0.249  23.402  0.00  0.00    +0.244 C 
ATOM     29  H   UNL     1      -0.277   1.653  22.544  0.00  0.00    +0.149 HD
BRANCH  19  20
ATOM     20  C   UNL     1       1.387  -0.173  23.361  0.00  0.00    +0.037 A 
ATOM     22  C   UNL     1       2.152  -1.298  23.668  0.00  0.00    +0.014 A 
ATOM     23  C   UNL     1       2.014   1.025  23.015  0.00  0.00    +0.014 A 
ATOM     25  C   UNL     1       3.544  -1.225  23.630  0.00  0.00    +0.019 A 
ATOM     26  C   UNL     1       3.406   1.097  22.977  0.00  0.00    +0.019 A 
ATOM     27  C   UNL     1       4.172  -0.028  23.284  0.00  0.00    +0.052 A 
BRANCH  27  28
ATOM      5  N   UNL     1       6.756   0.107  23.211  0.00  0.00    -0.191 NA
ATOM     28  C   UNL     1       5.598   0.046  23.244  0.00  0.00    +0.099 C 
ENDBRANCH  27  28
ENDBRANCH  19  20
ENDBRANCH  13   4
ENDBRANCH   7  13
BRANCH   9  14
ATOM     14  C   UNL     1      -1.349   3.304  27.035  0.00  0.00    +0.128 C 
BRANCH  14  18
ATOM      2  O   UNL     1      -0.474   1.386  25.823  0.00  0.00    -0.251 OA
ATOM     18  C   UNL     1      -0.285   2.365  26.531  0.00  0.00    +0.308 C 
BRANCH  18   1
ATOM      1  O   UNL     1       0.925   2.793  27.000  0.00  0.00    -0.465 OA
BRANCH   1  21
ATOM     21  C   UNL     1       1.206   2.469  28.365  0.00  0.00    +0.229 C 
ATOM     24  C   UNL     1       2.571   3.013  28.730  0.00  0.00    +0.048 C 
ENDBRANCH   1  21
ENDBRANCH  18   1
ENDBRANCH  14  18
ENDBRANCH   9  14
TORSDOF 9
ENDMDL
MODEL 4
REMARK VINA RESULT:      -0.8      1.205      3.076
REMARK  Name = 38029812
REMARK  13 active torsions:
REMARK  status: ('A' for Active; 'I' for Inactive)
REMARK    1  A    between atoms: O_1  and  C_18
REMARK    2  A    between atoms: O_1  and  C_21
REMARK    3  A    between atoms: N_4  and  C_13
REMARK    4  A    between atoms: C_6  and  C_10
REMARK    5  A    between atoms: C_7  and  C_13
REMARK    6  A    between atoms: C_9  and  C_14
REMARK    7  A    between atoms: C_10  and  C_15
REMARK    8  A    between atoms: C_10  and  C_16
REMARK    9  A    between atoms: C_11  and  C_17
REMARK   10  A    between atoms: C_14  and  C_18
REMARK   11  A    between atoms: C_19  and  C_20
REMARK   12  A    between atoms: C_21  and  C_24
REMARK   13  A    between atoms: C_27  and  C_28
REMARK                            x       y       z     vdW  Elec       q    Type
REMARK                         _______ _______ _______ _____ _____    ______ ____
ROOT
ATOM      6  C   UNL     1      -1.691   1.627  24.598  0.00  0.00    +0.000 C 
ATOM      7  C   UNL     1      -1.237   0.330  23.882  0.00  0.00    +0.032 C 
ATOM      8  C   UNL     1      -2.651   1.296  25.750  0.00  0.00    +0.012 C 
ATOM      9  C   UNL     1      -3.904   0.542  25.266  0.00  0.00    +0.025 C 
ATOM     11  C   UNL     1      -3.550  -0.597  24.332  0.00  0.00    -0.073 C 
ATOM     12  C   UNL     1      -2.348  -0.683  23.733  0.00  0.00    -0.022 C 
ATOM     17  C   UNL     1      -4.593  -1.662  24.136  0.00  0.00    +0.039 C 
ENDROOT
BRANCH   6  10
ATOM     10  C   UNL     1      -0.500   2.429  25.130  0.00  0.00    -0.013 C 
ATOM     15  C   UNL     1      -0.424   2.325  26.650  0.00  0.00    +0.007 C 
ATOM     16  C   UNL     1      -0.601   3.887  24.693  0.00  0.00    +0.007 C 
ENDBRANCH   6  10
BRANCH   7  13
ATOM     13  C   UNL     1      -0.638   0.638  22.505  0.00  0.00    +0.112 C 
BRANCH  13   4
ATOM      3  O   UNL     1       0.915  -1.119  24.162  0.00  0.00    -0.270 OA
ATOM      4  N   UNL     1       0.787   0.534  22.538  0.00  0.00    -0.311 N 
ATOM     19  C   UNL     1       1.464  -0.350  23.377  0.00  0.00    +0.244 C 
ATOM     29  H   UNL     1       1.308   1.146  21.920  0.00  0.00    +0.149 HD
BRANCH  19  20
ATOM     20  C   UNL     1       2.948  -0.319  23.310  0.00  0.00    +0.037 A 
ATOM     22  C   UNL     1       3.599   0.793  22.775  0.00  0.00    +0.014 A 
ATOM     23  C   UNL     1       3.690  -1.402  23.784  0.00  0.00    +0.014 A 
ATOM     25  C   UNL     1       4.992   0.821  22.712  0.00  0.00    +0.019 A 
ATOM     26  C   UNL     1       5.082  -1.372  23.721  0.00  0.00    +0.019 A 
ATOM     27  C   UNL     1       5.734  -0.261  23.185  0.00  0.00    +0.052 A 
BRANCH  27  28
ATOM      5  N   UNL     1       8.320  -0.208  23.070  0.00  0.00    -0.191 NA
ATOM     28  C   UNL     1       7.161  -0.232  23.122  0.00  0.00    +0.099 C 
ENDBRANCH  27  28
ENDBRANCH  19  20
ENDBRANCH  13   4
ENDBRANCH   7  13
BRANCH   9  14
ATOM     14  C   UNL     1      -4.905   1.499  24.608  0.00  0.00    +0.128 C 
BRANCH  14  18
ATOM      2  O   UNL     1      -6.358   1.714  26.546  0.00  0.00    -0.251 OA
ATOM     18  C   UNL     1      -5.727   2.232  25.635  0.00  0.00    +0.308 C 
BRANCH  18   1
ATOM      1  O   UNL     1      -5.648   3.571  25.375  0.00  0.00    -0.465 OA
BRANCH   1  21
ATOM     21  C   UNL     1      -4.340   4.062  25.068  0.00  0.00    +0.229 C 
ATOM     24  C   UNL     1      -3.626   4.403  26.359  0.00  0.00    +0.048 C 
ENDBRANCH   1  21
ENDBRANCH  18   1
ENDBRANCH  14  18
ENDBRANCH   9  14
TORSDOF 9
ENDMDL
MODEL 5
REMARK VINA RESULT:      -0.8      1.128      2.463
REMARK  Name = 38029812
REMARK  13 active torsions:
REMARK  status: ('A' for Active; 'I' for Inactive)
REMARK    1  A    between atoms: O_1  and  C_18
REMARK    2  A    between atoms: O_1  and  C_21
REMARK    3  A    between atoms: N_4  and  C_13
REMARK    4  A    between atoms: C_6  and  C_10
REMARK    5  A    between atoms: C_7  and  C_13
REMARK    6  A    between atoms: C_9  and  C_14
REMARK    7  A    between atoms: C_10  and  C_15
REMARK    8  A    between atoms: C_10  and  C_16
REMARK    9  A    between atoms: C_11  and  C_17
REMARK   10  A    between atoms: C_14  and  C_18
REMARK   11  A    between atoms: C_19  and  C_20
REMARK   12  A    between atoms: C_21  and  C_24
REMARK   13  A    between atoms: C_27  and  C_28
REMARK                            x       y       z     vdW  Elec       q    Type
REMARK                         _______ _______ _______ _____ _____    ______ ____
ROOT
ATOM      6  C   UNL     1      -2.738   0.038  25.098  0.00  0.00    +0.000 C 
ATOM      7  C   UNL     1      -1.679   0.949  24.427  0.00  0.00    +0.032 C 
ATOM      8  C   UNL     1      -3.962  -0.125  24.186  0.00  0.00    +0.012 C 
ATOM      9  C   UNL     1      -4.623   1.226  23.851  0.00  0.00    +0.025 C 
ATOM     11  C   UNL     1      -3.601   2.264  23.434  0.00  0.00    -0.073 C 
ATOM     12  C   UNL     1      -2.289   2.117  23.688  0.00  0.00    -0.022 C 
ATOM     17  C   UNL     1      -4.118   3.457  22.678  0.00  0.00    +0.039 C 
ENDROOT
BRANCH   6  10
ATOM     10  C   UNL     1      -2.163  -1.339  25.447  0.00  0.00    -0.013 C 
ATOM     15  C   UNL     1      -1.326  -1.875  24.289  0.00  0.00    +0.007 C 
ATOM     16  C   UNL     1      -3.285  -2.311  25.797  0.00  0.00    +0.007 C 
ENDBRANCH   6  10
BRANCH   7  13
ATOM     13  C   UNL     1      -0.663   1.466  25.451  0.00  0.00    +0.112 C 
BRANCH  13   4
ATOM      3  O   UNL     1       0.168   0.548  22.861  0.00  0.00    -0.270 OA
ATOM      4  N   UNL     1       0.671   1.153  25.044  0.00  0.00    -0.311 N 
ATOM     19  C   UNL     1       0.988   0.711  23.760  0.00  0.00    +0.244 C 
ATOM     29  H   UNL     1       1.401   1.257  25.740  0.00  0.00    +0.149 HD
BRANCH  19  20
ATOM     20  C   UNL     1       2.419   0.403  23.503  0.00  0.00    +0.037 A 
ATOM     22  C   UNL     1       2.921  -0.867  23.786  0.00  0.00    +0.014 A 
ATOM     23  C   UNL     1       3.260   1.384  22.977  0.00  0.00    +0.014 A 
ATOM     25  C   UNL     1       4.263  -1.156  23.545  0.00  0.00    +0.019 A 
ATOM     26  C   UNL     1       4.602   1.095  22.735  0.00  0.00    +0.019 A 
ATOM     27  C   UNL     1       5.105  -0.175  23.019  0.00  0.00    +0.052 A 
BRANCH  27  28
ATOM      5  N   UNL     1       7.597  -0.711  22.570  0.00  0.00    -0.191 NA
ATOM     28  C   UNL     1       6.480  -0.471  22.771  0.00  0.00    +0.099 C 
ENDBRANCH  27  28
ENDBRANCH  19  20
ENDBRANCH  13   4
ENDBRANCH   7  13
BRANCH   9  14
ATOM     14  C   UNL     1      -5.471   1.732  25.024  0.00  0.00    +0.128 C 
BRANCH  14  18
ATOM      2  O   UNL     1      -5.753   4.132  25.291  0.00  0.00    -0.251 OA
ATOM     18  C   UNL     1      -5.074   3.125  25.434  0.00  0.00    +0.308 C 
BRANCH  18   1
ATOM      1  O   UNL     1      -3.827   3.072  25.992  0.00  0.00    -0.465 OA
BRANCH   1  21
ATOM     21  C   UNL     1      -3.301   4.323  26.442  0.00  0.00    +0.229 C 
ATOM     24  C   UNL     1      -2.024   4.623  25.685  0.00  0.00    +0.048 C 
ENDBRANCH   1  21
ENDBRANCH  18   1
ENDBRANCH  14  18
ENDBRANCH   9  14
TORSDOF 9
ENDMDL
MODEL 6
REMARK VINA RESULT:       0.7      1.205      2.199
REMARK  Name = 38029812
REMARK  13 active torsions:
REMARK  status: ('A' for Active; 'I' for Inactive)
REMARK    1  A    between atoms: O_1  and  C_18
REMARK    2  A    between atoms: O_1  and  C_21
REMARK    3  A    between atoms: N_4  and  C_13
REMARK    4  A    between atoms: C_6  and  C_10
REMARK    5  A    between atoms: C_7  and  C_13
REMARK    6  A    between atoms: C_9  and  C_14
REMARK    7  A    between atoms: C_10  and  C_15
REMARK    8  A    between atoms: C_10  and  C_16
REMARK    9  A    between atoms: C_11  and  C_17
REMARK   10  A    between atoms: C_14  and  C_18
REMARK   11  A    between atoms: C_19  and  C_20
REMARK   12  A    between atoms: C_21  and  C_24
REMARK   13  A    between atoms: C_27  and  C_28
REMARK                            x       y       z     vdW  Elec       q    Type
REMARK                         _______ _______ _______ _____ _____    ______ ____
ROOT
ATOM      6  C   UNL     1      -2.809   2.137  23.806  0.00  0.00    +0.000 C 
ATOM      7  C   UNL     1      -1.536   2.235  24.683  0.00  0.00    +0.032 C 
ATOM      8  C   UNL     1      -3.546   3.484  23.778  0.00  0.00    +0.012 C 
ATOM      9  C   UNL     1      -3.959   3.952  25.187  0.00  0.00    +0.025 C 
ATOM     11  C   UNL     1      -2.820   3.824  26.178  0.00  0.00    -0.073 C 
ATOM     12  C   UNL     1      -1.739   3.063  25.930  0.00  0.00    -0.022 C 
ATOM     17  C   UNL     1      -2.931   4.627  27.444  0.00  0.00    +0.039 C 
ENDROOT
BRANCH   6  10
ATOM     10  C   UNL     1      -2.482   1.694  22.377  0.00  0.00    -0.013 C 
ATOM     15  C   UNL     1      -3.052   2.687  21.369  0.00  0.00    +0.007 C 
ATOM     16  C   UNL     1      -3.021   0.291  22.117  0.00  0.00    +0.007 C 
ENDBRANCH   6  10
BRANCH   7  13
ATOM     13  C   UNL     1      -1.022   0.844  25.072  0.00  0.00    +0.112 C 
BRANCH  13   4
ATOM      3  O   UNL     1       0.106  -0.542  22.823  0.00  0.00    -0.270 OA
ATOM      4  N   UNL     1       0.367   0.711  24.760  0.00  0.00    -0.311 N 
ATOM     19  C   UNL     1       0.830   0.017  23.643  0.00  0.00    +0.244 C 
ATOM     29  H   UNL     1       1.025   1.141  25.399  0.00  0.00    +0.149 HD
BRANCH  19  20
ATOM     20  C   UNL     1       2.305  -0.053  23.473  0.00  0.00    +0.037 A 
ATOM     22  C   UNL     1       2.993  -1.214  23.824  0.00  0.00    +0.014 A 
ATOM     23  C   UNL     1       3.000   1.045  22.964  0.00  0.00    +0.014 A 
ATOM     25  C   UNL     1       4.377  -1.279  23.665  0.00  0.00    +0.019 A 
ATOM     26  C   UNL     1       4.384   0.979  22.805  0.00  0.00    +0.019 A 
ATOM     27  C   UNL     1       5.073  -0.183  23.156  0.00  0.00    +0.052 A 
BRANCH  27  28
ATOM      5  N   UNL     1       7.642  -0.302  22.859  0.00  0.00    -0.191 NA
ATOM     28  C   UNL     1       6.491  -0.249  22.992  0.00  0.00    +0.099 C 
ENDBRANCH  27  28
ENDBRANCH  19  20
ENDBRANCH  13   4
ENDBRANCH   7  13
BRANCH   9  14
ATOM     14  C   UNL     1      -5.200   3.198  25.677  0.00  0.00    +0.128 C 
BRANCH  14  18
ATOM      2  O   UNL     1      -5.981   1.652  23.971  0.00  0.00    -0.251 OA
ATOM     18  C   UNL     1      -5.344   1.864  24.994  0.00  0.00    +0.308 C 
BRANCH  18   1
ATOM      1  O   UNL     1      -4.644   0.935  25.710  0.00  0.00    -0.465 OA
BRANCH   1  21
ATOM     21  C   UNL     1      -4.490  -0.340  25.079  0.00  0.00    +0.229 C 
ATOM     24  C   UNL     1      -3.517  -1.175  25.886  0.00  0.00    +0.048 C 
ENDBRANCH   1  21
ENDBRANCH  18   1
ENDBRANCH  14  18
ENDBRANCH   9  14
TORSDOF 9
ENDMDL
MODEL 7
REMARK VINA RESULT:       0.9      2.184      4.341
REMARK  Name = 38029812
REMARK  13 active torsions:
REMARK  status: ('A' for Active; 'I' for Inactive)
REMARK    1  A    between atoms: O_1  and  C_18
REMARK    2  A    between atoms: O_1  and  C_21
REMARK    3  A    between atoms: N_4  and  C_13
REMARK    4  A    between atoms: C_6  and  C_10
REMARK    5  A    between atoms: C_7  and  C_13
REMARK    6  A    between atoms: C_9  and  C_14
REMARK    7  A    between atoms: C_10  and  C_15
REMARK    8  A    between atoms: C_10  and  C_16
REMARK    9  A    between atoms: C_11  and  C_17
REMARK   10  A    between atoms: C_14  and  C_18
REMARK   11  A    between atoms: C_19  and  C_20
REMARK   12  A    between atoms: C_21  and  C_24
REMARK   13  A    between atoms: C_27  and  C_28
REMARK                            x       y       z     vdW  Elec       q    Type
REMARK                         _______ _______ _______ _____ _____    ______ ____
ROOT
ATOM      6  C   UNL     1      -3.550   2.306  23.751  0.00  0.00    +0.000 C 
ATOM      7  C   UNL     1      -3.873   3.531  24.643  0.00  0.00    +0.032 C 
ATOM      8  C   UNL     1      -4.806   1.447  23.547  0.00  0.00    +0.012 C 
ATOM      9  C   UNL     1      -5.389   0.939  24.880  0.00  0.00    +0.025 C 
ATOM     11  C   UNL     1      -5.487   2.047  25.909  0.00  0.00    -0.073 C 
ATOM     12  C   UNL     1      -4.813   3.204  25.779  0.00  0.00    -0.022 C 
ATOM     17  C   UNL     1      -6.415   1.813  27.068  0.00  0.00    +0.039 C 
ENDROOT
BRANCH   6  10
ATOM     10  C   UNL     1      -2.982   2.726  22.392  0.00  0.00    -0.013 C 
ATOM     15  C   UNL     1      -4.050   3.437  21.566  0.00  0.00    +0.007 C 
ATOM     16  C   UNL     1      -2.439   1.514  21.644  0.00  0.00    +0.007 C 
ENDBRANCH   6  10
BRANCH   7  13
ATOM     13  C   UNL     1      -2.592   4.159  25.205  0.00  0.00    +0.112 C 
BRANCH  13   4
ATOM      3  O   UNL     1      -1.654   1.497  25.731  0.00  0.00    -0.270 OA
ATOM      4  N   UNL     1      -1.434   3.536  24.645  0.00  0.00    -0.311 N 
ATOM     19  C   UNL     1      -1.048   2.233  24.956  0.00  0.00    +0.244 C 
ATOM     29  H   UNL     1      -0.879   4.089  24.001  0.00  0.00    +0.149 HD
BRANCH  19  20
ATOM     20  C   UNL     1       0.196   1.740  24.310  0.00  0.00    +0.037 A 
ATOM     22  C   UNL     1       0.292   0.408  23.907  0.00  0.00    +0.014 A 
ATOM     23  C   UNL     1       1.268   2.610  24.107  0.00  0.00    +0.014 A 
ATOM     25  C   UNL     1       1.460  -0.054  23.302  0.00  0.00    +0.019 A 
ATOM     26  C   UNL     1       2.435   2.147  23.501  0.00  0.00    +0.019 A 
ATOM     27  C   UNL     1       2.532   0.814  23.098  0.00  0.00    +0.052 A 
BRANCH  27  28
ATOM      5  N   UNL     1       4.700  -0.043  21.972  0.00  0.00    -0.191 NA
ATOM     28  C   UNL     1       3.728   0.341  22.476  0.00  0.00    +0.099 C 
ENDBRANCH  27  28
ENDBRANCH  19  20
ENDBRANCH  13   4
ENDBRANCH   7  13
BRANCH   9  14
ATOM     14  C   UNL     1      -4.578  -0.243  25.423  0.00  0.00    +0.128 C 
BRANCH  14  18
ATOM      2  O   UNL     1      -4.888  -1.844  23.620  0.00  0.00    -0.251 OA
ATOM     18  C   UNL     1      -4.144  -1.171  24.319  0.00  0.00    +0.308 C 
BRANCH  18   1
ATOM      1  O   UNL     1      -2.781  -1.132  24.233  0.00  0.00    -0.465 OA
BRANCH   1  21
ATOM     21  C   UNL     1      -2.112  -2.368  24.497  0.00  0.00    +0.229 C 
ATOM     24  C   UNL     1      -0.910  -2.101  25.379  0.00  0.00    +0.048 C 
ENDBRANCH   1  21
ENDBRANCH  18   1
ENDBRANCH  14  18
ENDBRANCH   9  14
TORSDOF 9
ENDMDL
MODEL 8
REMARK VINA RESULT:       1.3      1.825      3.750
REMARK  Name = 38029812
REMARK  13 active torsions:
REMARK  status: ('A' for Active; 'I' for Inactive)
REMARK    1  A    between atoms: O_1  and  C_18
REMARK    2  A    between atoms: O_1  and  C_21
REMARK    3  A    between atoms: N_4  and  C_13
REMARK    4  A    between atoms: C_6  and  C_10
REMARK    5  A    between atoms: C_7  and  C_13
REMARK    6  A    between atoms: C_9  and  C_14
REMARK    7  A    between atoms: C_10  and  C_15
REMARK    8  A    between atoms: C_10  and  C_16
REMARK    9  A    between atoms: C_11  and  C_17
REMARK   10  A    between atoms: C_14  and  C_18
REMARK   11  A    between atoms: C_19  and  C_20
REMARK   12  A    between atoms: C_21  and  C_24
REMARK   13  A    between atoms: C_27  and  C_28
REMARK                            x       y       z     vdW  Elec       q    Type
REMARK                         _______ _______ _______ _____ _____    ______ ____
ROOT
ATOM      6  C   UNL     1      -2.830   2.387  24.832  0.00  0.00    +0.000 C 
ATOM      7  C   UNL     1      -1.369   2.511  25.332  0.00  0.00    +0.032 C 
ATOM      8  C   UNL     1      -3.557   1.257  25.575  0.00  0.00    +0.012 C 
ATOM      9  C   UNL     1      -2.861  -0.105  25.389  0.00  0.00    +0.025 C 
ATOM     11  C   UNL     1      -1.365  -0.006  25.605  0.00  0.00    -0.073 C 
ATOM     12  C   UNL     1      -0.717   1.173  25.590  0.00  0.00    -0.022 C 
ATOM     17  C   UNL     1      -0.635  -1.290  25.884  0.00  0.00    +0.039 C 
ENDROOT
BRANCH   6  10
ATOM     10  C   UNL     1      -3.601   3.700  25.001  0.00  0.00    -0.013 C 
ATOM     15  C   UNL     1      -3.081   4.471  26.210  0.00  0.00    +0.007 C 
ATOM     16  C   UNL     1      -5.095   3.426  25.138  0.00  0.00    +0.007 C 
ENDBRANCH   6  10
BRANCH   7  13
ATOM     13  C   UNL     1      -0.513   3.315  24.347  0.00  0.00    +0.112 C 
BRANCH  13   4
ATOM      3  O   UNL     1      -0.044   0.932  22.815  0.00  0.00    -0.270 OA
ATOM      4  N   UNL     1       0.747   2.674  24.129  0.00  0.00    -0.311 N 
ATOM     19  C   UNL     1       0.885   1.514  23.369  0.00  0.00    +0.244 C 
ATOM     29  H   UNL     1       1.559   3.096  24.564  0.00  0.00    +0.149 HD
BRANCH  19  20
ATOM     20  C   UNL     1       2.258   0.956  23.259  0.00  0.00    +0.037 A 
ATOM     22  C   UNL     1       3.329   1.795  22.951  0.00  0.00    +0.014 A 
ATOM     23  C   UNL     1       2.475  -0.407  23.464  0.00  0.00    +0.014 A 
ATOM     25  C   UNL     1       4.617   1.270  22.847  0.00  0.00    +0.019 A 
ATOM     26  C   UNL     1       3.763  -0.931  23.361  0.00  0.00    +0.019 A 
ATOM     27  C   UNL     1       4.835  -0.092  23.052  0.00  0.00    +0.052 A 
BRANCH  27  28
ATOM      5  N   UNL     1       7.226  -1.066  22.862  0.00  0.00    -0.191 NA
ATOM     28  C   UNL     1       6.154  -0.629  22.947  0.00  0.00    +0.099 C 
ENDBRANCH  27  28
ENDBRANCH  19  20
ENDBRANCH  13   4
ENDBRANCH   7  13
BRANCH   9  14
ATOM     14  C   UNL     1      -3.178  -0.704  24.014  0.00  0.00    +0.128 C 
BRANCH  14  18
ATOM      2  O   UNL     1      -5.604  -0.650  24.171  0.00  0.00    -0.251 OA
ATOM     18  C   UNL     1      -4.572  -1.272  23.965  0.00  0.00    +0.308 C 
BRANCH  18   1
ATOM      1  O   UNL     1      -4.485  -2.600  23.653  0.00  0.00    -0.465 OA
BRANCH   1  21
ATOM     21  C   UNL     1      -3.269  -3.245  24.043  0.00  0.00    +0.229 C 
ATOM     24  C   UNL     1      -3.264  -3.421  25.547  0.00  0.00    +0.048 C 
ENDBRANCH   1  21
ENDBRANCH  18   1
ENDBRANCH  14  18
ENDBRANCH   9  14
TORSDOF 9
ENDMDL
MODEL 9
REMARK VINA RESULT:       2.1      3.749      5.662
REMARK  Name = 38029812
REMARK  13 active torsions:
REMARK  status: ('A' for Active; 'I' for Inactive)
REMARK    1  A    between atoms: O_1  and  C_18
REMARK    2  A    between atoms: O_1  and  C_21
REMARK    3  A    between atoms: N_4  and  C_13
REMARK    4  A    between atoms: C_6  and  C_10
REMARK    5  A    between atoms: C_7  and  C_13
REMARK    6  A    between atoms: C_9  and  C_14
REMARK    7  A    between atoms: C_10  and  C_15
REMARK    8  A    between atoms: C_10  and  C_16
REMARK    9  A    between atoms: C_11  and  C_17
REMARK   10  A    between atoms: C_14  and  C_18
REMARK   11  A    between atoms: C_19  and  C_20
REMARK   12  A    between atoms: C_21  and  C_24
REMARK   13  A    between atoms: C_27  and  C_28
REMARK                            x       y       z     vdW  Elec       q    Type
REMARK                         _______ _______ _______ _____ _____    ______ ____
ROOT
ATOM      6  C   UNL     1      -3.250   1.976  23.503  0.00  0.00    +0.000 C 
ATOM      7  C   UNL     1      -4.132   3.163  23.967  0.00  0.00    +0.032 C 
ATOM      8  C   UNL     1      -4.079   0.685  23.441  0.00  0.00    +0.012 C 
ATOM      9  C   UNL     1      -4.702   0.327  24.804  0.00  0.00    +0.025 C 
ATOM     11  C   UNL     1      -5.365   1.526  25.452  0.00  0.00    -0.073 C 
ATOM     12  C   UNL     1      -5.108   2.785  25.055  0.00  0.00    -0.022 C 
ATOM     17  C   UNL     1      -6.365   1.242  26.538  0.00  0.00    +0.039 C 
ENDROOT
BRANCH   6  10
ATOM     10  C   UNL     1      -2.606   2.245  22.140  0.00  0.00    -0.013 C 
ATOM     15  C   UNL     1      -3.527   3.101  21.275  0.00  0.00    +0.007 C 
ATOM     16  C   UNL     1      -2.274   0.932  21.439  0.00  0.00    +0.007 C 
ENDBRANCH   6  10
BRANCH   7  13
ATOM     13  C   UNL     1      -3.271   4.341  24.438  0.00  0.00    +0.112 C 
BRANCH  13   4
ATOM      3  O   UNL     1      -0.521   3.545  24.220  0.00  0.00    -0.270 OA
ATOM      4  N   UNL     1      -2.411   3.944  25.508  0.00  0.00    -0.311 N 
ATOM     19  C   UNL     1      -1.081   3.571  25.313  0.00  0.00    +0.244 C 
ATOM     29  H   UNL     1      -2.809   3.934  26.440  0.00  0.00    +0.149 HD
BRANCH  19  20
ATOM     20  C   UNL     1      -0.327   3.159  26.525  0.00  0.00    +0.037 A 
ATOM     22  C   UNL     1       1.061   3.030  26.472  0.00  0.00    +0.014 A 
ATOM     23  C   UNL     1      -1.007   2.901  27.716  0.00  0.00    +0.014 A 
ATOM     25  C   UNL     1       1.769   2.643  27.610  0.00  0.00    +0.019 A 
ATOM     26  C   UNL     1      -0.299   2.514  28.853  0.00  0.00    +0.019 A 
ATOM     27  C   UNL     1       1.090   2.385  28.801  0.00  0.00    +0.052 A 
BRANCH  27  28
ATOM      5  N   UNL     1       2.403   1.667  30.913  0.00  0.00    -0.191 NA
ATOM     28  C   UNL     1       1.814   1.989  29.966  0.00  0.00    +0.099 C 
ENDBRANCH  27  28
ENDBRANCH  19  20
ENDBRANCH  13   4
ENDBRANCH   7  13
BRANCH   9  14
ATOM     14  C   UNL     1      -3.662  -0.297  25.741  0.00  0.00    +0.128 C 
BRANCH  14  18
ATOM      2  O   UNL     1      -3.865  -2.535  24.810  0.00  0.00    -0.251 OA
ATOM     18  C   UNL     1      -3.164  -1.618  25.214  0.00  0.00    +0.308 C 
BRANCH  18   1
ATOM      1  O   UNL     1      -1.799  -1.615  25.264  0.00  0.00    -0.465 OA
BRANCH   1  21
ATOM     21  C   UNL     1      -1.196  -0.349  25.551  0.00  0.00    +0.229 C 
ATOM     24  C   UNL     1      -0.256   0.017  24.422  0.00  0.00    +0.048 C 
ENDBRANCH   1  21
ENDBRANCH  18   1
ENDBRANCH  14  18
ENDBRANCH   9  14
TORSDOF 9
ENDMDL
MODEL 10
REMARK VINA RESULT:       2.2      2.129      3.665
REMARK  Name = 38029812
REMARK  13 active torsions:
REMARK  status: ('A' for Active; 'I' for Inactive)
REMARK    1  A    between atoms: O_1  and  C_18
REMARK    2  A    between atoms: O_1  and  C_21
REMARK    3  A    between atoms: N_4  and  C_13
REMARK    4  A    between atoms: C_6  and  C_10
REMARK    5  A    between atoms: C_7  and  C_13
REMARK    6  A    between atoms: C_9  and  C_14
REMARK    7  A    between atoms: C_10  and  C_15
REMARK    8  A    between atoms: C_10  and  C_16
REMARK    9  A    between atoms: C_11  and  C_17
REMARK   10  A    between atoms: C_14  and  C_18
REMARK   11  A    between atoms: C_19  and  C_20
REMARK   12  A    between atoms: C_21  and  C_24
REMARK   13  A    between atoms: C_27  and  C_28
REMARK                            x       y       z     vdW  Elec       q    Type
REMARK                         _______ _______ _______ _____ _____    ______ ____
ROOT
ATOM      6  C   UNL     1      -4.810   2.145  25.363  0.00  0.00    +0.000 C 
ATOM      7  C   UNL     1      -4.462   2.016  23.859  0.00  0.00    +0.032 C 
ATOM      8  C   UNL     1      -4.946   3.623  25.757  0.00  0.00    +0.012 C 
ATOM      9  C   UNL     1      -3.656   4.420  25.485  0.00  0.00    +0.025 C 
ATOM     11  C   UNL     1      -3.100   4.136  24.104  0.00  0.00    -0.073 C 
ATOM     12  C   UNL     1      -3.483   3.064  23.387  0.00  0.00    -0.022 C 
ATOM     17  C   UNL     1      -2.127   5.137  23.547  0.00  0.00    +0.039 C 
ENDROOT
BRANCH   6  10
ATOM     10  C   UNL     1      -6.098   1.393  25.715  0.00  0.00    -0.013 C 
ATOM     15  C   UNL     1      -7.154   1.611  24.635  0.00  0.00    +0.007 C 
ATOM     16  C   UNL     1      -6.619   1.839  27.077  0.00  0.00    +0.007 C 
ENDBRANCH   6  10
BRANCH   7  13
ATOM     13  C   UNL     1      -3.915   0.621  23.534  0.00  0.00    +0.112 C 
BRANCH  13   4
ATOM      3  O   UNL     1      -1.906  -0.715  25.092  0.00  0.00    -0.270 OA
ATOM      4  N   UNL     1      -2.501   0.668  23.325  0.00  0.00    -0.311 N 
ATOM     19  C   UNL     1      -1.592  -0.014  24.133  0.00  0.00    +0.244 C 
ATOM     29  H   UNL     1      -2.168   1.235  22.553  0.00  0.00    +0.149 HD
BRANCH  19  20
ATOM     20  C   UNL     1      -0.154   0.158  23.799  0.00  0.00    +0.037 A 
ATOM     22  C   UNL     1       0.431   1.422  23.864  0.00  0.00    +0.014 A 
ATOM     23  C   UNL     1       0.610  -0.947  23.422  0.00  0.00    +0.014 A 
ATOM     25  C   UNL     1       1.780   1.582  23.551  0.00  0.00    +0.019 A 
ATOM     26  C   UNL     1       1.959  -0.786  23.109  0.00  0.00    +0.019 A 
ATOM     27  C   UNL     1       2.545   0.479  23.173  0.00  0.00    +0.052 A 
BRANCH  27  28
ATOM      5  N   UNL     1       5.051   0.776  22.593  0.00  0.00    -0.191 NA
ATOM     28  C   UNL     1       3.928   0.643  22.853  0.00  0.00    +0.099 C 
ENDBRANCH  27  28
ENDBRANCH  19  20
ENDBRANCH  13   4
ENDBRANCH   7  13
BRANCH   9  14
ATOM     14  C   UNL     1      -2.603   4.151  26.565  0.00  0.00    +0.128 C 
BRANCH  14  18
ATOM      2  O   UNL     1      -0.502   4.599  25.424  0.00  0.00    -0.251 OA
ATOM     18  C   UNL     1      -1.266   3.809  25.962  0.00  0.00    +0.308 C 
BRANCH  18   1
ATOM      1  O   UNL     1      -1.052   2.468  26.119  0.00  0.00    -0.465 OA
BRANCH   1  21
ATOM     21  C   UNL     1      -0.344   2.092  27.304  0.00  0.00    +0.229 C 
ATOM     24  C   UNL     1       1.045   2.693  27.259  0.00  0.00    +0.048 C 
ENDBRANCH   1  21
ENDBRANCH  18   1
ENDBRANCH  14  18
ENDBRANCH   9  14
TORSDOF 9
ENDMDL
