MODEL 1
REMARK VINA RESULT:       6.3      0.000      0.000
REMARK  Name = 11883406
REMARK  8 active torsions:
REMARK  status: ('A' for Active; 'I' for Inactive)
REMARK    1  A    between atoms: O_6  and  C_16
REMARK    2  A    between atoms: O_6  and  C_20
REMARK    3  A    between atoms: N_10  and  C_15
REMARK    4  A    between atoms: N_11  and  C_21
REMARK    5  A    between atoms: N_12  and  C_22
REMARK    6  A    between atoms: C_29  and  C_33
REMARK    7  A    between atoms: C_30  and  C_34
REMARK    8  A    between atoms: C_34  and  C_35
REMARK                            x       y       z     vdW  Elec       q    Type
REMARK                         _______ _______ _______ _____ _____    ______ ____
ROOT
ATOM      4  O   UNL     1      -3.794   3.692  24.024  0.00  0.00    -0.368 OA
ATOM      5  O   UNL     1      -2.517   5.016  26.478  0.00  0.00    -0.368 OA
ATOM     13  C   UNL     1      -1.997   4.065  25.525  0.00  0.00    +0.173 C 
ATOM     14  C   UNL     1      -3.135   3.130  25.170  0.00  0.00    +0.192 C 
ATOM     15  C   UNL     1      -1.680   4.760  24.221  0.00  0.00    +0.131 C 
ATOM     16  C   UNL     1      -4.006   3.194  26.403  0.00  0.00    +0.235 C 
ATOM     17  C   UNL     1      -3.039   4.817  23.547  0.00  0.00    +0.185 C 
ATOM     18  C   UNL     1      -3.858   4.639  26.823  0.00  0.00    +0.207 C 
ENDROOT
BRANCH  15  10
ATOM      7  O   UNL     1       0.222   2.858  25.207  0.00  0.00    -0.252 OA
ATOM     10  N   UNL     1      -0.737   3.996  23.439  0.00  0.00    -0.292 N 
ATOM     11  N   UNL     1       0.948   2.497  23.005  0.00  0.00    -0.269 N 
ATOM     19  C   UNL     1       0.164   3.083  24.002  0.00  0.00    +0.304 C 
ATOM     36  H   UNL     1      -0.770   4.078  22.427  0.00  0.00    +0.151 HD
ATOM     37  H   UNL     1       0.773   2.798  22.049  0.00  0.00    +0.156 HD
BRANCH  11  21
ATOM     21  C   UNL     1       1.969   1.530  23.160  0.00  0.00    +0.035 A 
ATOM     23  C   UNL     1       1.635   0.197  23.404  0.00  0.00    +0.024 A 
ATOM     24  C   UNL     1       3.309   1.908  23.072  0.00  0.00    +0.024 A 
ATOM     27  C   UNL     1       2.641  -0.757  23.558  0.00  0.00    +0.013 A 
ATOM     28  C   UNL     1       4.314   0.955  23.226  0.00  0.00    +0.013 A 
ATOM     30  C   UNL     1       3.981  -0.378  23.469  0.00  0.00    +0.017 A 
BRANCH  30  34
ATOM      9  O   UNL     1       4.764  -2.560  23.902  0.00  0.00    -0.292 OA
ATOM     34  C   UNL     1       5.030  -1.372  23.630  0.00  0.00    +0.160 C 
ATOM     35  C   UNL     1       6.495  -0.979  23.468  0.00  0.00    +0.091 C 
ENDBRANCH  30  34
ENDBRANCH  11  21
ENDBRANCH  15  10
BRANCH  16   6
ATOM      6  O   UNL     1      -5.349   2.845  26.161  0.00  0.00    -0.442 OA
BRANCH   6  20
ATOM      8  O   UNL     1      -6.672   1.350  25.046  0.00  0.00    -0.226 OA
ATOM     12  N   UNL     1      -4.403   0.929  25.437  0.00  0.00    -0.251 N 
ATOM     20  C   UNL     1      -5.576   1.658  25.496  0.00  0.00    +0.405 C 
ATOM     38  H   UNL     1      -3.588   1.354  25.871  0.00  0.00    +0.158 HD
BRANCH  12  22
ATOM     22  C   UNL     1      -4.195  -0.338  24.848  0.00  0.00    +0.037 A 
ATOM     25  C   UNL     1      -2.914  -0.890  24.812  0.00  0.00    +0.035 A 
ATOM     26  C   UNL     1      -5.271  -1.037  24.299  0.00  0.00    +0.023 A 
ATOM     29  C   UNL     1      -2.709  -2.140  24.229  0.00  0.00    +0.057 A 
ATOM     31  C   UNL     1      -5.065  -2.287  23.716  0.00  0.00    +0.002 A 
ATOM     32  C   UNL     1      -3.784  -2.839  23.681  0.00  0.00    +0.012 A 
BRANCH  29  33
ATOM      1  F   UNL     1      -1.195  -3.715  23.255  0.00  0.00    -0.166 F 
ATOM      2  F   UNL     1      -0.954  -3.296  25.370  0.00  0.00    -0.166 F 
ATOM      3  F   UNL     1      -0.378  -1.804  23.897  0.00  0.00    -0.166 F 
ATOM     33  C   UNL     1      -1.340  -2.729  24.189  0.00  0.00    +0.417 C 
ENDBRANCH  29  33
ENDBRANCH  12  22
ENDBRANCH   6  20
ENDBRANCH  16   6
TORSDOF 7
ENDMDL
MODEL 2
REMARK VINA RESULT:       7.4      2.534      4.738
REMARK  Name = 11883406
REMARK  8 active torsions:
REMARK  status: ('A' for Active; 'I' for Inactive)
REMARK    1  A    between atoms: O_6  and  C_16
REMARK    2  A    between atoms: O_6  and  C_20
REMARK    3  A    between atoms: N_10  and  C_15
REMARK    4  A    between atoms: N_11  and  C_21
REMARK    5  A    between atoms: N_12  and  C_22
REMARK    6  A    between atoms: C_29  and  C_33
REMARK    7  A    between atoms: C_30  and  C_34
REMARK    8  A    between atoms: C_34  and  C_35
REMARK                            x       y       z     vdW  Elec       q    Type
REMARK                         _______ _______ _______ _____ _____    ______ ____
ROOT
ATOM      4  O   UNL     1      -3.606   0.421  25.337  0.00  0.00    -0.368 OA
ATOM      5  O   UNL     1      -4.863  -1.959  23.866  0.00  0.00    -0.368 OA
ATOM     13  C   UNL     1      -3.826  -1.033  23.477  0.00  0.00    +0.173 C 
ATOM     14  C   UNL     1      -4.212   0.320  24.038  0.00  0.00    +0.192 C 
ATOM     15  C   UNL     1      -2.538  -1.368  24.191  0.00  0.00    +0.131 C 
ATOM     16  C   UNL     1      -5.716   0.219  24.130  0.00  0.00    +0.235 C 
ATOM     17  C   UNL     1      -2.737  -0.705  25.543  0.00  0.00    +0.185 C 
ATOM     18  C   UNL     1      -5.916  -1.230  24.514  0.00  0.00    +0.207 C 
ENDROOT
BRANCH  15  10
ATOM      7  O   UNL     1       0.211  -1.585  24.969  0.00  0.00    -0.252 OA
ATOM     10  N   UNL     1      -1.398  -0.816  23.498  0.00  0.00    -0.292 N 
ATOM     11  N   UNL     1       0.807  -0.329  23.078  0.00  0.00    -0.269 N 
ATOM     19  C   UNL     1      -0.080  -0.968  23.948  0.00  0.00    +0.304 C 
ATOM     36  H   UNL     1      -1.552  -0.350  22.609  0.00  0.00    +0.151 HD
ATOM     37  H   UNL     1       0.399   0.141  22.273  0.00  0.00    +0.156 HD
BRANCH  11  21
ATOM     21  C   UNL     1       2.216  -0.252  23.178  0.00  0.00    +0.035 A 
ATOM     23  C   UNL     1       2.880   0.911  22.785  0.00  0.00    +0.024 A 
ATOM     24  C   UNL     1       2.942  -1.337  23.669  0.00  0.00    +0.024 A 
ATOM     27  C   UNL     1       4.269   0.988  22.883  0.00  0.00    +0.013 A 
ATOM     28  C   UNL     1       4.331  -1.261  23.767  0.00  0.00    +0.013 A 
ATOM     30  C   UNL     1       4.995  -0.099  23.374  0.00  0.00    +0.017 A 
BRANCH  30  34
ATOM      9  O   UNL     1       6.998   0.802  24.232  0.00  0.00    -0.292 OA
ATOM     34  C   UNL     1       6.443  -0.019  23.475  0.00  0.00    +0.160 C 
ATOM     35  C   UNL     1       7.325  -0.947  22.647  0.00  0.00    +0.091 C 
ENDBRANCH  30  34
ENDBRANCH  11  21
ENDBRANCH  15  10
BRANCH  16   6
ATOM      6  O   UNL     1      -6.283   1.102  25.071  0.00  0.00    -0.442 OA
BRANCH   6  20
ATOM      8  O   UNL     1      -5.667   2.606  26.678  0.00  0.00    -0.226 OA
ATOM     12  N   UNL     1      -4.398   2.293  24.737  0.00  0.00    -0.251 N 
ATOM     20  C   UNL     1      -5.452   2.067  25.601  0.00  0.00    +0.405 C 
ATOM     38  H   UNL     1      -4.390   1.743  23.882  0.00  0.00    +0.158 HD
BRANCH  12  22
ATOM     22  C   UNL     1      -3.324   3.199  24.895  0.00  0.00    +0.037 A 
ATOM     25  C   UNL     1      -2.083   2.740  25.338  0.00  0.00    +0.035 A 
ATOM     26  C   UNL     1      -3.505   4.553  24.608  0.00  0.00    +0.023 A 
ATOM     29  C   UNL     1      -1.024   3.635  25.495  0.00  0.00    +0.057 A 
ATOM     31  C   UNL     1      -2.446   5.446  24.765  0.00  0.00    +0.002 A 
ATOM     32  C   UNL     1      -1.205   4.987  25.208  0.00  0.00    +0.012 A 
BRANCH  29  33
ATOM      1  F   UNL     1       0.906   2.277  25.106  0.00  0.00    -0.166 F 
ATOM      2  F   UNL     1       0.243   2.478  27.162  0.00  0.00    -0.166 F 
ATOM      3  F   UNL     1       1.198   4.156  26.162  0.00  0.00    -0.166 F 
ATOM     33  C   UNL     1       0.301   3.145  25.971  0.00  0.00    +0.417 C 
ENDBRANCH  29  33
ENDBRANCH  12  22
ENDBRANCH   6  20
ENDBRANCH  16   6
TORSDOF 7
ENDMDL
MODEL 3
REMARK VINA RESULT:       7.5      2.929      5.178
REMARK  Name = 11883406
REMARK  8 active torsions:
REMARK  status: ('A' for Active; 'I' for Inactive)
REMARK    1  A    between atoms: O_6  and  C_16
REMARK    2  A    between atoms: O_6  and  C_20
REMARK    3  A    between atoms: N_10  and  C_15
REMARK    4  A    between atoms: N_11  and  C_21
REMARK    5  A    between atoms: N_12  and  C_22
REMARK    6  A    between atoms: C_29  and  C_33
REMARK    7  A    between atoms: C_30  and  C_34
REMARK    8  A    between atoms: C_34  and  C_35
REMARK                            x       y       z     vdW  Elec       q    Type
REMARK                         _______ _______ _______ _____ _____    ______ ____
ROOT
ATOM      4  O   UNL     1      -2.903  -0.145  25.151  0.00  0.00    -0.368 OA
ATOM      5  O   UNL     1      -2.999  -3.093  24.309  0.00  0.00    -0.368 OA
ATOM     13  C   UNL     1      -2.218  -1.983  23.817  0.00  0.00    +0.173 C 
ATOM     14  C   UNL     1      -3.111  -0.760  23.868  0.00  0.00    +0.192 C 
ATOM     15  C   UNL     1      -1.107  -1.660  24.789  0.00  0.00    +0.131 C 
ATOM     16  C   UNL     1      -4.493  -1.360  23.754  0.00  0.00    +0.235 C 
ATOM     17  C   UNL     1      -1.821  -0.808  25.823  0.00  0.00    +0.185 C 
ATOM     18  C   UNL     1      -4.346  -2.649  24.530  0.00  0.00    +0.207 C 
ENDROOT
BRANCH  15  10
ATOM      7  O   UNL     1       1.699  -2.217  24.938  0.00  0.00    -0.252 OA
ATOM     10  N   UNL     1      -0.046  -0.925  24.144  0.00  0.00    -0.292 N 
ATOM     11  N   UNL     1       2.101  -0.377  23.537  0.00  0.00    -0.269 N 
ATOM     19  C   UNL     1       1.308  -1.265  24.270  0.00  0.00    +0.304 C 
ATOM     36  H   UNL     1      -0.295  -0.164  23.520  0.00  0.00    +0.151 HD
ATOM     37  H   UNL     1       1.616   0.363  23.036  0.00  0.00    +0.156 HD
BRANCH  11  21
ATOM     21  C   UNL     1       3.509  -0.378  23.406  0.00  0.00    +0.035 A 
ATOM     23  C   UNL     1       4.246  -1.493  23.808  0.00  0.00    +0.024 A 
ATOM     24  C   UNL     1       4.162   0.736  22.877  0.00  0.00    +0.024 A 
ATOM     27  C   UNL     1       5.635  -1.493  23.679  0.00  0.00    +0.013 A 
ATOM     28  C   UNL     1       5.550   0.735  22.748  0.00  0.00    +0.013 A 
ATOM     30  C   UNL     1       6.287  -0.379  23.149  0.00  0.00    +0.017 A 
BRANCH  30  34
ATOM      9  O   UNL     1       8.317  -1.164  22.240  0.00  0.00    -0.292 OA
ATOM     34  C   UNL     1       7.735  -0.380  23.015  0.00  0.00    +0.160 C 
ATOM     35  C   UNL     1       8.584   0.589  23.833  0.00  0.00    +0.091 C 
ENDBRANCH  30  34
ENDBRANCH  11  21
ENDBRANCH  15  10
BRANCH  16   6
ATOM      6  O   UNL     1      -5.509  -0.536  24.279  0.00  0.00    -0.442 OA
BRANCH   6  20
ATOM      8  O   UNL     1      -5.284   0.499  26.305  0.00  0.00    -0.226 OA
ATOM     12  N   UNL     1      -4.518   1.489  24.327  0.00  0.00    -0.251 N 
ATOM     20  C   UNL     1      -5.111   0.504  25.093  0.00  0.00    +0.405 C 
ATOM     38  H   UNL     1      -4.465   1.311  23.327  0.00  0.00    +0.158 HD
BRANCH  12  22
ATOM     22  C   UNL     1      -3.974   2.719  24.762  0.00  0.00    +0.037 A 
ATOM     25  C   UNL     1      -2.612   2.978  24.598  0.00  0.00    +0.035 A 
ATOM     26  C   UNL     1      -4.798   3.675  25.358  0.00  0.00    +0.023 A 
ATOM     29  C   UNL     1      -2.075   4.191  25.029  0.00  0.00    +0.057 A 
ATOM     31  C   UNL     1      -4.260   4.887  25.788  0.00  0.00    +0.002 A 
ATOM     32  C   UNL     1      -2.900   5.146  25.623  0.00  0.00    +0.012 A 
BRANCH  29  33
ATOM      1  F   UNL     1      -0.295   5.787  24.980  0.00  0.00    -0.166 F 
ATOM      2  F   UNL     1      -0.135   4.093  23.634  0.00  0.00    -0.166 F 
ATOM      3  F   UNL     1       0.151   3.811  25.771  0.00  0.00    -0.166 F 
ATOM     33  C   UNL     1      -0.621   4.466  24.855  0.00  0.00    +0.417 C 
ENDBRANCH  29  33
ENDBRANCH  12  22
ENDBRANCH   6  20
ENDBRANCH  16   6
TORSDOF 7
ENDMDL
MODEL 4
REMARK VINA RESULT:       7.9      1.281      1.668
REMARK  Name = 11883406
REMARK  8 active torsions:
REMARK  status: ('A' for Active; 'I' for Inactive)
REMARK    1  A    between atoms: O_6  and  C_16
REMARK    2  A    between atoms: O_6  and  C_20
REMARK    3  A    between atoms: N_10  and  C_15
REMARK    4  A    between atoms: N_11  and  C_21
REMARK    5  A    between atoms: N_12  and  C_22
REMARK    6  A    between atoms: C_29  and  C_33
REMARK    7  A    between atoms: C_30  and  C_34
REMARK    8  A    between atoms: C_34  and  C_35
REMARK                            x       y       z     vdW  Elec       q    Type
REMARK                         _______ _______ _______ _____ _____    ______ ____
ROOT
ATOM      4  O   UNL     1      -4.222   2.222  24.419  0.00  0.00    -0.368 OA
ATOM      5  O   UNL     1      -5.150   5.110  24.872  0.00  0.00    -0.368 OA
ATOM     13  C   UNL     1      -3.862   4.482  25.042  0.00  0.00    +0.173 C 
ATOM     14  C   UNL     1      -4.119   3.083  25.565  0.00  0.00    +0.192 C 
ATOM     15  C   UNL     1      -3.217   4.251  23.694  0.00  0.00    +0.131 C 
ATOM     16  C   UNL     1      -5.447   3.237  26.268  0.00  0.00    +0.235 C 
ATOM     17  C   UNL     1      -3.878   2.963  23.237  0.00  0.00    +0.185 C 
ATOM     18  C   UNL     1      -6.164   4.231  25.382  0.00  0.00    +0.207 C 
ENDROOT
BRANCH  15  10
ATOM      7  O   UNL     1      -1.714   1.850  23.264  0.00  0.00    -0.252 OA
ATOM     10  N   UNL     1      -1.788   4.093  23.820  0.00  0.00    -0.292 N 
ATOM     11  N   UNL     1       0.247   3.028  23.788  0.00  0.00    -0.269 N 
ATOM     19  C   UNL     1      -1.128   2.878  23.591  0.00  0.00    +0.304 C 
ATOM     36  H   UNL     1      -1.227   4.915  24.022  0.00  0.00    +0.151 HD
ATOM     37  H   UNL     1       0.572   3.952  24.061  0.00  0.00    +0.156 HD
BRANCH  11  21
ATOM     21  C   UNL     1       1.254   2.043  23.657  0.00  0.00    +0.035 A 
ATOM     23  C   UNL     1       2.525   2.401  23.205  0.00  0.00    +0.024 A 
ATOM     24  C   UNL     1       0.978   0.714  23.978  0.00  0.00    +0.024 A 
ATOM     27  C   UNL     1       3.518   1.431  23.075  0.00  0.00    +0.013 A 
ATOM     28  C   UNL     1       1.971  -0.256  23.848  0.00  0.00    +0.013 A 
ATOM     30  C   UNL     1       3.241   0.101  23.397  0.00  0.00    +0.017 A 
BRANCH  30  34
ATOM      9  O   UNL     1       4.047  -2.112  23.500  0.00  0.00    -0.292 OA
ATOM     34  C   UNL     1       4.276  -0.910  23.261  0.00  0.00    +0.160 C 
ATOM     35  C   UNL     1       5.682  -0.517  22.819  0.00  0.00    +0.091 C 
ENDBRANCH  30  34
ENDBRANCH  11  21
ENDBRANCH  15  10
BRANCH  16   6
ATOM      6  O   UNL     1      -6.160   2.029  26.396  0.00  0.00    -0.442 OA
BRANCH   6  20
ATOM      8  O   UNL     1      -6.557   0.818  24.498  0.00  0.00    -0.226 OA
ATOM     12  N   UNL     1      -4.724   0.368  25.881  0.00  0.00    -0.251 N 
ATOM     20  C   UNL     1      -5.869   1.033  25.487  0.00  0.00    +0.405 C 
ATOM     38  H   UNL     1      -4.287   0.694  26.740  0.00  0.00    +0.158 HD
BRANCH  12  22
ATOM     22  C   UNL     1      -4.082  -0.715  25.238  0.00  0.00    +0.037 A 
ATOM     25  C   UNL     1      -2.736  -0.982  25.496  0.00  0.00    +0.035 A 
ATOM     26  C   UNL     1      -4.792  -1.515  24.342  0.00  0.00    +0.023 A 
ATOM     29  C   UNL     1      -2.102  -2.049  24.859  0.00  0.00    +0.057 A 
ATOM     31  C   UNL     1      -4.157  -2.581  23.707  0.00  0.00    +0.002 A 
ATOM     32  C   UNL     1      -2.813  -2.849  23.965  0.00  0.00    +0.012 A 
BRANCH  29  33
ATOM      1  F   UNL     1      -0.428  -3.616  25.537  0.00  0.00    -0.166 F 
ATOM      2  F   UNL     1      -0.129  -1.546  26.114  0.00  0.00    -0.166 F 
ATOM      3  F   UNL     1       0.127  -2.142  24.038  0.00  0.00    -0.166 F 
ATOM     33  C   UNL     1      -0.665  -2.333  25.134  0.00  0.00    +0.417 C 
ENDBRANCH  29  33
ENDBRANCH  12  22
ENDBRANCH   6  20
ENDBRANCH  16   6
TORSDOF 7
ENDMDL
MODEL 5
REMARK VINA RESULT:       9.7      1.514      2.002
REMARK  Name = 11883406
REMARK  8 active torsions:
REMARK  status: ('A' for Active; 'I' for Inactive)
REMARK    1  A    between atoms: O_6  and  C_16
REMARK    2  A    between atoms: O_6  and  C_20
REMARK    3  A    between atoms: N_10  and  C_15
REMARK    4  A    between atoms: N_11  and  C_21
REMARK    5  A    between atoms: N_12  and  C_22
REMARK    6  A    between atoms: C_29  and  C_33
REMARK    7  A    between atoms: C_30  and  C_34
REMARK    8  A    between atoms: C_34  and  C_35
REMARK                            x       y       z     vdW  Elec       q    Type
REMARK                         _______ _______ _______ _____ _____    ______ ____
ROOT
ATOM      4  O   UNL     1      -4.195   2.257  24.229  0.00  0.00    -0.368 OA
ATOM      5  O   UNL     1      -5.093   5.087  24.996  0.00  0.00    -0.368 OA
ATOM     13  C   UNL     1      -3.806   4.437  25.076  0.00  0.00    +0.173 C 
ATOM     14  C   UNL     1      -4.066   2.993  25.456  0.00  0.00    +0.192 C 
ATOM     15  C   UNL     1      -3.187   4.344  23.701  0.00  0.00    +0.131 C 
ATOM     16  C   UNL     1      -5.380   3.082  26.196  0.00  0.00    +0.235 C 
ATOM     17  C   UNL     1      -3.865   3.114  23.125  0.00  0.00    +0.185 C 
ATOM     18  C   UNL     1      -6.104   4.167  25.431  0.00  0.00    +0.207 C 
ENDROOT
BRANCH  15  10
ATOM      7  O   UNL     1      -1.744   1.893  23.358  0.00  0.00    -0.252 OA
ATOM     10  N   UNL     1      -1.757   4.165  23.784  0.00  0.00    -0.292 N 
ATOM     11  N   UNL     1       0.256   3.060  23.740  0.00  0.00    -0.269 N 
ATOM     19  C   UNL     1      -1.128   2.926  23.603  0.00  0.00    +0.304 C 
ATOM     36  H   UNL     1      -1.174   4.986  23.917  0.00  0.00    +0.151 HD
ATOM     37  H   UNL     1       0.607   3.992  23.946  0.00  0.00    +0.156 HD
BRANCH  11  21
ATOM     21  C   UNL     1       1.240   2.050  23.631  0.00  0.00    +0.035 A 
ATOM     23  C   UNL     1       0.920   0.727  23.940  0.00  0.00    +0.024 A 
ATOM     24  C   UNL     1       2.532   2.376  23.217  0.00  0.00    +0.024 A 
ATOM     27  C   UNL     1       1.890  -0.269  23.833  0.00  0.00    +0.013 A 
ATOM     28  C   UNL     1       3.502   1.380  23.110  0.00  0.00    +0.013 A 
ATOM     30  C   UNL     1       3.182   0.058  23.418  0.00  0.00    +0.017 A 
BRANCH  30  34
ATOM      9  O   UNL     1       3.918  -2.181  23.502  0.00  0.00    -0.292 OA
ATOM     34  C   UNL     1       4.194  -0.981  23.307  0.00  0.00    +0.160 C 
ATOM     35  C   UNL     1       5.631  -0.619  22.946  0.00  0.00    +0.091 C 
ENDBRANCH  30  34
ENDBRANCH  11  21
ENDBRANCH  15  10
BRANCH  16   6
ATOM      6  O   UNL     1      -6.100   1.871  26.210  0.00  0.00    -0.442 OA
BRANCH   6  20
ATOM      8  O   UNL     1      -6.148   0.278  24.570  0.00  0.00    -0.226 OA
ATOM     12  N   UNL     1      -4.316   0.505  26.010  0.00  0.00    -0.251 N 
ATOM     20  C   UNL     1      -5.563   0.817  25.501  0.00  0.00    +0.405 C 
ATOM     38  H   UNL     1      -3.996   1.070  26.792  0.00  0.00    +0.158 HD
BRANCH  12  22
ATOM     22  C   UNL     1      -3.428  -0.506  25.577  0.00  0.00    +0.037 A 
ATOM     25  C   UNL     1      -3.902  -1.569  24.807  0.00  0.00    +0.035 A 
ATOM     26  C   UNL     1      -2.077  -0.442  25.921  0.00  0.00    +0.023 A 
ATOM     29  C   UNL     1      -3.026  -2.567  24.381  0.00  0.00    +0.057 A 
ATOM     31  C   UNL     1      -1.202  -1.440  25.495  0.00  0.00    +0.002 A 
ATOM     32  C   UNL     1      -1.675  -2.502  24.725  0.00  0.00    +0.012 A 
BRANCH  29  33
ATOM      1  F   UNL     1      -4.418  -3.325  22.591  0.00  0.00    -0.166 F 
ATOM      2  F   UNL     1      -4.187  -4.656  24.289  0.00  0.00    -0.166 F 
ATOM      3  F   UNL     1      -2.534  -4.365  22.905  0.00  0.00    -0.166 F 
ATOM     33  C   UNL     1      -3.533  -3.703  23.560  0.00  0.00    +0.417 C 
ENDBRANCH  29  33
ENDBRANCH  12  22
ENDBRANCH   6  20
ENDBRANCH  16   6
TORSDOF 7
ENDMDL
