MODEL 1
REMARK VINA RESULT:       2.1      0.000      0.000
REMARK  Name = 51136608
REMARK  13 active torsions:
REMARK  status: ('A' for Active; 'I' for Inactive)
REMARK    1  A    between atoms: O_2  and  C_18
REMARK    2  A    between atoms: O_4  and  C_28
REMARK    3  A    between atoms: O_4  and  C_30
REMARK    4  A    between atoms: O_5  and  C_29
REMARK    5  A    between atoms: O_5  and  C_31
REMARK    6  A    between atoms: C_8  and  C_13
REMARK    7  A    between atoms: C_9  and  C_14
REMARK    8  A    between atoms: C_13  and  C_16
REMARK    9  A    between atoms: C_14  and  C_18
REMARK   10  A    between atoms: C_15  and  C_17
REMARK   11  A    between atoms: C_17  and  C_20
REMARK   12  A    between atoms: C_17  and  C_21
REMARK   13  A    between atoms: C_17  and  C_22
REMARK                            x       y       z     vdW  Elec       q    Type
REMARK                         _______ _______ _______ _____ _____    ______ ____
ROOT
ATOM      1  O   UNL     1      -4.370  -0.858  23.794  0.00  0.00    -0.275 OA
ATOM      6  N   UNL     1      -2.056  -1.027  23.638  0.00  0.00    -0.301 N 
ATOM      8  C   UNL     1      -0.899   1.160  23.765  0.00  0.00    +0.016 C 
ATOM      9  C   UNL     1       0.459   0.438  23.951  0.00  0.00    +0.006 C 
ATOM     10  C   UNL     1      -1.909   0.287  23.005  0.00  0.00    +0.112 C 
ATOM     11  C   UNL     1       0.221  -0.943  24.586  0.00  0.00    +0.023 C 
ATOM     12  C   UNL     1      -0.806  -1.774  23.819  0.00  0.00    +0.108 C 
ATOM     15  C   UNL     1      -3.330  -1.502  23.954  0.00  0.00    +0.221 C 
ENDROOT
BRANCH  15  17
ATOM     17  C   UNL     1      -3.409  -2.894  24.529  0.00  0.00    +0.039 C 
ATOM     20  C   UNL     1      -4.746  -3.503  24.105  0.00  0.00    +0.020 C 
ATOM     21  C   UNL     1      -3.323  -2.803  26.055  0.00  0.00    +0.020 C 
ATOM     22  C   UNL     1      -2.246  -3.722  23.981  0.00  0.00    +0.020 C 
ENDBRANCH  15  17
BRANCH   8  13
ATOM     13  C   UNL     1      -0.764   2.528  23.099  0.00  0.00    +0.061 C 
BRANCH  13  16
ATOM      7  N   UNL     1      -0.635   4.661  24.196  0.00  0.00    -0.287 NA
ATOM     16  C   UNL     1      -1.339   3.596  23.998  0.00  0.00    +0.044 C 
ATOM     19  C   UNL     1      -2.672   3.372  24.613  0.00  0.00    +0.003 A 
ATOM     23  C   UNL     1      -3.002   4.169  25.716  0.00  0.00    -0.033 A 
ATOM     24  C   UNL     1      -1.997   5.170  26.207  0.00  0.00    +0.059 C 
ATOM     25  C   UNL     1      -1.219   5.724  25.020  0.00  0.00    +0.146 C 
ATOM     26  C   UNL     1      -3.568   2.410  24.142  0.00  0.00    +0.059 A 
ATOM     27  C   UNL     1      -4.224   3.980  26.365  0.00  0.00    +0.053 A 
ATOM     28  C   UNL     1      -4.794   2.238  24.787  0.00  0.00    +0.162 A 
ATOM     29  C   UNL     1      -5.120   3.018  25.897  0.00  0.00    +0.162 A 
BRANCH  28   4
ATOM      4  O   UNL     1      -5.667   1.300  24.324  0.00  0.00    -0.491 OA
ATOM     30  C   UNL     1      -7.026   1.702  24.168  0.00  0.00    +0.277 C 
ENDBRANCH  28   4
BRANCH  29   5
ATOM      5  O   UNL     1      -6.313   2.849  26.534  0.00  0.00    -0.491 OA
ATOM     31  C   UNL     1      -6.478   1.651  27.291  0.00  0.00    +0.277 C 
ENDBRANCH  29   5
ENDBRANCH  13  16
ENDBRANCH   8  13
BRANCH   9  14
ATOM     14  C   UNL     1       1.281   0.314  22.662  0.00  0.00    +0.124 C 
BRANCH  14  18
ATOM      3  O   UNL     1       3.459  -0.704  23.064  0.00  0.00    -0.251 OA
ATOM     18  C   UNL     1       2.757   0.289  22.948  0.00  0.00    +0.305 C 
BRANCH  18   2
ATOM      2  O   UNL     1       3.223   1.560  23.062  0.00  0.00    -0.481 OA
ATOM     32  H   UNL     1       4.192   1.608  22.922  0.00  0.00    +0.295 HD
ENDBRANCH  18   2
ENDBRANCH  14  18
ENDBRANCH   9  14
TORSDOF 8
ENDMDL
MODEL 2
REMARK VINA RESULT:       3.4      1.731      5.293
REMARK  Name = 51136608
REMARK  13 active torsions:
REMARK  status: ('A' for Active; 'I' for Inactive)
REMARK    1  A    between atoms: O_2  and  C_18
REMARK    2  A    between atoms: O_4  and  C_28
REMARK    3  A    between atoms: O_4  and  C_30
REMARK    4  A    between atoms: O_5  and  C_29
REMARK    5  A    between atoms: O_5  and  C_31
REMARK    6  A    between atoms: C_8  and  C_13
REMARK    7  A    between atoms: C_9  and  C_14
REMARK    8  A    between atoms: C_13  and  C_16
REMARK    9  A    between atoms: C_14  and  C_18
REMARK   10  A    between atoms: C_15  and  C_17
REMARK   11  A    between atoms: C_17  and  C_20
REMARK   12  A    between atoms: C_17  and  C_21
REMARK   13  A    between atoms: C_17  and  C_22
REMARK                            x       y       z     vdW  Elec       q    Type
REMARK                         _______ _______ _______ _____ _____    ______ ____
ROOT
ATOM      1  O   UNL     1      -1.631   3.470  26.388  0.00  0.00    -0.275 OA
ATOM      6  N   UNL     1      -0.108   2.561  24.886  0.00  0.00    -0.301 N 
ATOM      8  C   UNL     1      -0.491   0.156  24.431  0.00  0.00    +0.016 C 
ATOM      9  C   UNL     1       0.489   0.219  23.233  0.00  0.00    +0.006 C 
ATOM     10  C   UNL     1      -0.171   1.226  25.486  0.00  0.00    +0.112 C 
ATOM     11  C   UNL     1       0.527   1.655  22.680  0.00  0.00    +0.023 C 
ATOM     12  C   UNL     1       0.824   2.694  23.760  0.00  0.00    +0.108 C 
ATOM     15  C   UNL     1      -0.852   3.603  25.440  0.00  0.00    +0.221 C 
ENDROOT
BRANCH  15  17
ATOM     17  C   UNL     1      -0.676   4.966  24.819  0.00  0.00    +0.039 C 
ATOM     20  C   UNL     1      -1.861   5.834  25.245  0.00  0.00    +0.020 C 
ATOM     21  C   UNL     1      -0.644   4.813  23.296  0.00  0.00    +0.020 C 
ATOM     22  C   UNL     1       0.637   5.570  25.319  0.00  0.00    +0.020 C 
ENDBRANCH  15  17
BRANCH   8  13
ATOM     13  C   UNL     1      -0.562  -1.229  25.073  0.00  0.00    +0.061 C 
BRANCH  13  16
ATOM      7  N   UNL     1      -2.075  -3.079  24.834  0.00  0.00    -0.287 NA
ATOM     16  C   UNL     1      -1.953  -1.796  24.918  0.00  0.00    +0.044 C 
ATOM     19  C   UNL     1      -3.105  -0.860  24.863  0.00  0.00    +0.003 A 
ATOM     23  C   UNL     1      -4.304  -1.363  24.342  0.00  0.00    -0.033 A 
ATOM     24  C   UNL     1      -4.341  -2.785  23.866  0.00  0.00    +0.059 C 
ATOM     25  C   UNL     1      -3.430  -3.633  24.745  0.00  0.00    +0.146 C 
ATOM     26  C   UNL     1      -3.021   0.467  25.292  0.00  0.00    +0.059 A 
ATOM     27  C   UNL     1      -5.413  -0.522  24.226  0.00  0.00    +0.053 A 
ATOM     28  C   UNL     1      -4.139   1.296  25.186  0.00  0.00    +0.162 A 
ATOM     29  C   UNL     1      -5.331   0.804  24.652  0.00  0.00    +0.162 A 
BRANCH  28   4
ATOM      4  O   UNL     1      -4.054   2.589  25.607  0.00  0.00    -0.491 OA
ATOM     30  C   UNL     1      -4.186   3.603  24.613  0.00  0.00    +0.277 C 
ENDBRANCH  28   4
BRANCH  29   5
ATOM      5  O   UNL     1      -6.422   1.612  24.540  0.00  0.00    -0.491 OA
ATOM     31  C   UNL     1      -6.926   2.191  25.743  0.00  0.00    +0.277 C 
ENDBRANCH  29   5
ENDBRANCH  13  16
ENDBRANCH   8  13
BRANCH   9  14
ATOM     14  C   UNL     1       1.902  -0.281  23.555  0.00  0.00    +0.124 C 
BRANCH  14  18
ATOM      3  O   UNL     1       2.876   0.010  21.340  0.00  0.00    -0.251 OA
ATOM     18  C   UNL     1       2.905   0.203  22.545  0.00  0.00    +0.305 C 
BRANCH  18   2
ATOM      2  O   UNL     1       3.882   0.909  23.173  0.00  0.00    -0.481 OA
ATOM     32  H   UNL     1       3.883   1.851  22.902  0.00  0.00    +0.295 HD
ENDBRANCH  18   2
ENDBRANCH  14  18
ENDBRANCH   9  14
TORSDOF 8
ENDMDL
MODEL 3
REMARK VINA RESULT:       4.2      1.803      4.749
REMARK  Name = 51136608
REMARK  13 active torsions:
REMARK  status: ('A' for Active; 'I' for Inactive)
REMARK    1  A    between atoms: O_2  and  C_18
REMARK    2  A    between atoms: O_4  and  C_28
REMARK    3  A    between atoms: O_4  and  C_30
REMARK    4  A    between atoms: O_5  and  C_29
REMARK    5  A    between atoms: O_5  and  C_31
REMARK    6  A    between atoms: C_8  and  C_13
REMARK    7  A    between atoms: C_9  and  C_14
REMARK    8  A    between atoms: C_13  and  C_16
REMARK    9  A    between atoms: C_14  and  C_18
REMARK   10  A    between atoms: C_15  and  C_17
REMARK   11  A    between atoms: C_17  and  C_20
REMARK   12  A    between atoms: C_17  and  C_21
REMARK   13  A    between atoms: C_17  and  C_22
REMARK                            x       y       z     vdW  Elec       q    Type
REMARK                         _______ _______ _______ _____ _____    ______ ____
ROOT
ATOM      1  O   UNL     1       3.662   1.534  22.297  0.00  0.00    -0.275 OA
ATOM      6  N   UNL     1       2.306   0.204  23.638  0.00  0.00    -0.301 N 
ATOM      8  C   UNL     1      -0.053   0.131  22.885  0.00  0.00    +0.016 C 
ATOM      9  C   UNL     1      -0.329  -1.056  23.842  0.00  0.00    +0.006 C 
ATOM     10  C   UNL     1       1.107   1.007  23.383  0.00  0.00    +0.112 C 
ATOM     11  C   UNL     1       0.980  -1.828  24.089  0.00  0.00    +0.023 C 
ATOM     12  C   UNL     1       2.117  -0.923  24.559  0.00  0.00    +0.108 C 
ATOM     15  C   UNL     1       3.524   0.583  23.071  0.00  0.00    +0.221 C 
ENDROOT
BRANCH  15  17
ATOM     17  C   UNL     1       4.729  -0.244  23.441  0.00  0.00    +0.039 C 
ATOM     20  C   UNL     1       5.681  -0.250  22.245  0.00  0.00    +0.020 C 
ATOM     21  C   UNL     1       4.270  -1.667  23.767  0.00  0.00    +0.020 C 
ATOM     22  C   UNL     1       5.405   0.388  24.659  0.00  0.00    +0.020 C 
ENDBRANCH  15  17
BRANCH   8  13
ATOM     13  C   UNL     1      -1.293   0.982  22.616  0.00  0.00    +0.061 C 
BRANCH  13  16
ATOM      7  N   UNL     1      -0.098   2.891  23.452  0.00  0.00    -0.287 NA
ATOM     16  C   UNL     1      -1.224   2.259  23.420  0.00  0.00    +0.044 C 
ATOM     19  C   UNL     1      -2.440   2.719  24.137  0.00  0.00    +0.003 A 
ATOM     23  C   UNL     1      -2.254   3.658  25.160  0.00  0.00    -0.033 A 
ATOM     24  C   UNL     1      -0.859   4.116  25.470  0.00  0.00    +0.059 C 
ATOM     25  C   UNL     1      -0.047   4.161  24.183  0.00  0.00    +0.146 C 
ATOM     26  C   UNL     1      -3.718   2.245  23.835  0.00  0.00    +0.059 A 
ATOM     27  C   UNL     1      -3.353   4.101  25.899  0.00  0.00    +0.053 A 
ATOM     28  C   UNL     1      -4.813   2.705  24.569  0.00  0.00    +0.162 A 
ATOM     29  C   UNL     1      -4.631   3.628  25.600  0.00  0.00    +0.162 A 
BRANCH  28   4
ATOM      4  O   UNL     1      -6.059   2.243  24.270  0.00  0.00    -0.491 OA
ATOM     30  C   UNL     1      -6.560   1.171  25.067  0.00  0.00    +0.277 C 
ENDBRANCH  28   4
BRANCH  29   5
ATOM      5  O   UNL     1      -5.696   4.074  26.324  0.00  0.00    -0.491 OA
ATOM     31  C   UNL     1      -6.412   5.192  25.801  0.00  0.00    +0.277 C 
ENDBRANCH  29   5
ENDBRANCH  13  16
ENDBRANCH   8  13
BRANCH   9  14
ATOM     14  C   UNL     1      -0.983  -0.650  25.168  0.00  0.00    +0.124 C 
BRANCH  14  18
ATOM      3  O   UNL     1      -3.330  -0.618  25.823  0.00  0.00    -0.251 OA
ATOM     18  C   UNL     1      -2.390  -1.170  25.273  0.00  0.00    +0.305 C 
BRANCH  18   2
ATOM      2  O   UNL     1      -2.480  -2.375  24.653  0.00  0.00    -0.481 OA
ATOM     32  H   UNL     1      -2.313  -2.304  23.690  0.00  0.00    +0.295 HD
ENDBRANCH  18   2
ENDBRANCH  14  18
ENDBRANCH   9  14
TORSDOF 8
ENDMDL
MODEL 4
REMARK VINA RESULT:       4.6      2.328      5.406
REMARK  Name = 51136608
REMARK  13 active torsions:
REMARK  status: ('A' for Active; 'I' for Inactive)
REMARK    1  A    between atoms: O_2  and  C_18
REMARK    2  A    between atoms: O_4  and  C_28
REMARK    3  A    between atoms: O_4  and  C_30
REMARK    4  A    between atoms: O_5  and  C_29
REMARK    5  A    between atoms: O_5  and  C_31
REMARK    6  A    between atoms: C_8  and  C_13
REMARK    7  A    between atoms: C_9  and  C_14
REMARK    8  A    between atoms: C_13  and  C_16
REMARK    9  A    between atoms: C_14  and  C_18
REMARK   10  A    between atoms: C_15  and  C_17
REMARK   11  A    between atoms: C_17  and  C_20
REMARK   12  A    between atoms: C_17  and  C_21
REMARK   13  A    between atoms: C_17  and  C_22
REMARK                            x       y       z     vdW  Elec       q    Type
REMARK                         _______ _______ _______ _____ _____    ______ ____
ROOT
ATOM      1  O   UNL     1      -4.235   2.418  23.336  0.00  0.00    -0.275 OA
ATOM      6  N   UNL     1      -4.315   0.514  24.668  0.00  0.00    -0.301 N 
ATOM      8  C   UNL     1      -2.145  -0.672  24.821  0.00  0.00    +0.016 C 
ATOM      9  C   UNL     1      -2.688  -1.529  25.991  0.00  0.00    +0.006 C 
ATOM     10  C   UNL     1      -3.274  -0.179  23.904  0.00  0.00    +0.112 C 
ATOM     11  C   UNL     1      -3.797  -0.752  26.723  0.00  0.00    +0.023 C 
ATOM     12  C   UNL     1      -4.890  -0.257  25.777  0.00  0.00    +0.108 C 
ATOM     15  C   UNL     1      -4.732   1.785  24.272  0.00  0.00    +0.221 C 
ENDROOT
BRANCH  15  17
ATOM     17  C   UNL     1      -5.861   2.403  25.058  0.00  0.00    +0.039 C 
ATOM     20  C   UNL     1      -7.177   1.970  24.409  0.00  0.00    +0.020 C 
ATOM     21  C   UNL     1      -5.718   3.926  25.013  0.00  0.00    +0.020 C 
ATOM     22  C   UNL     1      -5.787   1.905  26.502  0.00  0.00    +0.020 C 
ENDBRANCH  15  17
BRANCH   8  13
ATOM     13  C   UNL     1      -1.064  -1.384  24.009  0.00  0.00    +0.061 C 
BRANCH  13  16
ATOM      7  N   UNL     1       0.937  -0.819  22.806  0.00  0.00    -0.287 NA
ATOM     16  C   UNL     1      -0.024  -0.387  23.554  0.00  0.00    +0.044 C 
ATOM     19  C   UNL     1      -0.151   1.027  23.988  0.00  0.00    +0.003 A 
ATOM     23  C   UNL     1       0.996   1.825  23.886  0.00  0.00    -0.033 A 
ATOM     24  C   UNL     1       2.260   1.204  23.368  0.00  0.00    +0.059 C 
ATOM     25  C   UNL     1       1.913   0.160  22.315  0.00  0.00    +0.146 C 
ATOM     26  C   UNL     1      -1.340   1.559  24.491  0.00  0.00    +0.059 A 
ATOM     27  C   UNL     1       0.954   3.153  24.315  0.00  0.00    +0.053 A 
ATOM     28  C   UNL     1      -1.377   2.892  24.904  0.00  0.00    +0.162 A 
ATOM     29  C   UNL     1      -0.232   3.686  24.819  0.00  0.00    +0.162 A 
BRANCH  28   4
ATOM      4  O   UNL     1      -2.539   3.408  25.392  0.00  0.00    -0.491 OA
ATOM     30  C   UNL     1      -2.618   3.605  26.802  0.00  0.00    +0.277 C 
ENDBRANCH  28   4
BRANCH  29   5
ATOM      5  O   UNL     1      -0.262   4.985  25.228  0.00  0.00    -0.491 OA
ATOM     31  C   UNL     1      -1.211   5.842  24.595  0.00  0.00    +0.277 C 
ENDBRANCH  29   5
ENDBRANCH  13  16
ENDBRANCH   8  13
BRANCH   9  14
ATOM     14  C   UNL     1      -3.180  -2.919  25.570  0.00  0.00    +0.124 C 
BRANCH  14  18
ATOM      3  O   UNL     1      -4.586  -2.521  23.619  0.00  0.00    -0.251 OA
ATOM     18  C   UNL     1      -3.558  -2.955  24.115  0.00  0.00    +0.305 C 
BRANCH  18   2
ATOM      2  O   UNL     1      -2.570  -3.555  23.400  0.00  0.00    -0.481 OA
ATOM     32  H   UNL     1      -1.947  -2.902  23.019  0.00  0.00    +0.295 HD
ENDBRANCH  18   2
ENDBRANCH  14  18
ENDBRANCH   9  14
TORSDOF 8
ENDMDL
MODEL 5
REMARK VINA RESULT:       4.7      2.232      5.635
REMARK  Name = 51136608
REMARK  13 active torsions:
REMARK  status: ('A' for Active; 'I' for Inactive)
REMARK    1  A    between atoms: O_2  and  C_18
REMARK    2  A    between atoms: O_4  and  C_28
REMARK    3  A    between atoms: O_4  and  C_30
REMARK    4  A    between atoms: O_5  and  C_29
REMARK    5  A    between atoms: O_5  and  C_31
REMARK    6  A    between atoms: C_8  and  C_13
REMARK    7  A    between atoms: C_9  and  C_14
REMARK    8  A    between atoms: C_13  and  C_16
REMARK    9  A    between atoms: C_14  and  C_18
REMARK   10  A    between atoms: C_15  and  C_17
REMARK   11  A    between atoms: C_17  and  C_20
REMARK   12  A    between atoms: C_17  and  C_21
REMARK   13  A    between atoms: C_17  and  C_22
REMARK                            x       y       z     vdW  Elec       q    Type
REMARK                         _______ _______ _______ _____ _____    ______ ____
ROOT
ATOM      1  O   UNL     1       4.025  -1.647  22.411  0.00  0.00    -0.275 OA
ATOM      6  N   UNL     1       2.848   0.256  23.043  0.00  0.00    -0.301 N 
ATOM      8  C   UNL     1       0.445  -0.169  23.471  0.00  0.00    +0.016 C 
ATOM      9  C   UNL     1       0.307   1.228  24.125  0.00  0.00    +0.006 C 
ATOM     10  C   UNL     1       1.592  -0.209  22.449  0.00  0.00    +0.112 C 
ATOM     11  C   UNL     1       1.670   1.663  24.693  0.00  0.00    +0.023 C 
ATOM     12  C   UNL     1       2.790   1.588  23.657  0.00  0.00    +0.108 C 
ATOM     15  C   UNL     1       3.997  -0.528  22.932  0.00  0.00    +0.221 C 
ENDROOT
BRANCH  15  17
ATOM     17  C   UNL     1       5.269   0.051  23.497  0.00  0.00    +0.039 C 
ATOM     20  C   UNL     1       6.438  -0.484  22.669  0.00  0.00    +0.020 C 
ATOM     21  C   UNL     1       5.404  -0.385  24.958  0.00  0.00    +0.020 C 
ATOM     22  C   UNL     1       5.201   1.576  23.403  0.00  0.00    +0.020 C 
ENDBRANCH  15  17
BRANCH   8  13
ATOM     13  C   UNL     1      -0.855  -0.666  22.840  0.00  0.00    +0.061 C 
BRANCH  13  16
ATOM      7  N   UNL     1      -1.611  -2.229  24.500  0.00  0.00    -0.287 NA
ATOM     16  C   UNL     1      -1.819  -1.093  23.921  0.00  0.00    +0.044 C 
ATOM     19  C   UNL     1      -2.955  -0.199  24.260  0.00  0.00    +0.003 A 
ATOM     23  C   UNL     1      -4.023  -0.773  24.962  0.00  0.00    -0.033 A 
ATOM     24  C   UNL     1      -3.957  -2.232  25.306  0.00  0.00    +0.059 C 
ATOM     25  C   UNL     1      -2.511  -2.616  25.591  0.00  0.00    +0.146 C 
ATOM     26  C   UNL     1      -2.990   1.148  23.896  0.00  0.00    +0.059 A 
ATOM     27  C   UNL     1      -5.140   0.005  25.276  0.00  0.00    +0.053 A 
ATOM     28  C   UNL     1      -4.104   1.922  24.227  0.00  0.00    +0.162 A 
ATOM     29  C   UNL     1      -5.177   1.351  24.913  0.00  0.00    +0.162 A 
BRANCH  28   4
ATOM      4  O   UNL     1      -4.133   3.237  23.873  0.00  0.00    -0.491 OA
ATOM     30  C   UNL     1      -3.991   4.193  24.922  0.00  0.00    +0.277 C 
ENDBRANCH  28   4
BRANCH  29   5
ATOM      5  O   UNL     1      -6.270   2.101  25.232  0.00  0.00    -0.491 OA
ATOM     31  C   UNL     1      -6.624   2.175  26.612  0.00  0.00    +0.277 C 
ENDBRANCH  29   5
ENDBRANCH  13  16
ENDBRANCH   8  13
BRANCH   9  14
ATOM     14  C   UNL     1      -0.264   2.301  23.190  0.00  0.00    +0.124 C 
BRANCH  14  18
ATOM      3  O   UNL     1      -0.861   3.847  24.977  0.00  0.00    -0.251 OA
ATOM     18  C   UNL     1      -0.374   3.634  23.878  0.00  0.00    +0.305 C 
BRANCH  18   2
ATOM      2  O   UNL     1       0.159   4.602  23.087  0.00  0.00    -0.481 OA
ATOM     32  H   UNL     1       0.978   4.977  23.472  0.00  0.00    +0.295 HD
ENDBRANCH  18   2
ENDBRANCH  14  18
ENDBRANCH   9  14
TORSDOF 8
ENDMDL
MODEL 6
REMARK VINA RESULT:       5.0      1.444      5.743
REMARK  Name = 51136608
REMARK  13 active torsions:
REMARK  status: ('A' for Active; 'I' for Inactive)
REMARK    1  A    between atoms: O_2  and  C_18
REMARK    2  A    between atoms: O_4  and  C_28
REMARK    3  A    between atoms: O_4  and  C_30
REMARK    4  A    between atoms: O_5  and  C_29
REMARK    5  A    between atoms: O_5  and  C_31
REMARK    6  A    between atoms: C_8  and  C_13
REMARK    7  A    between atoms: C_9  and  C_14
REMARK    8  A    between atoms: C_13  and  C_16
REMARK    9  A    between atoms: C_14  and  C_18
REMARK   10  A    between atoms: C_15  and  C_17
REMARK   11  A    between atoms: C_17  and  C_20
REMARK   12  A    between atoms: C_17  and  C_21
REMARK   13  A    between atoms: C_17  and  C_22
REMARK                            x       y       z     vdW  Elec       q    Type
REMARK                         _______ _______ _______ _____ _____    ______ ____
ROOT
ATOM      1  O   UNL     1      -1.693  -1.724  23.243  0.00  0.00    -0.275 OA
ATOM      6  N   UNL     1      -3.229  -0.483  24.468  0.00  0.00    -0.301 N 
ATOM      8  C   UNL     1      -3.880   1.640  23.368  0.00  0.00    +0.016 C 
ATOM      9  C   UNL     1      -5.049   1.809  24.372  0.00  0.00    +0.006 C 
ATOM     10  C   UNL     1      -2.737   0.802  23.961  0.00  0.00    +0.112 C 
ATOM     11  C   UNL     1      -5.486   0.426  24.885  0.00  0.00    +0.023 C 
ATOM     12  C   UNL     1      -4.321  -0.389  25.445  0.00  0.00    +0.108 C 
ATOM     15  C   UNL     1      -2.610  -1.666  24.066  0.00  0.00    +0.221 C 
ENDROOT
BRANCH  15  17
ATOM     17  C   UNL     1      -3.118  -2.942  24.690  0.00  0.00    +0.039 C 
ATOM     20  C   UNL     1      -2.124  -4.056  24.359  0.00  0.00    +0.020 C 
ATOM     21  C   UNL     1      -4.496  -3.262  24.106  0.00  0.00    +0.020 C 
ATOM     22  C   UNL     1      -3.216  -2.745  26.204  0.00  0.00    +0.020 C 
ENDBRANCH  15  17
BRANCH   8  13
ATOM     13  C   UNL     1      -3.351   2.971  22.836  0.00  0.00    +0.061 C 
BRANCH  13  16
ATOM      7  N   UNL     1      -2.480   4.523  24.449  0.00  0.00    -0.287 NA
ATOM     16  C   UNL     1      -2.243   3.477  23.729  0.00  0.00    +0.044 C 
ATOM     19  C   UNL     1      -0.943   2.758  23.733  0.00  0.00    +0.003 A 
ATOM     23  C   UNL     1       0.159   3.450  24.250  0.00  0.00    -0.033 A 
ATOM     24  C   UNL     1      -0.039   4.853  24.744  0.00  0.00    +0.059 C 
ATOM     25  C   UNL     1      -1.426   4.978  25.361  0.00  0.00    +0.146 C 
ATOM     26  C   UNL     1      -0.796   1.461  23.237  0.00  0.00    +0.059 A 
ATOM     27  C   UNL     1       1.418   2.845  24.245  0.00  0.00    +0.053 A 
ATOM     28  C   UNL     1       0.463   0.859  23.250  0.00  0.00    +0.162 A 
ATOM     29  C   UNL     1       1.568   1.550  23.750  0.00  0.00    +0.162 A 
BRANCH  28   4
ATOM      4  O   UNL     1       0.603  -0.408  22.768  0.00  0.00    -0.491 OA
ATOM     30  C   UNL     1       1.041  -0.542  21.418  0.00  0.00    +0.277 C 
ENDBRANCH  28   4
BRANCH  29   5
ATOM      5  O   UNL     1       2.800   0.968  23.758  0.00  0.00    -0.491 OA
ATOM     31  C   UNL     1       3.632   1.197  22.621  0.00  0.00    +0.277 C 
ENDBRANCH  29   5
ENDBRANCH  13  16
ENDBRANCH   8  13
BRANCH   9  14
ATOM     14  C   UNL     1      -4.737   2.753  25.539  0.00  0.00    +0.124 C 
BRANCH  14  18
ATOM      3  O   UNL     1      -6.332   4.582  25.764  0.00  0.00    -0.251 OA
ATOM     18  C   UNL     1      -5.975   3.447  26.036  0.00  0.00    +0.305 C 
BRANCH  18   2
ATOM      2  O   UNL     1      -6.667   2.614  26.857  0.00  0.00    -0.481 OA
ATOM     32  H   UNL     1      -6.439   1.674  26.699  0.00  0.00    +0.295 HD
ENDBRANCH  18   2
ENDBRANCH  14  18
ENDBRANCH   9  14
TORSDOF 8
ENDMDL
MODEL 7
REMARK VINA RESULT:       5.1      2.519      5.859
REMARK  Name = 51136608
REMARK  13 active torsions:
REMARK  status: ('A' for Active; 'I' for Inactive)
REMARK    1  A    between atoms: O_2  and  C_18
REMARK    2  A    between atoms: O_4  and  C_28
REMARK    3  A    between atoms: O_4  and  C_30
REMARK    4  A    between atoms: O_5  and  C_29
REMARK    5  A    between atoms: O_5  and  C_31
REMARK    6  A    between atoms: C_8  and  C_13
REMARK    7  A    between atoms: C_9  and  C_14
REMARK    8  A    between atoms: C_13  and  C_16
REMARK    9  A    between atoms: C_14  and  C_18
REMARK   10  A    between atoms: C_15  and  C_17
REMARK   11  A    between atoms: C_17  and  C_20
REMARK   12  A    between atoms: C_17  and  C_21
REMARK   13  A    between atoms: C_17  and  C_22
REMARK                            x       y       z     vdW  Elec       q    Type
REMARK                         _______ _______ _______ _____ _____    ______ ____
ROOT
ATOM      1  O   UNL     1       4.023  -1.931  24.110  0.00  0.00    -0.275 OA
ATOM      6  N   UNL     1       2.458  -0.445  23.246  0.00  0.00    -0.301 N 
ATOM      8  C   UNL     1       0.204  -0.699  24.243  0.00  0.00    +0.016 C 
ATOM      9  C   UNL     1      -0.237   0.642  23.604  0.00  0.00    +0.006 C 
ATOM     10  C   UNL     1       1.335  -1.365  23.445  0.00  0.00    +0.112 C 
ATOM     11  C   UNL     1       0.997   1.538  23.395  0.00  0.00    +0.023 C 
ATOM     12  C   UNL     1       2.110   0.836  22.619  0.00  0.00    +0.108 C 
ATOM     15  C   UNL     1       3.751  -0.849  23.583  0.00  0.00    +0.221 C 
ENDROOT
BRANCH  15  17
ATOM     17  C   UNL     1       4.865   0.120  23.276  0.00  0.00    +0.039 C 
ATOM     20  C   UNL     1       5.978  -0.652  22.568  0.00  0.00    +0.020 C 
ATOM     21  C   UNL     1       5.378   0.713  24.591  0.00  0.00    +0.020 C 
ATOM     22  C   UNL     1       4.321   1.226  22.371  0.00  0.00    +0.020 C 
ENDBRANCH  15  17
BRANCH   8  13
ATOM     13  C   UNL     1      -0.954  -1.673  24.450  0.00  0.00    +0.061 C 
BRANCH  13  16
ATOM      7  N   UNL     1      -3.350  -1.521  24.526  0.00  0.00    -0.287 NA
ATOM     16  C   UNL     1      -2.229  -0.907  24.712  0.00  0.00    +0.044 C 
ATOM     19  C   UNL     1      -2.135   0.506  25.160  0.00  0.00    +0.003 A 
ATOM     23  C   UNL     1      -3.287   1.291  25.022  0.00  0.00    -0.033 A 
ATOM     24  C   UNL     1      -4.514   0.668  24.426  0.00  0.00    +0.059 C 
ATOM     25  C   UNL     1      -4.586  -0.796  24.839  0.00  0.00    +0.146 C 
ATOM     26  C   UNL     1      -0.963   1.055  25.684  0.00  0.00    +0.059 A 
ATOM     27  C   UNL     1      -3.252   2.638  25.387  0.00  0.00    +0.053 A 
ATOM     28  C   UNL     1      -0.941   2.399  26.061  0.00  0.00    +0.162 A 
ATOM     29  C   UNL     1      -2.082   3.189  25.911  0.00  0.00    +0.162 A 
BRANCH  28   4
ATOM      4  O   UNL     1       0.203   2.931  26.575  0.00  0.00    -0.491 OA
ATOM     30  C   UNL     1       0.664   2.399  27.815  0.00  0.00    +0.277 C 
ENDBRANCH  28   4
BRANCH  29   5
ATOM      5  O   UNL     1      -2.063   4.503  26.270  0.00  0.00    -0.491 OA
ATOM     31  C   UNL     1      -1.700   5.446  25.263  0.00  0.00    +0.277 C 
ENDBRANCH  29   5
ENDBRANCH  13  16
ENDBRANCH   8  13
BRANCH   9  14
ATOM     14  C   UNL     1      -1.025   0.481  22.299  0.00  0.00    +0.124 C 
BRANCH  14  18
ATOM      3  O   UNL     1      -1.841   2.756  22.616  0.00  0.00    -0.251 OA
ATOM     18  C   UNL     1      -1.775   1.737  21.947  0.00  0.00    +0.305 C 
BRANCH  18   2
ATOM      2  O   UNL     1      -2.390   1.580  20.746  0.00  0.00    -0.481 OA
ATOM     32  H   UNL     1      -3.231   2.082  20.699  0.00  0.00    +0.295 HD
ENDBRANCH  18   2
ENDBRANCH  14  18
ENDBRANCH   9  14
TORSDOF 8
ENDMDL
MODEL 8
REMARK VINA RESULT:       5.6      2.307      5.490
REMARK  Name = 51136608
REMARK  13 active torsions:
REMARK  status: ('A' for Active; 'I' for Inactive)
REMARK    1  A    between atoms: O_2  and  C_18
REMARK    2  A    between atoms: O_4  and  C_28
REMARK    3  A    between atoms: O_4  and  C_30
REMARK    4  A    between atoms: O_5  and  C_29
REMARK    5  A    between atoms: O_5  and  C_31
REMARK    6  A    between atoms: C_8  and  C_13
REMARK    7  A    between atoms: C_9  and  C_14
REMARK    8  A    between atoms: C_13  and  C_16
REMARK    9  A    between atoms: C_14  and  C_18
REMARK   10  A    between atoms: C_15  and  C_17
REMARK   11  A    between atoms: C_17  and  C_20
REMARK   12  A    between atoms: C_17  and  C_21
REMARK   13  A    between atoms: C_17  and  C_22
REMARK                            x       y       z     vdW  Elec       q    Type
REMARK                         _______ _______ _______ _____ _____    ______ ____
ROOT
ATOM      1  O   UNL     1       0.383  -0.044  21.657  0.00  0.00    -0.275 OA
ATOM      6  N   UNL     1       0.604   1.611  23.275  0.00  0.00    -0.301 N 
ATOM      8  C   UNL     1      -1.566   2.446  24.130  0.00  0.00    +0.016 C 
ATOM      9  C   UNL     1      -0.838   3.169  25.291  0.00  0.00    +0.006 C 
ATOM     10  C   UNL     1      -0.653   2.269  22.908  0.00  0.00    +0.112 C 
ATOM     11  C   UNL     1       0.484   2.443  25.596  0.00  0.00    +0.023 C 
ATOM     12  C   UNL     1       1.355   2.263  24.354  0.00  0.00    +0.108 C 
ATOM     15  C   UNL     1       1.031   0.490  22.562  0.00  0.00    +0.221 C 
ENDROOT
BRANCH  15  17
ATOM     17  C   UNL     1       2.371  -0.085  22.944  0.00  0.00    +0.039 C 
ATOM     20  C   UNL     1       2.875  -0.925  21.770  0.00  0.00    +0.020 C 
ATOM     21  C   UNL     1       2.196  -0.957  24.190  0.00  0.00    +0.020 C 
ATOM     22  C   UNL     1       3.337   1.065  23.233  0.00  0.00    +0.020 C 
ENDBRANCH  15  17
BRANCH   8  13
ATOM     13  C   UNL     1      -2.875   3.125  23.730  0.00  0.00    +0.061 C 
BRANCH  13  16
ATOM      7  N   UNL     1      -5.169   2.952  24.423  0.00  0.00    -0.287 NA
ATOM     16  C   UNL     1      -4.047   2.332  24.258  0.00  0.00    +0.044 C 
ATOM     19  C   UNL     1      -3.856   0.892  24.566  0.00  0.00    +0.003 A 
ATOM     23  C   UNL     1      -4.810   0.291  25.396  0.00  0.00    -0.033 A 
ATOM     24  C   UNL     1      -5.936   1.131  25.924  0.00  0.00    +0.059 C 
ATOM     25  C   UNL     1      -6.322   2.168  24.877  0.00  0.00    +0.146 C 
ATOM     26  C   UNL     1      -2.777   0.152  24.077  0.00  0.00    +0.059 A 
ATOM     27  C   UNL     1      -4.665  -1.050  25.757  0.00  0.00    +0.053 A 
ATOM     28  C   UNL     1      -2.648  -1.192  24.430  0.00  0.00    +0.162 A 
ATOM     29  C   UNL     1      -3.588  -1.791  25.270  0.00  0.00    +0.162 A 
BRANCH  28   4
ATOM      4  O   UNL     1      -1.596  -1.912  23.949  0.00  0.00    -0.491 OA
ATOM     30  C   UNL     1      -0.489  -2.106  24.827  0.00  0.00    +0.277 C 
ENDBRANCH  28   4
BRANCH  29   5
ATOM      5  O   UNL     1      -3.462  -3.101  25.624  0.00  0.00    -0.491 OA
ATOM     31  C   UNL     1      -3.658  -4.071  24.596  0.00  0.00    +0.277 C 
ENDBRANCH  29   5
ENDBRANCH  13  16
ENDBRANCH   8  13
BRANCH   9  14
ATOM     14  C   UNL     1      -0.599   4.663  25.043  0.00  0.00    +0.124 C 
BRANCH  14  18
ATOM      3  O   UNL     1      -2.101   6.575  24.879  0.00  0.00    -0.251 OA
ATOM     18  C   UNL     1      -1.828   5.478  25.339  0.00  0.00    +0.305 C 
BRANCH  18   2
ATOM      2  O   UNL     1      -2.622   4.807  26.215  0.00  0.00    -0.481 OA
ATOM     32  H   UNL     1      -2.377   4.994  27.145  0.00  0.00    +0.295 HD
ENDBRANCH  18   2
ENDBRANCH  14  18
ENDBRANCH   9  14
TORSDOF 8
ENDMDL
MODEL 9
REMARK VINA RESULT:       5.7      2.356      5.578
REMARK  Name = 51136608
REMARK  13 active torsions:
REMARK  status: ('A' for Active; 'I' for Inactive)
REMARK    1  A    between atoms: O_2  and  C_18
REMARK    2  A    between atoms: O_4  and  C_28
REMARK    3  A    between atoms: O_4  and  C_30
REMARK    4  A    between atoms: O_5  and  C_29
REMARK    5  A    between atoms: O_5  and  C_31
REMARK    6  A    between atoms: C_8  and  C_13
REMARK    7  A    between atoms: C_9  and  C_14
REMARK    8  A    between atoms: C_13  and  C_16
REMARK    9  A    between atoms: C_14  and  C_18
REMARK   10  A    between atoms: C_15  and  C_17
REMARK   11  A    between atoms: C_17  and  C_20
REMARK   12  A    between atoms: C_17  and  C_21
REMARK   13  A    between atoms: C_17  and  C_22
REMARK                            x       y       z     vdW  Elec       q    Type
REMARK                         _______ _______ _______ _____ _____    ______ ____
ROOT
ATOM      1  O   UNL     1       1.424   1.661  24.411  0.00  0.00    -0.275 OA
ATOM      6  N   UNL     1       0.532  -0.445  23.991  0.00  0.00    -0.301 N 
ATOM      8  C   UNL     1      -1.913  -0.572  24.375  0.00  0.00    +0.016 C 
ATOM      9  C   UNL     1      -1.960  -1.946  23.661  0.00  0.00    +0.006 C 
ATOM     10  C   UNL     1      -0.532  -0.296  24.989  0.00  0.00    +0.112 C 
ATOM     11  C   UNL     1      -0.797  -2.041  22.658  0.00  0.00    +0.023 C 
ATOM     12  C   UNL     1       0.557  -1.737  23.297  0.00  0.00    +0.108 C 
ATOM     15  C   UNL     1       1.463   0.580  23.817  0.00  0.00    +0.221 C 
ENDROOT
BRANCH  15  17
ATOM     17  C   UNL     1       2.574   0.323  22.831  0.00  0.00    +0.039 C 
ATOM     20  C   UNL     1       3.361   1.624  22.660  0.00  0.00    +0.020 C 
ATOM     21  C   UNL     1       1.960  -0.109  21.497  0.00  0.00    +0.020 C 
ATOM     22  C   UNL     1       3.478  -0.780  23.382  0.00  0.00    +0.020 C 
ENDBRANCH  15  17
BRANCH   8  13
ATOM     13  C   UNL     1      -3.011  -0.404  25.424  0.00  0.00    +0.061 C 
BRANCH  13  16
ATOM      7  N   UNL     1      -5.034   0.805  24.958  0.00  0.00    -0.287 NA
ATOM     16  C   UNL     1      -3.763   0.882  25.178  0.00  0.00    +0.044 C 
ATOM     19  C   UNL     1      -3.013   2.164  25.195  0.00  0.00    +0.003 A 
ATOM     23  C   UNL     1      -3.634   3.267  24.596  0.00  0.00    -0.033 A 
ATOM     24  C   UNL     1      -4.987   3.082  23.974  0.00  0.00    +0.059 C 
ATOM     25  C   UNL     1      -5.775   2.058  24.780  0.00  0.00    +0.146 C 
ATOM     26  C   UNL     1      -1.743   2.287  25.761  0.00  0.00    +0.059 A 
ATOM     27  C   UNL     1      -2.964   4.492  24.542  0.00  0.00    +0.053 A 
ATOM     28  C   UNL     1      -1.087   3.519  25.716  0.00  0.00    +0.162 A 
ATOM     29  C   UNL     1      -1.695   4.618  25.106  0.00  0.00    +0.162 A 
BRANCH  28   4
ATOM      4  O   UNL     1       0.152   3.637  26.272  0.00  0.00    -0.491 OA
ATOM     30  C   UNL     1       0.528   2.650  27.230  0.00  0.00    +0.277 C 
ENDBRANCH  28   4
BRANCH  29   5
ATOM      5  O   UNL     1      -1.055   5.820  25.054  0.00  0.00    -0.491 OA
ATOM     31  C   UNL     1      -0.082   5.992  24.025  0.00  0.00    +0.277 C 
ENDBRANCH  29   5
ENDBRANCH  13  16
ENDBRANCH   8  13
BRANCH   9  14
ATOM     14  C   UNL     1      -1.959  -3.145  24.616  0.00  0.00    +0.124 C 
BRANCH  14  18
ATOM      3  O   UNL     1      -3.556  -3.578  26.407  0.00  0.00    -0.251 OA
ATOM     18  C   UNL     1      -3.315  -3.367  25.228  0.00  0.00    +0.305 C 
BRANCH  18   2
ATOM      2  O   UNL     1      -4.269  -3.298  24.263  0.00  0.00    -0.481 OA
ATOM     32  H   UNL     1      -3.891  -3.049  23.394  0.00  0.00    +0.295 HD
ENDBRANCH  18   2
ENDBRANCH  14  18
ENDBRANCH   9  14
TORSDOF 8
ENDMDL
MODEL 10
REMARK VINA RESULT:       6.0      1.778      4.503
REMARK  Name = 51136608
REMARK  13 active torsions:
REMARK  status: ('A' for Active; 'I' for Inactive)
REMARK    1  A    between atoms: O_2  and  C_18
REMARK    2  A    between atoms: O_4  and  C_28
REMARK    3  A    between atoms: O_4  and  C_30
REMARK    4  A    between atoms: O_5  and  C_29
REMARK    5  A    between atoms: O_5  and  C_31
REMARK    6  A    between atoms: C_8  and  C_13
REMARK    7  A    between atoms: C_9  and  C_14
REMARK    8  A    between atoms: C_13  and  C_16
REMARK    9  A    between atoms: C_14  and  C_18
REMARK   10  A    between atoms: C_15  and  C_17
REMARK   11  A    between atoms: C_17  and  C_20
REMARK   12  A    between atoms: C_17  and  C_21
REMARK   13  A    between atoms: C_17  and  C_22
REMARK                            x       y       z     vdW  Elec       q    Type
REMARK                         _______ _______ _______ _____ _____    ______ ____
ROOT
ATOM      1  O   UNL     1       3.309   1.957  23.231  0.00  0.00    -0.275 OA
ATOM      6  N   UNL     1       1.575   0.559  23.895  0.00  0.00    -0.301 N 
ATOM      8  C   UNL     1      -0.322   1.768  24.934  0.00  0.00    +0.016 C 
ATOM      9  C   UNL     1      -1.197   0.494  24.835  0.00  0.00    +0.006 C 
ATOM     10  C   UNL     1       1.175   1.427  25.005  0.00  0.00    +0.112 C 
ATOM     11  C   UNL     1      -0.696  -0.382  23.672  0.00  0.00    +0.023 C 
ATOM     12  C   UNL     1       0.799  -0.680  23.763  0.00  0.00    +0.108 C 
ATOM     15  C   UNL     1       2.670   0.910  23.104  0.00  0.00    +0.221 C 
ENDROOT
BRANCH  15  17
ATOM     17  C   UNL     1       3.072  -0.071  22.031  0.00  0.00    +0.039 C 
ATOM     20  C   UNL     1       3.711  -1.280  22.715  0.00  0.00    +0.020 C 
ATOM     21  C   UNL     1       4.075   0.606  21.095  0.00  0.00    +0.020 C 
ATOM     22  C   UNL     1       1.823  -0.493  21.256  0.00  0.00    +0.020 C 
ENDBRANCH  15  17
BRANCH   8  13
ATOM     13  C   UNL     1      -0.722   2.681  26.092  0.00  0.00    +0.061 C 
BRANCH  13  16
ATOM      7  N   UNL     1      -1.522   4.857  25.463  0.00  0.00    -0.287 NA
ATOM     16  C   UNL     1      -1.824   3.615  25.652  0.00  0.00    +0.044 C 
ATOM     19  C   UNL     1      -3.192   3.069  25.466  0.00  0.00    +0.003 A 
ATOM     23  C   UNL     1      -4.244   3.994  25.442  0.00  0.00    -0.033 A 
ATOM     24  C   UNL     1      -3.926   5.450  25.618  0.00  0.00    +0.059 C 
ATOM     25  C   UNL     1      -2.578   5.751  24.977  0.00  0.00    +0.146 C 
ATOM     26  C   UNL     1      -3.448   1.703  25.333  0.00  0.00    +0.059 A 
ATOM     27  C   UNL     1      -5.559   3.542  25.311  0.00  0.00    +0.053 A 
ATOM     28  C   UNL     1      -4.764   1.261  25.187  0.00  0.00    +0.162 A 
ATOM     29  C   UNL     1      -5.817   2.177  25.179  0.00  0.00    +0.162 A 
BRANCH  28   4
ATOM      4  O   UNL     1      -5.010  -0.072  25.055  0.00  0.00    -0.491 OA
ATOM     30  C   UNL     1      -4.520  -0.707  23.875  0.00  0.00    +0.277 C 
ENDBRANCH  28   4
BRANCH  29   5
ATOM      5  O   UNL     1      -7.103   1.749  25.044  0.00  0.00    -0.491 OA
ATOM     31  C   UNL     1      -7.562   1.483  23.719  0.00  0.00    +0.277 C 
ENDBRANCH  29   5
ENDBRANCH  13  16
ENDBRANCH   8  13
BRANCH   9  14
ATOM     14  C   UNL     1      -1.272  -0.314  26.136  0.00  0.00    +0.124 C 
BRANCH  14  18
ATOM      3  O   UNL     1      -1.698  -2.548  25.261  0.00  0.00    -0.251 OA
ATOM     18  C   UNL     1      -2.034  -1.597  25.948  0.00  0.00    +0.305 C 
BRANCH  18   2
ATOM      2  O   UNL     1      -3.185  -1.555  26.670  0.00  0.00    -0.481 OA
ATOM     32  H   UNL     1      -3.873  -1.016  26.227  0.00  0.00    +0.295 HD
ENDBRANCH  18   2
ENDBRANCH  14  18
ENDBRANCH   9  14
TORSDOF 8
ENDMDL
