MODEL 1
REMARK VINA RESULT:      -1.8      0.000      0.000
REMARK  Name = 26742300
REMARK  9 active torsions:
REMARK  status: ('A' for Active; 'I' for Inactive)
REMARK    1  A    between atoms: S_1  and  C_23
REMARK    2  A    between atoms: S_1  and  C_25
REMARK    3  A    between atoms: S_2  and  C_26
REMARK    4  A    between atoms: S_2  and  C_28
REMARK    5  A    between atoms: O_6  and  C_27
REMARK    6  A    between atoms: N_10  and  C_21
REMARK    7  A    between atoms: C_20  and  C_23
REMARK    8  A    between atoms: C_24  and  C_26
REMARK    9  A    between atoms: C_25  and  C_27
REMARK                            x       y       z     vdW  Elec       q    Type
REMARK                         _______ _______ _______ _____ _____    ______ ____
ROOT
ATOM      3  O   UNL     1       0.293   2.009  25.857  0.00  0.00    -0.266 OA
ATOM      4  O   UNL     1      -4.516  -0.213  26.631  0.00  0.00    -0.275 OA
ATOM      8  N   UNL     1      -4.652   1.539  25.110  0.00  0.00    -0.300 N 
ATOM      9  N   UNL     1      -1.658   2.583  24.705  0.00  0.00    -0.310 N 
ATOM     11  C   UNL     1      -3.656   3.709  25.840  0.00  0.00    +0.027 C 
ATOM     12  C   UNL     1      -3.763   3.160  23.446  0.00  0.00    +0.054 C 
ATOM     13  C   UNL     1      -3.936   4.290  24.459  0.00  0.00    +0.018 C 
ATOM     14  C   UNL     1      -4.636   2.565  26.153  0.00  0.00    +0.113 C 
ATOM     15  C   UNL     1      -2.195   3.249  25.899  0.00  0.00    +0.130 C 
ATOM     16  C   UNL     1      -4.785   2.044  23.735  0.00  0.00    +0.117 C 
ATOM     17  C   UNL     1      -2.356   2.594  23.493  0.00  0.00    +0.027 A 
ATOM     18  C   UNL     1      -1.795   2.081  22.385  0.00  0.00    +0.024 A 
ATOM     19  C   UNL     1      -0.367   2.027  24.816  0.00  0.00    +0.273 A 
ATOM     20  C   UNL     1      -4.628   0.191  25.470  0.00  0.00    +0.225 C 
ATOM     21  C   UNL     1       0.212   1.445  23.566  0.00  0.00    +0.099 A 
ATOM     22  C   UNL     1      -0.485   1.495  22.426  0.00  0.00    +0.030 A 
ENDROOT
BRANCH  21  10
ATOM      5  O   UNL     1       1.304  -0.494  21.764  0.00  0.00    -0.275 OA
ATOM     10  N   UNL     1       1.456   0.886  23.635  0.00  0.00    -0.281 N 
ATOM     24  C   UNL     1       1.930  -0.048  22.724  0.00  0.00    +0.227 C 
ATOM     29  H   UNL     1       1.955   0.997  24.513  0.00  0.00    +0.155 HD
BRANCH  24  26
ATOM     26  C   UNL     1       3.337  -0.503  23.034  0.00  0.00    +0.164 C 
BRANCH  26   2
ATOM      2  S   UNL     1       4.458   0.907  22.863  0.00  0.00    -0.155 S 
ATOM     28  C   UNL     1       5.743   0.369  24.016  0.00  0.00    +0.085 C 
ENDBRANCH  26   2
ENDBRANCH  24  26
ENDBRANCH  21  10
BRANCH  20  23
ATOM     23  C   UNL     1      -4.742  -0.811  24.349  0.00  0.00    +0.165 C 
BRANCH  23   1
ATOM      1  S   UNL     1      -3.571  -2.135  24.679  0.00  0.00    -0.140 S 
BRANCH   1  25
ATOM     25  C   UNL     1      -2.039  -1.268  24.255  0.00  0.00    +0.189 C 
BRANCH  25  27
ATOM      7  O   UNL     1      -0.089  -2.114  25.389  0.00  0.00    -0.250 OA
ATOM     27  C   UNL     1      -1.070  -1.381  25.395  0.00  0.00    +0.315 C 
BRANCH  27   6
ATOM      6  O   UNL     1      -1.387  -0.569  26.436  0.00  0.00    -0.480 OA
ATOM     30  H   UNL     1      -0.676   0.082  26.621  0.00  0.00    +0.295 HD
ENDBRANCH  27   6
ENDBRANCH  25  27
ENDBRANCH   1  25
ENDBRANCH  23   1
ENDBRANCH  20  23
TORSDOF 8
ENDMDL
MODEL 2
REMARK VINA RESULT:       1.2      2.314      3.982
REMARK  Name = 26742300
REMARK  9 active torsions:
REMARK  status: ('A' for Active; 'I' for Inactive)
REMARK    1  A    between atoms: S_1  and  C_23
REMARK    2  A    between atoms: S_1  and  C_25
REMARK    3  A    between atoms: S_2  and  C_26
REMARK    4  A    between atoms: S_2  and  C_28
REMARK    5  A    between atoms: O_6  and  C_27
REMARK    6  A    between atoms: N_10  and  C_21
REMARK    7  A    between atoms: C_20  and  C_23
REMARK    8  A    between atoms: C_24  and  C_26
REMARK    9  A    between atoms: C_25  and  C_27
REMARK                            x       y       z     vdW  Elec       q    Type
REMARK                         _______ _______ _______ _____ _____    ______ ____
ROOT
ATOM      3  O   UNL     1      -0.712   0.444  22.290  0.00  0.00    -0.266 OA
ATOM      4  O   UNL     1      -5.256   2.682  24.023  0.00  0.00    -0.275 OA
ATOM      8  N   UNL     1      -4.823   0.705  25.165  0.00  0.00    -0.300 N 
ATOM      9  N   UNL     1      -2.008  -0.341  24.069  0.00  0.00    -0.310 N 
ATOM     11  C   UNL     1      -4.359  -1.302  23.753  0.00  0.00    +0.027 C 
ATOM     12  C   UNL     1      -3.396  -1.150  26.010  0.00  0.00    +0.054 C 
ATOM     13  C   UNL     1      -4.050  -2.103  25.011  0.00  0.00    +0.018 C 
ATOM     14  C   UNL     1      -5.313  -0.139  24.074  0.00  0.00    +0.113 C 
ATOM     15  C   UNL     1      -3.041  -0.814  23.138  0.00  0.00    +0.130 C 
ATOM     16  C   UNL     1      -4.381  -0.019  26.366  0.00  0.00    +0.117 C 
ATOM     17  C   UNL     1      -2.117  -0.560  25.446  0.00  0.00    +0.027 A 
ATOM     18  C   UNL     1      -1.107  -0.224  26.266  0.00  0.00    +0.024 A 
ATOM     19  C   UNL     1      -0.861   0.247  23.497  0.00  0.00    +0.273 A 
ATOM     20  C   UNL     1      -4.881   2.094  25.041  0.00  0.00    +0.225 C 
ATOM     21  C   UNL     1       0.230   0.628  24.447  0.00  0.00    +0.099 A 
ATOM     22  C   UNL     1       0.089   0.382  25.753  0.00  0.00    +0.030 A 
ENDROOT
BRANCH  21  10
ATOM      5  O   UNL     1       2.291  -0.681  22.951  0.00  0.00    -0.275 OA
ATOM     10  N   UNL     1       1.352   1.212  23.933  0.00  0.00    -0.281 N 
ATOM     24  C   UNL     1       2.314   0.521  23.209  0.00  0.00    +0.227 C 
ATOM     29  H   UNL     1       1.590   2.133  24.291  0.00  0.00    +0.155 HD
BRANCH  24  26
ATOM     26  C   UNL     1       3.452   1.406  22.757  0.00  0.00    +0.164 C 
BRANCH  26   2
ATOM      2  S   UNL     1       4.938   0.394  22.563  0.00  0.00    -0.155 S 
ATOM     28  C   UNL     1       5.357   0.194  24.311  0.00  0.00    +0.085 C 
ENDBRANCH  26   2
ENDBRANCH  24  26
ENDBRANCH  21  10
BRANCH  20  23
ATOM     23  C   UNL     1      -4.447   2.898  26.239  0.00  0.00    +0.165 C 
BRANCH  23   1
ATOM      1  S   UNL     1      -3.453   4.273  25.643  0.00  0.00    -0.140 S 
BRANCH   1  25
ATOM     25  C   UNL     1      -1.823   3.486  25.700  0.00  0.00    +0.189 C 
BRANCH  25  27
ATOM      7  O   UNL     1      -0.121   3.699  24.008  0.00  0.00    -0.250 OA
ATOM     27  C   UNL     1      -0.876   4.236  24.809  0.00  0.00    +0.315 C 
BRANCH  27   6
ATOM      6  O   UNL     1      -0.954   5.581  24.973  0.00  0.00    -0.480 OA
ATOM     30  H   UNL     1      -0.242   5.920  25.558  0.00  0.00    +0.295 HD
ENDBRANCH  27   6
ENDBRANCH  25  27
ENDBRANCH   1  25
ENDBRANCH  23   1
ENDBRANCH  20  23
TORSDOF 8
ENDMDL
MODEL 3
REMARK VINA RESULT:       1.3      2.547      3.860
REMARK  Name = 26742300
REMARK  9 active torsions:
REMARK  status: ('A' for Active; 'I' for Inactive)
REMARK    1  A    between atoms: S_1  and  C_23
REMARK    2  A    between atoms: S_1  and  C_25
REMARK    3  A    between atoms: S_2  and  C_26
REMARK    4  A    between atoms: S_2  and  C_28
REMARK    5  A    between atoms: O_6  and  C_27
REMARK    6  A    between atoms: N_10  and  C_21
REMARK    7  A    between atoms: C_20  and  C_23
REMARK    8  A    between atoms: C_24  and  C_26
REMARK    9  A    between atoms: C_25  and  C_27
REMARK                            x       y       z     vdW  Elec       q    Type
REMARK                         _______ _______ _______ _____ _____    ______ ____
ROOT
ATOM      3  O   UNL     1      -0.405   1.032  21.969  0.00  0.00    -0.266 OA
ATOM      4  O   UNL     1      -1.675   5.181  25.103  0.00  0.00    -0.275 OA
ATOM      8  N   UNL     1      -3.182   3.436  25.394  0.00  0.00    -0.300 N 
ATOM      9  N   UNL     1      -2.125   1.048  23.551  0.00  0.00    -0.310 N 
ATOM     11  C   UNL     1      -4.210   2.512  23.315  0.00  0.00    +0.027 C 
ATOM     12  C   UNL     1      -3.948   1.072  25.290  0.00  0.00    +0.054 C 
ATOM     13  C   UNL     1      -4.893   1.432  24.145  0.00  0.00    +0.018 C 
ATOM     14  C   UNL     1      -3.927   3.755  24.176  0.00  0.00    +0.113 C 
ATOM     15  C   UNL     1      -2.931   1.932  22.700  0.00  0.00    +0.130 C 
ATOM     16  C   UNL     1      -3.714   2.310  26.176  0.00  0.00    +0.117 C 
ATOM     17  C   UNL     1      -2.621   0.557  24.763  0.00  0.00    +0.027 A 
ATOM     18  C   UNL     1      -1.915  -0.341  25.469  0.00  0.00    +0.024 A 
ATOM     19  C   UNL     1      -0.876   0.640  23.038  0.00  0.00    +0.273 A 
ATOM     20  C   UNL     1      -2.107   4.239  25.775  0.00  0.00    +0.225 C 
ATOM     21  C   UNL     1      -0.110  -0.343  23.866  0.00  0.00    +0.099 A 
ATOM     22  C   UNL     1      -0.634  -0.798  25.009  0.00  0.00    +0.030 A 
ENDROOT
BRANCH  21  10
ATOM      5  O   UNL     1       2.201   1.304  23.485  0.00  0.00    -0.275 OA
ATOM     10  N   UNL     1       1.109  -0.753  23.409  0.00  0.00    -0.281 N 
ATOM     24  C   UNL     1       2.196   0.096  23.251  0.00  0.00    +0.227 C 
ATOM     29  H   UNL     1       1.143  -1.665  22.961  0.00  0.00    +0.155 HD
BRANCH  24  26
ATOM     26  C   UNL     1       3.422  -0.616  22.730  0.00  0.00    +0.164 C 
BRANCH  26   2
ATOM      2  S   UNL     1       4.882   0.380  23.113  0.00  0.00    -0.155 S 
ATOM     28  C   UNL     1       5.632  -0.707  24.349  0.00  0.00    +0.085 C 
ENDBRANCH  26   2
ENDBRANCH  24  26
ENDBRANCH  21  10
BRANCH  20  23
ATOM     23  C   UNL     1      -1.446   3.908  27.088  0.00  0.00    +0.165 C 
BRANCH  23   1
ATOM      1  S   UNL     1      -0.008   2.887  26.735  0.00  0.00    -0.140 S 
BRANCH   1  25
ATOM     25  C   UNL     1       0.269   2.211  28.391  0.00  0.00    +0.189 C 
BRANCH  25  27
ATOM      7  O   UNL     1       2.438   3.248  28.230  0.00  0.00    -0.250 OA
ATOM     27  C   UNL     1       1.689   2.468  28.804  0.00  0.00    +0.315 C 
BRANCH  27   6
ATOM      6  O   UNL     1       2.055   1.751  29.898  0.00  0.00    -0.480 OA
ATOM     30  H   UNL     1       2.944   2.010  30.224  0.00  0.00    +0.295 HD
ENDBRANCH  27   6
ENDBRANCH  25  27
ENDBRANCH   1  25
ENDBRANCH  23   1
ENDBRANCH  20  23
TORSDOF 8
ENDMDL
