MODEL 1
REMARK VINA RESULT:       5.9      0.000      0.000
REMARK  Name = 40780662
REMARK  8 active torsions:
REMARK  status: ('A' for Active; 'I' for Inactive)
REMARK    1  A    between atoms: O_5  and  C_14
REMARK    2  A    between atoms: O_6  and  C_15
REMARK    3  A    between atoms: N_10  and  C_24
REMARK    4  A    between atoms: N_11  and  C_18
REMARK    5  A    between atoms: N_12  and  C_31
REMARK    6  A    between atoms: C_13  and  C_17
REMARK    7  A    between atoms: C_16  and  C_18
REMARK    8  A    between atoms: C_17  and  C_19
REMARK                            x       y       z     vdW  Elec       q    Type
REMARK                         _______ _______ _______ _____ _____    ______ ____
ROOT
ATOM      4  O   UNL     1      -4.938   2.640  23.543  0.00  0.00    -0.366 OA
ATOM     13  C   UNL     1      -5.569   1.680  24.410  0.00  0.00    +0.159 C 
ATOM     14  C   UNL     1      -5.250   2.134  25.825  0.00  0.00    +0.175 C 
ATOM     15  C   UNL     1      -5.279   3.641  25.673  0.00  0.00    +0.176 C 
ATOM     16  C   UNL     1      -4.642   3.834  24.302  0.00  0.00    +0.167 C 
ENDROOT
BRANCH  14   5
ATOM      5  O   UNL     1      -6.189   1.648  26.760  0.00  0.00    -0.387 OA
ATOM     37  H   UNL     1      -5.751   0.951  27.279  0.00  0.00    +0.210 HD
ENDBRANCH  14   5
BRANCH  15   6
ATOM      6  O   UNL     1      -6.626   4.107  25.606  0.00  0.00    -0.387 OA
ATOM     38  H   UNL     1      -6.656   4.812  24.937  0.00  0.00    +0.210 HD
ENDBRANCH  15   6
BRANCH  13  17
ATOM     17  C   UNL     1      -5.052   0.287  24.094  0.00  0.00    +0.130 C 
BRANCH  17  19
ATOM      7  O   UNL     1      -4.366  -0.561  26.203  0.00  0.00    -0.276 OA
ATOM      9  N   UNL     1      -2.680   0.052  24.727  0.00  0.00    -0.298 N 
ATOM     10  N   UNL     1       0.110   0.156  23.960  0.00  0.00    -0.327 N 
ATOM     19  C   UNL     1      -4.011  -0.116  25.109  0.00  0.00    +0.218 C 
ATOM     20  C   UNL     1      -1.613  -0.311  25.656  0.00  0.00    +0.126 C 
ATOM     21  C   UNL     1      -2.259   0.571  23.423  0.00  0.00    +0.126 C 
ATOM     22  C   UNL     1      -0.375  -0.831  24.930  0.00  0.00    +0.124 C 
ATOM     23  C   UNL     1      -0.842   1.143  23.443  0.00  0.00    +0.124 C 
BRANCH  10  24
ATOM      1  F   UNL     1       5.413   0.231  22.421  0.00  0.00    -0.205 F 
ATOM     24  C   UNL     1       1.447   0.175  23.572  0.00  0.00    +0.030 A 
ATOM     26  C   UNL     1       2.037   1.370  23.160  0.00  0.00    +0.026 A 
ATOM     27  C   UNL     1       2.197  -1.000  23.596  0.00  0.00    +0.026 A 
ATOM     28  C   UNL     1       3.377   1.389  22.770  0.00  0.00    +0.040 A 
ATOM     29  C   UNL     1       3.536  -0.982  23.207  0.00  0.00    +0.040 A 
ATOM     30  C   UNL     1       4.127   0.213  22.794  0.00  0.00    +0.124 A 
ENDBRANCH  10  24
ENDBRANCH  17  19
ENDBRANCH  13  17
BRANCH  16  18
ATOM     18  C   UNL     1      -3.128   3.983  24.363  0.00  0.00    +0.140 C 
BRANCH  18  11
ATOM      8  O   UNL     1      -0.585   4.433  25.600  0.00  0.00    -0.253 OA
ATOM     11  N   UNL     1      -2.582   3.271  25.479  0.00  0.00    -0.297 N 
ATOM     12  N   UNL     1      -1.055   2.697  27.109  0.00  0.00    -0.267 N 
ATOM     25  C   UNL     1      -1.321   3.549  26.034  0.00  0.00    +0.304 C 
ATOM     39  H   UNL     1      -3.140   2.533  25.898  0.00  0.00    +0.150 HD
ATOM     40  H   UNL     1      -1.774   2.015  27.342  0.00  0.00    +0.156 HD
BRANCH  12  31
ATOM      2  F   UNL     1       1.500   2.503  26.012  0.00  0.00    -0.203 F 
ATOM      3  F   UNL     1       3.464   2.558  30.316  0.00  0.00    -0.205 F 
ATOM     31  C   UNL     1       0.100   2.661  27.924  0.00  0.00    +0.070 A 
ATOM     32  C   UNL     1       1.364   2.564  27.345  0.00  0.00    +0.147 A 
ATOM     33  C   UNL     1      -0.028   2.724  29.312  0.00  0.00    +0.029 A 
ATOM     34  C   UNL     1       2.501   2.529  28.153  0.00  0.00    +0.078 A 
ATOM     35  C   UNL     1       1.109   2.688  30.120  0.00  0.00    +0.040 A 
ATOM     36  C   UNL     1       2.374   2.591  29.540  0.00  0.00    +0.126 A 
ENDBRANCH  12  31
ENDBRANCH  18  11
ENDBRANCH  16  18
TORSDOF 8
ENDMDL
MODEL 2
REMARK VINA RESULT:       8.4      2.506      4.670
REMARK  Name = 40780662
REMARK  8 active torsions:
REMARK  status: ('A' for Active; 'I' for Inactive)
REMARK    1  A    between atoms: O_5  and  C_14
REMARK    2  A    between atoms: O_6  and  C_15
REMARK    3  A    between atoms: N_10  and  C_24
REMARK    4  A    between atoms: N_11  and  C_18
REMARK    5  A    between atoms: N_12  and  C_31
REMARK    6  A    between atoms: C_13  and  C_17
REMARK    7  A    between atoms: C_16  and  C_18
REMARK    8  A    between atoms: C_17  and  C_19
REMARK                            x       y       z     vdW  Elec       q    Type
REMARK                         _______ _______ _______ _____ _____    ______ ____
ROOT
ATOM      4  O   UNL     1      -4.944   3.614  26.901  0.00  0.00    -0.366 OA
ATOM     13  C   UNL     1      -4.049   4.279  25.992  0.00  0.00    +0.159 C 
ATOM     14  C   UNL     1      -4.739   4.246  24.639  0.00  0.00    +0.175 C 
ATOM     15  C   UNL     1      -6.193   4.402  25.036  0.00  0.00    +0.176 C 
ATOM     16  C   UNL     1      -6.263   3.570  26.311  0.00  0.00    +0.167 C 
ENDROOT
BRANCH  14   5
ATOM      5  O   UNL     1      -4.280   5.272  23.785  0.00  0.00    -0.387 OA
ATOM     37  H   UNL     1      -5.048   5.604  23.289  0.00  0.00    +0.210 HD
ENDBRANCH  14   5
BRANCH  15   6
ATOM      6  O   UNL     1      -6.471   5.758  25.376  0.00  0.00    -0.387 OA
ATOM     38  H   UNL     1      -7.438   5.853  25.424  0.00  0.00    +0.210 HD
ENDBRANCH  15   6
BRANCH  13  17
ATOM     17  C   UNL     1      -2.701   3.579  25.997  0.00  0.00    +0.130 C 
BRANCH  17  19
ATOM      7  O   UNL     1      -3.569   2.488  24.075  0.00  0.00    -0.276 OA
ATOM      9  N   UNL     1      -1.323   2.132  24.552  0.00  0.00    -0.298 N 
ATOM     10  N   UNL     1       1.290   1.101  23.851  0.00  0.00    -0.327 N 
ATOM     19  C   UNL     1      -2.581   2.688  24.786  0.00  0.00    +0.218 C 
ATOM     20  C   UNL     1      -1.126   1.253  23.402  0.00  0.00    +0.126 C 
ATOM     21  C   UNL     1      -0.148   2.378  25.392  0.00  0.00    +0.126 C 
ATOM     22  C   UNL     1       0.281   1.376  22.823  0.00  0.00    +0.124 C 
ATOM     23  C   UNL     1       0.917   1.290  25.255  0.00  0.00    +0.124 C 
BRANCH  10  24
ATOM      1  F   UNL     1       6.309  -0.733  22.457  0.00  0.00    -0.205 F 
ATOM     24  C   UNL     1       2.556   0.638  23.499  0.00  0.00    +0.030 A 
ATOM     26  C   UNL     1       3.438   1.474  22.814  0.00  0.00    +0.026 A 
ATOM     27  C   UNL     1       2.941  -0.660  23.832  0.00  0.00    +0.026 A 
ATOM     28  C   UNL     1       4.706   1.010  22.462  0.00  0.00    +0.040 A 
ATOM     29  C   UNL     1       4.208  -1.124  23.480  0.00  0.00    +0.040 A 
ATOM     30  C   UNL     1       5.091  -0.288  22.795  0.00  0.00    +0.124 A 
ENDBRANCH  10  24
ENDBRANCH  17  19
ENDBRANCH  13  17
BRANCH  16  18
ATOM     18  C   UNL     1      -6.609   2.109  26.053  0.00  0.00    +0.140 C 
BRANCH  18  11
ATOM      8  O   UNL     1      -5.605   0.162  24.208  0.00  0.00    -0.253 OA
ATOM     11  N   UNL     1      -5.465   1.266  26.237  0.00  0.00    -0.297 N 
ATOM     12  N   UNL     1      -3.895  -0.346  25.734  0.00  0.00    -0.267 N 
ATOM     25  C   UNL     1      -5.032   0.330  25.283  0.00  0.00    +0.304 C 
ATOM     39  H   UNL     1      -4.934   1.358  27.097  0.00  0.00    +0.150 HD
ATOM     40  H   UNL     1      -3.543  -0.087  26.653  0.00  0.00    +0.156 HD
BRANCH  12  31
ATOM      2  F   UNL     1      -1.161  -0.684  26.155  0.00  0.00    -0.203 F 
ATOM      3  F   UNL     1      -1.038  -4.311  23.119  0.00  0.00    -0.205 F 
ATOM     31  C   UNL     1      -3.163  -1.356  25.068  0.00  0.00    +0.070 A 
ATOM     32  C   UNL     1      -1.796  -1.500  25.301  0.00  0.00    +0.147 A 
ATOM     33  C   UNL     1      -3.813  -2.211  24.178  0.00  0.00    +0.029 A 
ATOM     34  C   UNL     1      -1.078  -2.498  24.642  0.00  0.00    +0.078 A 
ATOM     35  C   UNL     1      -3.094  -3.209  23.519  0.00  0.00    +0.040 A 
ATOM     36  C   UNL     1      -1.726  -3.353  23.751  0.00  0.00    +0.126 A 
ENDBRANCH  12  31
ENDBRANCH  18  11
ENDBRANCH  16  18
TORSDOF 8
ENDMDL
