MODEL 1
REMARK VINA RESULT:       5.5      0.000      0.000
REMARK  Name = 11941643
REMARK  9 active torsions:
REMARK  status: ('A' for Active; 'I' for Inactive)
REMARK    1  A    between atoms: N_5  and  C_12
REMARK    2  A    between atoms: N_6  and  C_13
REMARK    3  A    between atoms: N_8  and  C_25
REMARK    4  A    between atoms: C_18  and  C_19
REMARK    5  A    between atoms: C_18  and  C_22
REMARK    6  A    between atoms: C_18  and  C_23
REMARK    7  A    between atoms: C_18  and  C_24
REMARK    8  A    between atoms: C_30  and  C_31
REMARK    9  A    between atoms: C_31  and  C_32
REMARK                            x       y       z     vdW  Elec       q    Type
REMARK                         _______ _______ _______ _____ _____    ______ ____
ROOT
ATOM      1  O   UNL     1      -4.468  -1.405  23.910  0.00  0.00    -0.370 OA
ATOM      2  O   UNL     1      -2.175  -0.918  25.969  0.00  0.00    -0.370 OA
ATOM     10  C   UNL     1      -3.026  -0.036  25.218  0.00  0.00    +0.171 C 
ATOM     11  C   UNL     1      -3.236  -0.667  23.854  0.00  0.00    +0.171 C 
ATOM     12  C   UNL     1      -4.409  -0.000  25.825  0.00  0.00    +0.130 C 
ATOM     13  C   UNL     1      -2.065  -1.611  23.702  0.00  0.00    +0.131 C 
ATOM     14  C   UNL     1      -5.082  -1.204  25.192  0.00  0.00    +0.185 C 
ATOM     15  C   UNL     1      -1.791  -2.023  25.137  0.00  0.00    +0.185 C 
ENDROOT
BRANCH  12   5
ATOM      5  N   UNL     1      -5.088   1.216  25.435  0.00  0.00    -0.306 N 
ATOM      7  N   UNL     1      -3.074   2.399  25.215  0.00  0.00    -0.219 NA
ATOM      9  N   UNL     1      -5.191   3.468  24.781  0.00  0.00    -0.223 NA
ATOM     16  C   UNL     1      -4.432   2.397  25.135  0.00  0.00    +0.216 A 
ATOM     19  C   UNL     1      -2.466   3.567  24.916  0.00  0.00    +0.052 A 
ATOM     20  C   UNL     1      -3.144   4.711  24.545  0.00  0.00    +0.043 A 
ATOM     21  C   UNL     1      -4.518   4.602  24.495  0.00  0.00    +0.116 A 
ATOM     33  H   UNL     1      -6.095   1.210  25.321  0.00  0.00    +0.149 HD
BRANCH  19  18
ATOM     18  C   UNL     1      -0.978   3.588  24.998  0.00  0.00    +0.005 C 
ATOM     22  C   UNL     1      -0.369   2.986  26.308  0.00  0.00    +0.017 C 
ATOM     23  C   UNL     1      -0.334   2.779  23.831  0.00  0.00    +0.017 C 
ATOM     24  C   UNL     1      -0.428   5.046  24.918  0.00  0.00    +0.017 C 
ENDBRANCH  19  18
ENDBRANCH  12   5
BRANCH  13   6
ATOM      3  O   UNL     1       0.654  -1.768  24.592  0.00  0.00    -0.252 OA
ATOM      6  N   UNL     1      -0.927  -0.941  23.122  0.00  0.00    -0.292 N 
ATOM      8  N   UNL     1       1.266  -0.310  22.858  0.00  0.00    -0.269 N 
ATOM     17  C   UNL     1       0.375  -1.072  23.620  0.00  0.00    +0.304 C 
ATOM     34  H   UNL     1      -1.065  -0.401  22.273  0.00  0.00    +0.151 HD
ATOM     35  H   UNL     1       0.869   0.214  22.082  0.00  0.00    +0.156 HD
BRANCH   8  25
ATOM     25  C   UNL     1       2.663  -0.175  23.035  0.00  0.00    +0.035 A 
ATOM     26  C   UNL     1       3.384  -1.229  23.571  0.00  0.00    +0.024 A 
ATOM     27  C   UNL     1       3.281   1.010  22.669  0.00  0.00    +0.024 A 
ATOM     28  C   UNL     1       4.761  -1.094  23.745  0.00  0.00    +0.013 A 
ATOM     29  C   UNL     1       4.658   1.145  22.843  0.00  0.00    +0.013 A 
ATOM     30  C   UNL     1       5.398   0.093  23.381  0.00  0.00    +0.017 A 
BRANCH  30  31
ATOM      4  O   UNL     1       7.316   1.133  24.279  0.00  0.00    -0.292 OA
ATOM     31  C   UNL     1       6.835   0.232  23.562  0.00  0.00    +0.160 C 
ATOM     32  C   UNL     1       7.794  -0.731  22.870  0.00  0.00    +0.091 C 
ENDBRANCH  30  31
ENDBRANCH   8  25
ENDBRANCH  13   6
TORSDOF 5
ENDMDL
MODEL 2
REMARK VINA RESULT:       9.4      2.125      3.948
REMARK  Name = 11941643
REMARK  9 active torsions:
REMARK  status: ('A' for Active; 'I' for Inactive)
REMARK    1  A    between atoms: N_5  and  C_12
REMARK    2  A    between atoms: N_6  and  C_13
REMARK    3  A    between atoms: N_8  and  C_25
REMARK    4  A    between atoms: C_18  and  C_19
REMARK    5  A    between atoms: C_18  and  C_22
REMARK    6  A    between atoms: C_18  and  C_23
REMARK    7  A    between atoms: C_18  and  C_24
REMARK    8  A    between atoms: C_30  and  C_31
REMARK    9  A    between atoms: C_31  and  C_32
REMARK                            x       y       z     vdW  Elec       q    Type
REMARK                         _______ _______ _______ _____ _____    ______ ____
ROOT
ATOM      1  O   UNL     1      -3.296   3.486  26.700  0.00  0.00    -0.370 OA
ATOM      2  O   UNL     1      -3.047   4.960  23.961  0.00  0.00    -0.370 OA
ATOM     10  C   UNL     1      -3.624   3.703  24.352  0.00  0.00    +0.171 C 
ATOM     11  C   UNL     1      -2.734   3.115  25.430  0.00  0.00    +0.171 C 
ATOM     12  C   UNL     1      -4.946   3.929  25.048  0.00  0.00    +0.130 C 
ATOM     13  C   UNL     1      -1.404   3.804  25.224  0.00  0.00    +0.131 C 
ATOM     14  C   UNL     1      -4.527   4.193  26.482  0.00  0.00    +0.185 C 
ATOM     15  C   UNL     1      -1.820   5.159  24.680  0.00  0.00    +0.185 C 
ENDROOT
BRANCH  12   5
ATOM      5  N   UNL     1      -5.754   2.731  24.975  0.00  0.00    -0.306 N 
ATOM      7  N   UNL     1      -3.881   1.357  24.646  0.00  0.00    -0.219 NA
ATOM      9  N   UNL     1      -6.101   0.423  24.729  0.00  0.00    -0.223 NA
ATOM     16  C   UNL     1      -5.230   1.465  24.777  0.00  0.00    +0.216 A 
ATOM     19  C   UNL     1      -3.403   0.109  24.455  0.00  0.00    +0.052 A 
ATOM     20  C   UNL     1      -4.201  -1.016  24.391  0.00  0.00    +0.043 A 
ATOM     21  C   UNL     1      -5.556  -0.796  24.536  0.00  0.00    +0.116 A 
ATOM     33  H   UNL     1      -6.754   2.795  25.124  0.00  0.00    +0.149 HD
BRANCH  19  18
ATOM     18  C   UNL     1      -1.926  -0.029  24.309  0.00  0.00    +0.005 C 
ATOM     22  C   UNL     1      -1.417  -1.470  23.970  0.00  0.00    +0.017 C 
ATOM     23  C   UNL     1      -1.381   0.883  23.168  0.00  0.00    +0.017 C 
ATOM     24  C   UNL     1      -1.188   0.372  25.624  0.00  0.00    +0.017 C 
ENDBRANCH  19  18
ENDBRANCH  12   5
BRANCH  13   6
ATOM      3  O   UNL     1       1.011   2.367  25.785  0.00  0.00    -0.252 OA
ATOM      6  N   UNL     1      -0.586   3.087  24.276  0.00  0.00    -0.292 N 
ATOM      8  N   UNL     1       1.162   1.809  23.510  0.00  0.00    -0.269 N 
ATOM     17  C   UNL     1       0.585   2.407  24.634  0.00  0.00    +0.304 C 
ATOM     34  H   UNL     1      -0.909   3.016  23.316  0.00  0.00    +0.151 HD
ATOM     35  H   UNL     1       0.680   1.942  22.624  0.00  0.00    +0.156 HD
BRANCH   8  25
ATOM     25  C   UNL     1       2.345   1.036  23.450  0.00  0.00    +0.035 A 
ATOM     26  C   UNL     1       3.556   1.666  23.209  0.00  0.00    +0.024 A 
ATOM     27  C   UNL     1       2.269  -0.336  23.632  0.00  0.00    +0.024 A 
ATOM     28  C   UNL     1       4.722   0.903  23.149  0.00  0.00    +0.013 A 
ATOM     29  C   UNL     1       3.435  -1.098  23.571  0.00  0.00    +0.013 A 
ATOM     30  C   UNL     1       4.661  -0.479  23.330  0.00  0.00    +0.017 A 
BRANCH  30  31
ATOM      4  O   UNL     1       5.883  -2.481  23.584  0.00  0.00    -0.292 OA
ATOM     31  C   UNL     1       5.878  -1.274  23.269  0.00  0.00    +0.160 C 
ATOM     32  C   UNL     1       7.188  -0.641  22.812  0.00  0.00    +0.091 C 
ENDBRANCH  30  31
ENDBRANCH   8  25
ENDBRANCH  13   6
TORSDOF 5
ENDMDL
