MODEL 1
REMARK VINA RESULT:       2.5      0.000      0.000
REMARK  Name = 25389527
REMARK  9 active torsions:
REMARK  status: ('A' for Active; 'I' for Inactive)
REMARK    1  A    between atoms: O_1  and  C_15
REMARK    2  A    between atoms: O_1  and  C_20
REMARK    3  A    between atoms: N_4  and  C_18
REMARK    4  A    between atoms: N_6  and  C_23
REMARK    5  A    between atoms: C_8  and  C_14
REMARK    6  A    between atoms: C_9  and  C_15
REMARK    7  A    between atoms: C_17  and  C_19
REMARK    8  A    between atoms: C_23  and  C_27
REMARK    9  A    between atoms: C_23  and  C_28
REMARK                            x       y       z     vdW  Elec       q    Type
REMARK                         _______ _______ _______ _____ _____    ______ ____
ROOT
ATOM      3  N   UNL     1      -5.574   1.875  26.194  0.00  0.00    -0.296 NA
ATOM      7  C   UNL     1      -4.906   1.451  23.713  0.00  0.00    +0.002 C 
ATOM      8  C   UNL     1      -4.319   0.344  24.630  0.00  0.00    +0.055 C 
ATOM      9  C   UNL     1      -5.010   3.115  25.601  0.00  0.00    +0.095 C 
ATOM     10  C   UNL     1      -4.419   2.832  24.203  0.00  0.00    +0.026 C 
ATOM     11  C   UNL     1      -6.438   1.417  23.900  0.00  0.00    +0.019 C 
ATOM     12  C   UNL     1      -4.585   0.771  26.102  0.00  0.00    +0.094 C 
ATOM     13  C   UNL     1      -6.767   1.493  25.401  0.00  0.00    +0.085 C 
ENDROOT
BRANCH   8  14
ATOM      4  N   UNL     1      -2.462  -1.382  24.499  0.00  0.00    -0.270 N 
ATOM      5  N   UNL     1      -1.149  -1.551  24.266  0.00  0.00    -0.171 NA
ATOM     14  C   UNL     1      -2.876  -0.085  24.406  0.00  0.00    +0.044 A 
ATOM     16  C   UNL     1      -1.756   0.644  24.090  0.00  0.00    +0.053 A 
ATOM     17  C   UNL     1      -0.723  -0.310  24.017  0.00  0.00    +0.093 A 
ATOM     18  C   UNL     1      -3.277  -2.532  24.815  0.00  0.00    +0.172 C 
BRANCH  17  19
ATOM     19  C   UNL     1       0.662  -0.058  23.714  0.00  0.00    +0.003 A 
ATOM     21  C   UNL     1       1.625  -1.028  23.998  0.00  0.00    +0.018 A 
ATOM     22  C   UNL     1       1.040   1.151  23.139  0.00  0.00    +0.011 A 
ATOM     24  C   UNL     1       2.980  -0.798  23.709  0.00  0.00    -0.017 A 
ATOM     25  C   UNL     1       2.381   1.396  22.845  0.00  0.00    +0.009 A 
ATOM     26  C   UNL     1       3.363   0.432  23.122  0.00  0.00    -0.018 A 
ATOM     29  C   UNL     1       3.963  -1.761  23.987  0.00  0.00    +0.008 A 
ATOM     30  C   UNL     1       4.718   0.662  22.833  0.00  0.00    +0.008 A 
ATOM     31  C   UNL     1       5.304  -1.517  23.693  0.00  0.00    +0.001 A 
ATOM     32  C   UNL     1       5.680  -0.307  23.117  0.00  0.00    +0.001 A 
ENDBRANCH  17  19
ENDBRANCH   8  14
BRANCH   9  15
ATOM     15  C   UNL     1      -3.991   3.791  26.523  0.00  0.00    +0.252 C 
BRANCH  15   1
ATOM      1  O   UNL     1      -3.545   4.980  25.898  0.00  0.00    -0.449 OA
BRANCH   1  20
ATOM      2  O   UNL     1      -1.674   6.013  25.057  0.00  0.00    -0.226 OA
ATOM      6  N   UNL     1      -1.581   3.863  25.923  0.00  0.00    -0.279 N 
ATOM     20  C   UNL     1      -2.210   5.040  25.578  0.00  0.00    +0.401 C 
ATOM     33  H   UNL     1      -2.135   3.152  26.392  0.00  0.00    +0.152 HD
BRANCH   6  23
ATOM     23  C   UNL     1      -0.173   3.613  25.712  0.00  0.00    +0.070 C 
ATOM     27  C   UNL     1       0.141   3.580  24.222  0.00  0.00    +0.027 C 
ATOM     28  C   UNL     1       0.248   2.318  26.395  0.00  0.00    +0.027 C 
ENDBRANCH   6  23
ENDBRANCH   1  20
ENDBRANCH  15   1
ENDBRANCH   9  15
TORSDOF 6
ENDMDL
MODEL 2
REMARK VINA RESULT:       3.7      2.063      3.942
REMARK  Name = 25389527
REMARK  9 active torsions:
REMARK  status: ('A' for Active; 'I' for Inactive)
REMARK    1  A    between atoms: O_1  and  C_15
REMARK    2  A    between atoms: O_1  and  C_20
REMARK    3  A    between atoms: N_4  and  C_18
REMARK    4  A    between atoms: N_6  and  C_23
REMARK    5  A    between atoms: C_8  and  C_14
REMARK    6  A    between atoms: C_9  and  C_15
REMARK    7  A    between atoms: C_17  and  C_19
REMARK    8  A    between atoms: C_23  and  C_27
REMARK    9  A    between atoms: C_23  and  C_28
REMARK                            x       y       z     vdW  Elec       q    Type
REMARK                         _______ _______ _______ _____ _____    ______ ____
ROOT
ATOM      3  N   UNL     1      -5.128   3.841  24.731  0.00  0.00    -0.296 NA
ATOM      7  C   UNL     1      -2.800   3.851  25.898  0.00  0.00    +0.002 C 
ATOM      8  C   UNL     1      -2.636   3.705  24.360  0.00  0.00    +0.055 C 
ATOM      9  C   UNL     1      -5.120   2.870  25.855  0.00  0.00    +0.095 C 
ATOM     10  C   UNL     1      -3.694   2.710  26.427  0.00  0.00    +0.026 C 
ATOM     11  C   UNL     1      -3.561   5.173  26.140  0.00  0.00    +0.019 C 
ATOM     12  C   UNL     1      -4.057   3.504  23.759  0.00  0.00    +0.094 C 
ATOM     13  C   UNL     1      -4.841   5.184  25.287  0.00  0.00    +0.085 C 
ENDROOT
BRANCH   8  14
ATOM      4  N   UNL     1      -1.793   2.031  22.649  0.00  0.00    -0.270 N 
ATOM      5  N   UNL     1      -0.802   1.166  22.370  0.00  0.00    -0.171 NA
ATOM     14  C   UNL     1      -1.638   2.681  23.838  0.00  0.00    +0.044 A 
ATOM     16  C   UNL     1      -0.467   2.208  24.375  0.00  0.00    +0.053 A 
ATOM     17  C   UNL     1       0.004   1.278  23.428  0.00  0.00    +0.093 A 
ATOM     18  C   UNL     1      -2.880   2.186  21.710  0.00  0.00    +0.172 C 
BRANCH  17  19
ATOM     19  C   UNL     1       1.209   0.495  23.516  0.00  0.00    +0.003 A 
ATOM     21  C   UNL     1       2.451   1.103  23.328  0.00  0.00    +0.018 A 
ATOM     22  C   UNL     1       1.135  -0.868  23.789  0.00  0.00    +0.011 A 
ATOM     24  C   UNL     1       3.636   0.354  23.411  0.00  0.00    -0.017 A 
ATOM     25  C   UNL     1       2.302  -1.627  23.875  0.00  0.00    +0.009 A 
ATOM     26  C   UNL     1       3.560  -1.032  23.690  0.00  0.00    -0.018 A 
ATOM     29  C   UNL     1       4.894   0.948  23.224  0.00  0.00    +0.008 A 
ATOM     30  C   UNL     1       4.745  -1.782  23.773  0.00  0.00    +0.008 A 
ATOM     31  C   UNL     1       6.061   0.189  23.311  0.00  0.00    +0.001 A 
ATOM     32  C   UNL     1       5.986  -1.174  23.585  0.00  0.00    +0.001 A 
ENDBRANCH  17  19
ENDBRANCH   8  14
BRANCH   9  15
ATOM     15  C   UNL     1      -5.732   1.522  25.467  0.00  0.00    +0.252 C 
BRANCH  15   1
ATOM      1  O   UNL     1      -4.916   0.493  25.995  0.00  0.00    -0.449 OA
BRANCH   1  20
ATOM      2  O   UNL     1      -4.152  -0.038  23.895  0.00  0.00    -0.226 OA
ATOM      6  N   UNL     1      -3.833  -1.467  25.695  0.00  0.00    -0.279 N 
ATOM     20  C   UNL     1      -4.284  -0.317  25.082  0.00  0.00    +0.401 C 
ATOM     33  H   UNL     1      -3.968  -1.552  26.698  0.00  0.00    +0.152 HD
BRANCH   6  23
ATOM     23  C   UNL     1      -3.128  -2.521  25.001  0.00  0.00    +0.070 C 
ATOM     27  C   UNL     1      -1.745  -2.042  24.576  0.00  0.00    +0.027 C 
ATOM     28  C   UNL     1      -3.936  -3.007  23.805  0.00  0.00    +0.027 C 
ENDBRANCH   6  23
ENDBRANCH   1  20
ENDBRANCH  15   1
ENDBRANCH   9  15
TORSDOF 6
ENDMDL
