MODEL 1
REMARK VINA RESULT:      -4.4      0.000      0.000
REMARK  Name = 75536623
REMARK  9 active torsions:
REMARK  status: ('A' for Active; 'I' for Inactive)
REMARK    1  A    between atoms: O_2  and  C_9
REMARK    2  A    between atoms: N_5  and  C_8
REMARK    3  A    between atoms: N_5  and  C_13
REMARK    4  A    between atoms: N_6  and  C_12
REMARK    5  A    between atoms: N_7  and  C_21
REMARK    6  A    between atoms: C_10  and  C_12
REMARK    7  A    between atoms: C_13  and  C_14
REMARK    8  A    between atoms: C_15  and  C_18
REMARK    9  A    between atoms: C_27  and  C_28
REMARK                            x       y       z     vdW  Elec       q    Type
REMARK                         _______ _______ _______ _____ _____    ______ ____
ROOT
ATOM      1  O   UNL     1      -3.242   3.847  26.451  0.00  0.00    -0.371 OA
ATOM      8  C   UNL     1      -1.160   3.090  25.615  0.00  0.00    +0.111 C 
ATOM      9  C   UNL     1      -1.790   3.982  24.561  0.00  0.00    +0.164 C 
ATOM     10  C   UNL     1      -3.206   4.249  25.069  0.00  0.00    +0.165 C 
ATOM     11  C   UNL     1      -1.914   3.509  26.867  0.00  0.00    +0.181 C 
ENDROOT
BRANCH   9   2
ATOM      2  O   UNL     1      -1.062   5.212  24.539  0.00  0.00    -0.388 OA
ATOM     30  H   UNL     1      -1.226   5.661  25.386  0.00  0.00    +0.210 HD
ENDBRANCH   9   2
BRANCH   8   5
ATOM      5  N   UNL     1      -1.382   1.675  25.328  0.00  0.00    -0.305 NA
ATOM     29  H   UNL     1      -0.710   1.115  25.853  0.00  0.00    +0.123 HD
BRANCH   5  13
ATOM     13  C   UNL     1      -1.206   1.395  23.908  0.00  0.00    +0.116 C 
BRANCH  13  14
ATOM     14  C   UNL     1       0.215   1.017  23.583  0.00  0.00    -0.033 A 
ATOM     16  C   UNL     1       1.239   1.950  23.749  0.00  0.00    +0.007 A 
ATOM     17  C   UNL     1       0.507  -0.264  23.115  0.00  0.00    +0.007 A 
ATOM     19  C   UNL     1       2.555   1.601  23.448  0.00  0.00    +0.023 A 
ATOM     20  C   UNL     1       1.823  -0.613  22.814  0.00  0.00    +0.023 A 
ATOM     21  C   UNL     1       2.848   0.320  22.980  0.00  0.00    +0.033 A 
BRANCH  21   7
ATOM      4  O   UNL     1       5.343   0.467  24.659  0.00  0.00    -0.276 OA
ATOM      7  N   UNL     1       4.165  -0.030  22.679  0.00  0.00    -0.286 N 
ATOM     27  C   UNL     1       5.294   0.062  23.502  0.00  0.00    +0.214 C 
ATOM     28  C   UNL     1       6.539  -0.419  22.799  0.00  0.00    +0.109 C 
ATOM     32  H   UNL     1       4.313  -0.394  21.740  0.00  0.00    +0.155 HD
ENDBRANCH  21   7
ENDBRANCH  13  14
ENDBRANCH   5  13
ENDBRANCH   8   5
BRANCH  10  12
ATOM     12  C   UNL     1      -4.278   3.472  24.318  0.00  0.00    +0.138 C 
BRANCH  12   6
ATOM      3  O   UNL     1      -5.706   1.400  25.699  0.00  0.00    -0.270 OA
ATOM      6  N   UNL     1      -3.985   2.068  24.295  0.00  0.00    -0.309 N 
ATOM     15  C   UNL     1      -4.734   1.130  24.999  0.00  0.00    +0.244 C 
ATOM     31  H   UNL     1      -3.144   1.787  23.802  0.00  0.00    +0.149 HD
BRANCH  15  18
ATOM     18  C   UNL     1      -4.285  -0.282  24.893  0.00  0.00    +0.037 A 
ATOM     22  C   UNL     1      -3.586  -0.873  25.945  0.00  0.00    +0.013 A 
ATOM     23  C   UNL     1      -4.564  -1.017  23.741  0.00  0.00    +0.013 A 
ATOM     24  C   UNL     1      -3.165  -2.199  25.846  0.00  0.00    +0.001 A 
ATOM     25  C   UNL     1      -4.144  -2.343  23.642  0.00  0.00    +0.001 A 
ATOM     26  C   UNL     1      -3.444  -2.935  24.694  0.00  0.00    +0.000 A 
ENDBRANCH  15  18
ENDBRANCH  12   6
ENDBRANCH  10  12
TORSDOF 8
ENDMDL
MODEL 2
REMARK VINA RESULT:      -4.4      2.233      3.442
REMARK  Name = 75536623
REMARK  9 active torsions:
REMARK  status: ('A' for Active; 'I' for Inactive)
REMARK    1  A    between atoms: O_2  and  C_9
REMARK    2  A    between atoms: N_5  and  C_8
REMARK    3  A    between atoms: N_5  and  C_13
REMARK    4  A    between atoms: N_6  and  C_12
REMARK    5  A    between atoms: N_7  and  C_21
REMARK    6  A    between atoms: C_10  and  C_12
REMARK    7  A    between atoms: C_13  and  C_14
REMARK    8  A    between atoms: C_15  and  C_18
REMARK    9  A    between atoms: C_27  and  C_28
REMARK                            x       y       z     vdW  Elec       q    Type
REMARK                         _______ _______ _______ _____ _____    ______ ____
ROOT
ATOM      1  O   UNL     1      -6.557   3.206  25.378  0.00  0.00    -0.371 OA
ATOM      8  C   UNL     1      -4.320   3.945  25.137  0.00  0.00    +0.111 C 
ATOM      9  C   UNL     1      -4.486   2.682  24.311  0.00  0.00    +0.164 C 
ATOM     10  C   UNL     1      -5.868   2.148  24.686  0.00  0.00    +0.165 C 
ATOM     11  C   UNL     1      -5.761   4.396  25.309  0.00  0.00    +0.181 C 
ENDROOT
BRANCH   9   2
ATOM      2  O   UNL     1      -4.490   3.059  22.933  0.00  0.00    -0.388 OA
ATOM     30  H   UNL     1      -4.571   2.244  22.409  0.00  0.00    +0.210 HD
ENDBRANCH   9   2
BRANCH   8   5
ATOM      5  N   UNL     1      -3.708   3.665  26.435  0.00  0.00    -0.305 NA
ATOM     29  H   UNL     1      -4.314   4.017  27.175  0.00  0.00    +0.123 HD
BRANCH   5  13
ATOM     13  C   UNL     1      -2.409   4.317  26.553  0.00  0.00    +0.116 C 
BRANCH  13  14
ATOM     14  C   UNL     1      -1.339   3.572  25.800  0.00  0.00    -0.033 A 
ATOM     16  C   UNL     1      -1.214   3.736  24.420  0.00  0.00    +0.007 A 
ATOM     17  C   UNL     1      -0.474   2.716  26.481  0.00  0.00    +0.007 A 
ATOM     19  C   UNL     1      -0.223   3.046  23.722  0.00  0.00    +0.023 A 
ATOM     20  C   UNL     1       0.517   2.025  25.783  0.00  0.00    +0.023 A 
ATOM     21  C   UNL     1       0.642   2.190  24.403  0.00  0.00    +0.033 A 
BRANCH  21   7
ATOM      4  O   UNL     1       0.460  -0.261  22.663  0.00  0.00    -0.276 OA
ATOM      7  N   UNL     1       1.633   1.499  23.705  0.00  0.00    -0.286 N 
ATOM     27  C   UNL     1       1.492   0.356  22.907  0.00  0.00    +0.214 C 
ATOM     28  C   UNL     1       2.812  -0.085  22.325  0.00  0.00    +0.109 C 
ATOM     32  H   UNL     1       2.573   1.880  23.795  0.00  0.00    +0.155 HD
ENDBRANCH  21   7
ENDBRANCH  13  14
ENDBRANCH   5  13
ENDBRANCH   8   5
BRANCH  10  12
ATOM     12  C   UNL     1      -5.823   0.932  25.599  0.00  0.00    +0.138 C 
BRANCH  12   6
ATOM      3  O   UNL     1      -4.904  -1.267  23.998  0.00  0.00    -0.270 OA
ATOM      6  N   UNL     1      -4.514   0.344  25.620  0.00  0.00    -0.309 N 
ATOM     15  C   UNL     1      -4.155  -0.725  24.806  0.00  0.00    +0.244 C 
ATOM     31  H   UNL     1      -3.871   0.691  26.324  0.00  0.00    +0.149 HD
BRANCH  15  18
ATOM     18  C   UNL     1      -2.769  -1.236  24.966  0.00  0.00    +0.037 A 
ATOM     22  C   UNL     1      -1.872  -0.570  25.801  0.00  0.00    +0.013 A 
ATOM     23  C   UNL     1      -2.365  -2.383  24.283  0.00  0.00    +0.013 A 
ATOM     24  C   UNL     1      -0.571  -1.050  25.952  0.00  0.00    +0.001 A 
ATOM     25  C   UNL     1      -1.065  -2.864  24.434  0.00  0.00    +0.001 A 
ATOM     26  C   UNL     1      -0.167  -2.197  25.269  0.00  0.00    +0.000 A 
ENDBRANCH  15  18
ENDBRANCH  12   6
ENDBRANCH  10  12
TORSDOF 8
ENDMDL
MODEL 3
REMARK VINA RESULT:      -3.9      2.386      7.138
REMARK  Name = 75536623
REMARK  9 active torsions:
REMARK  status: ('A' for Active; 'I' for Inactive)
REMARK    1  A    between atoms: O_2  and  C_9
REMARK    2  A    between atoms: N_5  and  C_8
REMARK    3  A    between atoms: N_5  and  C_13
REMARK    4  A    between atoms: N_6  and  C_12
REMARK    5  A    between atoms: N_7  and  C_21
REMARK    6  A    between atoms: C_10  and  C_12
REMARK    7  A    between atoms: C_13  and  C_14
REMARK    8  A    between atoms: C_15  and  C_18
REMARK    9  A    between atoms: C_27  and  C_28
REMARK                            x       y       z     vdW  Elec       q    Type
REMARK                         _______ _______ _______ _____ _____    ______ ____
ROOT
ATOM      1  O   UNL     1      -2.190  -0.646  25.930  0.00  0.00    -0.371 OA
ATOM      8  C   UNL     1      -3.410  -2.324  24.789  0.00  0.00    +0.111 C 
ATOM      9  C   UNL     1      -1.933  -2.559  24.525  0.00  0.00    +0.164 C 
ATOM     10  C   UNL     1      -1.232  -1.329  25.100  0.00  0.00    +0.165 C 
ATOM     11  C   UNL     1      -3.368  -1.454  26.035  0.00  0.00    +0.181 C 
ENDROOT
BRANCH   9   2
ATOM      2  O   UNL     1      -1.536  -3.713  25.268  0.00  0.00    -0.388 OA
ATOM     30  H   UNL     1      -1.898  -4.492  24.812  0.00  0.00    +0.210 HD
ENDBRANCH   9   2
BRANCH   8   5
ATOM      5  N   UNL     1      -4.049  -1.613  23.684  0.00  0.00    -0.305 NA
ATOM     29  H   UNL     1      -3.341  -1.104  23.156  0.00  0.00    +0.123 HD
BRANCH   5  13
ATOM     13  C   UNL     1      -5.033  -0.655  24.177  0.00  0.00    +0.116 C 
BRANCH  13  14
ATOM     14  C   UNL     1      -4.455   0.730  24.294  0.00  0.00    -0.033 A 
ATOM     16  C   UNL     1      -4.910   1.593  25.292  0.00  0.00    +0.007 A 
ATOM     17  C   UNL     1      -3.469   1.152  23.404  0.00  0.00    +0.007 A 
ATOM     19  C   UNL     1      -4.375   2.876  25.401  0.00  0.00    +0.023 A 
ATOM     20  C   UNL     1      -2.934   2.436  23.512  0.00  0.00    +0.023 A 
ATOM     21  C   UNL     1      -3.388   3.298  24.511  0.00  0.00    +0.033 A 
BRANCH  21   7
ATOM      4  O   UNL     1      -0.625   4.207  25.293  0.00  0.00    -0.276 OA
ATOM      7  N   UNL     1      -2.853   4.583  24.619  0.00  0.00    -0.286 N 
ATOM     27  C   UNL     1      -1.553   4.950  24.992  0.00  0.00    +0.214 C 
ATOM     28  C   UNL     1      -1.373   6.447  24.987  0.00  0.00    +0.109 C 
ATOM     32  H   UNL     1      -3.496   5.340  24.400  0.00  0.00    +0.155 HD
ENDBRANCH  21   7
ENDBRANCH  13  14
ENDBRANCH   5  13
ENDBRANCH   8   5
BRANCH  10  12
ATOM     12  C   UNL     1      -0.743  -0.356  24.037  0.00  0.00    +0.138 C 
BRANCH  12   6
ATOM      3  O   UNL     1       1.021  -0.428  21.773  0.00  0.00    -0.270 OA
ATOM      6  N   UNL     1       0.687  -0.235  24.060  0.00  0.00    -0.309 N 
ATOM     15  C   UNL     1       1.466  -0.283  22.909  0.00  0.00    +0.244 C 
ATOM     31  H   UNL     1       1.125  -0.195  24.975  0.00  0.00    +0.149 HD
BRANCH  15  18
ATOM     18  C   UNL     1       2.934  -0.169  23.104  0.00  0.00    +0.037 A 
ATOM     22  C   UNL     1       3.596   1.007  22.753  0.00  0.00    +0.013 A 
ATOM     23  C   UNL     1       3.651  -1.238  23.641  0.00  0.00    +0.013 A 
ATOM     24  C   UNL     1       4.975   1.115  22.937  0.00  0.00    +0.001 A 
ATOM     25  C   UNL     1       5.029  -1.131  23.827  0.00  0.00    +0.001 A 
ATOM     26  C   UNL     1       5.691   0.045  23.475  0.00  0.00    +0.000 A 
ENDBRANCH  15  18
ENDBRANCH  12   6
ENDBRANCH  10  12
TORSDOF 8
ENDMDL
MODEL 4
REMARK VINA RESULT:      -2.3      1.520      4.376
REMARK  Name = 75536623
REMARK  9 active torsions:
REMARK  status: ('A' for Active; 'I' for Inactive)
REMARK    1  A    between atoms: O_2  and  C_9
REMARK    2  A    between atoms: N_5  and  C_8
REMARK    3  A    between atoms: N_5  and  C_13
REMARK    4  A    between atoms: N_6  and  C_12
REMARK    5  A    between atoms: N_7  and  C_21
REMARK    6  A    between atoms: C_10  and  C_12
REMARK    7  A    between atoms: C_13  and  C_14
REMARK    8  A    between atoms: C_15  and  C_18
REMARK    9  A    between atoms: C_27  and  C_28
REMARK                            x       y       z     vdW  Elec       q    Type
REMARK                         _______ _______ _______ _____ _____    ______ ____
ROOT
ATOM      1  O   UNL     1      -3.938  -0.974  23.431  0.00  0.00    -0.371 OA
ATOM      8  C   UNL     1      -2.093  -1.192  24.898  0.00  0.00    +0.111 C 
ATOM      9  C   UNL     1      -3.362  -1.303  25.724  0.00  0.00    +0.164 C 
ATOM     10  C   UNL     1      -4.490  -0.936  24.760  0.00  0.00    +0.165 C 
ATOM     11  C   UNL     1      -2.606  -1.494  23.499  0.00  0.00    +0.181 C 
ENDROOT
BRANCH   9   2
ATOM      2  O   UNL     1      -3.509  -2.669  26.116  0.00  0.00    -0.388 OA
ATOM     30  H   UNL     1      -2.710  -3.142  25.828  0.00  0.00    +0.210 HD
ENDBRANCH   9   2
BRANCH   8   5
ATOM      5  N   UNL     1      -1.523   0.152  24.960  0.00  0.00    -0.305 NA
ATOM     29  H   UNL     1      -2.208   0.789  25.366  0.00  0.00    +0.123 HD
BRANCH   5  13
ATOM     13  C   UNL     1      -1.176   0.635  23.629  0.00  0.00    +0.116 C 
BRANCH  13  14
ATOM     14  C   UNL     1       0.308   0.571  23.380  0.00  0.00    -0.033 A 
ATOM     16  C   UNL     1       0.854  -0.519  22.701  0.00  0.00    +0.007 A 
ATOM     17  C   UNL     1       1.136   1.599  23.830  0.00  0.00    +0.007 A 
ATOM     19  C   UNL     1       2.228  -0.579  22.471  0.00  0.00    +0.023 A 
ATOM     20  C   UNL     1       2.510   1.538  23.600  0.00  0.00    +0.023 A 
ATOM     21  C   UNL     1       3.057   0.449  22.920  0.00  0.00    +0.033 A 
BRANCH  21   7
ATOM      4  O   UNL     1       5.260  -0.790  24.556  0.00  0.00    -0.276 OA
ATOM      7  N   UNL     1       4.432   0.389  22.690  0.00  0.00    -0.286 N 
ATOM     27  C   UNL     1       5.418  -0.202  23.491  0.00  0.00    +0.214 C 
ATOM     28  C   UNL     1       6.792  -0.050  22.889  0.00  0.00    +0.109 C 
ATOM     32  H   UNL     1       4.748   0.834  21.831  0.00  0.00    +0.155 HD
ENDBRANCH  21   7
ENDBRANCH  13  14
ENDBRANCH   5  13
ENDBRANCH   8   5
BRANCH  10  12
ATOM     12  C   UNL     1      -5.066   0.452  24.999  0.00  0.00    +0.138 C 
BRANCH  12   6
ATOM      3  O   UNL     1      -5.162   3.084  26.141  0.00  0.00    -0.270 OA
ATOM      6  N   UNL     1      -4.048   1.460  24.916  0.00  0.00    -0.309 N 
ATOM     15  C   UNL     1      -4.181   2.715  25.502  0.00  0.00    +0.244 C 
ATOM     31  H   UNL     1      -3.245   1.249  24.332  0.00  0.00    +0.149 HD
BRANCH  15  18
ATOM     18  C   UNL     1      -3.048   3.656  25.302  0.00  0.00    +0.037 A 
ATOM     22  C   UNL     1      -1.752   3.270  25.643  0.00  0.00    +0.013 A 
ATOM     23  C   UNL     1      -3.281   4.925  24.772  0.00  0.00    +0.013 A 
ATOM     24  C   UNL     1      -0.689   4.153  25.455  0.00  0.00    +0.001 A 
ATOM     25  C   UNL     1      -2.219   5.807  24.583  0.00  0.00    +0.001 A 
ATOM     26  C   UNL     1      -0.922   5.422  24.925  0.00  0.00    +0.000 A 
ENDBRANCH  15  18
ENDBRANCH  12   6
ENDBRANCH  10  12
TORSDOF 8
ENDMDL
MODEL 5
REMARK VINA RESULT:      -1.9      1.797      2.853
REMARK  Name = 75536623
REMARK  9 active torsions:
REMARK  status: ('A' for Active; 'I' for Inactive)
REMARK    1  A    between atoms: O_2  and  C_9
REMARK    2  A    between atoms: N_5  and  C_8
REMARK    3  A    between atoms: N_5  and  C_13
REMARK    4  A    between atoms: N_6  and  C_12
REMARK    5  A    between atoms: N_7  and  C_21
REMARK    6  A    between atoms: C_10  and  C_12
REMARK    7  A    between atoms: C_13  and  C_14
REMARK    8  A    between atoms: C_15  and  C_18
REMARK    9  A    between atoms: C_27  and  C_28
REMARK                            x       y       z     vdW  Elec       q    Type
REMARK                         _______ _______ _______ _____ _____    ______ ____
ROOT
ATOM      1  O   UNL     1      -2.807   4.655  24.764  0.00  0.00    -0.371 OA
ATOM      8  C   UNL     1      -4.542   3.247  23.980  0.00  0.00    +0.111 C 
ATOM      9  C   UNL     1      -4.647   3.320  25.493  0.00  0.00    +0.164 C 
ATOM     10  C   UNL     1      -3.383   4.053  25.938  0.00  0.00    +0.165 C 
ATOM     11  C   UNL     1      -3.711   4.481  23.667  0.00  0.00    +0.181 C 
ENDROOT
BRANCH   9   2
ATOM      2  O   UNL     1      -5.788   4.120  25.813  0.00  0.00    -0.388 OA
ATOM     30  H   UNL     1      -5.558   4.655  26.591  0.00  0.00    +0.210 HD
ENDBRANCH   9   2
BRANCH   8   5
ATOM      5  N   UNL     1      -3.851   2.035  23.545  0.00  0.00    -0.305 NA
ATOM     29  H   UNL     1      -3.311   1.658  24.323  0.00  0.00    +0.123 HD
BRANCH   5  13
ATOM     13  C   UNL     1      -2.938   2.320  22.443  0.00  0.00    +0.116 C 
BRANCH  13  14
ATOM     14  C   UNL     1      -1.520   1.941  22.780  0.00  0.00    -0.033 A 
ATOM     16  C   UNL     1      -0.683   2.861  23.410  0.00  0.00    +0.007 A 
ATOM     17  C   UNL     1      -1.043   0.670  22.458  0.00  0.00    +0.007 A 
ATOM     19  C   UNL     1       0.630   2.510  23.721  0.00  0.00    +0.023 A 
ATOM     20  C   UNL     1       0.270   0.319  22.769  0.00  0.00    +0.023 A 
ATOM     21  C   UNL     1       1.107   1.239  23.401  0.00  0.00    +0.033 A 
BRANCH  21   7
ATOM      4  O   UNL     1       3.429   0.570  21.604  0.00  0.00    -0.276 OA
ATOM      7  N   UNL     1       2.422   0.887  23.712  0.00  0.00    -0.286 N 
ATOM     27  C   UNL     1       3.467   0.583  22.830  0.00  0.00    +0.214 C 
ATOM     28  C   UNL     1       4.740   0.251  23.567  0.00  0.00    +0.109 C 
ATOM     32  H   UNL     1       2.637   0.849  24.705  0.00  0.00    +0.155 HD
ENDBRANCH  21   7
ENDBRANCH  13  14
ENDBRANCH   5  13
ENDBRANCH   8   5
BRANCH  10  12
ATOM     12  C   UNL     1      -2.340   3.140  26.567  0.00  0.00    +0.138 C 
BRANCH  12   6
ATOM      3  O   UNL     1      -0.308   1.116  26.450  0.00  0.00    -0.270 OA
ATOM      6  N   UNL     1      -2.507   1.783  26.134  0.00  0.00    -0.309 N 
ATOM     15  C   UNL     1      -1.461   0.866  26.109  0.00  0.00    +0.244 C 
ATOM     31  H   UNL     1      -3.417   1.533  25.761  0.00  0.00    +0.149 HD
BRANCH  15  18
ATOM     18  C   UNL     1      -1.792  -0.493  25.608  0.00  0.00    +0.037 A 
ATOM     22  C   UNL     1      -3.122  -0.859  25.409  0.00  0.00    +0.013 A 
ATOM     23  C   UNL     1      -0.770  -1.404  25.336  0.00  0.00    +0.013 A 
ATOM     24  C   UNL     1      -3.433  -2.135  24.938  0.00  0.00    +0.001 A 
ATOM     25  C   UNL     1      -1.080  -2.679  24.865  0.00  0.00    +0.001 A 
ATOM     26  C   UNL     1      -2.412  -3.045  24.666  0.00  0.00    +0.000 A 
ENDBRANCH  15  18
ENDBRANCH  12   6
ENDBRANCH  10  12
TORSDOF 8
ENDMDL
MODEL 6
REMARK VINA RESULT:      -1.8      1.914      4.383
REMARK  Name = 75536623
REMARK  9 active torsions:
REMARK  status: ('A' for Active; 'I' for Inactive)
REMARK    1  A    between atoms: O_2  and  C_9
REMARK    2  A    between atoms: N_5  and  C_8
REMARK    3  A    between atoms: N_5  and  C_13
REMARK    4  A    between atoms: N_6  and  C_12
REMARK    5  A    between atoms: N_7  and  C_21
REMARK    6  A    between atoms: C_10  and  C_12
REMARK    7  A    between atoms: C_13  and  C_14
REMARK    8  A    between atoms: C_15  and  C_18
REMARK    9  A    between atoms: C_27  and  C_28
REMARK                            x       y       z     vdW  Elec       q    Type
REMARK                         _______ _______ _______ _____ _____    ______ ____
ROOT
ATOM      1  O   UNL     1      -6.658   2.342  24.304  0.00  0.00    -0.371 OA
ATOM      8  C   UNL     1      -5.522   0.824  25.723  0.00  0.00    +0.111 C 
ATOM      9  C   UNL     1      -6.007   1.984  26.573  0.00  0.00    +0.164 C 
ATOM     10  C   UNL     1      -6.527   3.014  25.571  0.00  0.00    +0.165 C 
ATOM     11  C   UNL     1      -6.413   0.944  24.496  0.00  0.00    +0.181 C 
ENDROOT
BRANCH   9   2
ATOM      2  O   UNL     1      -7.098   1.515  27.369  0.00  0.00    -0.388 OA
ATOM     30  H   UNL     1      -7.573   0.847  26.846  0.00  0.00    +0.210 HD
ENDBRANCH   9   2
BRANCH   8   5
ATOM      5  N   UNL     1      -4.116   0.974  25.356  0.00  0.00    -0.305 NA
ATOM     29  H   UNL     1      -4.051   1.251  24.377  0.00  0.00    +0.123 HD
BRANCH   5  13
ATOM     13  C   UNL     1      -3.392  -0.281  25.530  0.00  0.00    +0.116 C 
BRANCH  13  14
ATOM     14  C   UNL     1      -2.097  -0.291  24.762  0.00  0.00    -0.033 A 
ATOM     16  C   UNL     1      -1.055  -1.128  25.163  0.00  0.00    +0.007 A 
ATOM     17  C   UNL     1      -1.938   0.537  23.651  0.00  0.00    +0.007 A 
ATOM     19  C   UNL     1       0.144  -1.138  24.452  0.00  0.00    +0.023 A 
ATOM     20  C   UNL     1      -0.738   0.528  22.940  0.00  0.00    +0.023 A 
ATOM     21  C   UNL     1       0.303  -0.310  23.341  0.00  0.00    +0.033 A 
BRANCH  21   7
ATOM      4  O   UNL     1       2.721   1.472  23.562  0.00  0.00    -0.276 OA
ATOM      7  N   UNL     1       1.504  -0.319  22.629  0.00  0.00    -0.286 N 
ATOM     27  C   UNL     1       2.601   0.540  22.773  0.00  0.00    +0.214 C 
ATOM     28  C   UNL     1       3.709   0.197  21.809  0.00  0.00    +0.109 C 
ATOM     32  H   UNL     1       1.582  -1.043  21.918  0.00  0.00    +0.155 HD
ENDBRANCH  21   7
ENDBRANCH  13  14
ENDBRANCH   5  13
ENDBRANCH   8   5
BRANCH  10  12
ATOM     12  C   UNL     1      -5.598   4.205  25.386  0.00  0.00    +0.138 C 
BRANCH  12   6
ATOM      3  O   UNL     1      -3.368   4.880  27.062  0.00  0.00    -0.270 OA
ATOM      6  N   UNL     1      -4.238   3.784  25.213  0.00  0.00    -0.309 N 
ATOM     15  C   UNL     1      -3.216   4.162  26.078  0.00  0.00    +0.244 C 
ATOM     31  H   UNL     1      -4.029   3.256  24.372  0.00  0.00    +0.149 HD
BRANCH  15  18
ATOM     18  C   UNL     1      -1.856   3.663  25.745  0.00  0.00    +0.037 A 
ATOM     22  C   UNL     1      -1.231   2.736  26.578  0.00  0.00    +0.013 A 
ATOM     23  C   UNL     1      -1.207   4.121  24.599  0.00  0.00    +0.013 A 
ATOM     24  C   UNL     1       0.046   2.267  26.265  0.00  0.00    +0.001 A 
ATOM     25  C   UNL     1       0.068   3.652  24.286  0.00  0.00    +0.001 A 
ATOM     26  C   UNL     1       0.695   2.725  25.119  0.00  0.00    +0.000 A 
ENDBRANCH  15  18
ENDBRANCH  12   6
ENDBRANCH  10  12
TORSDOF 8
ENDMDL
