MODEL 1
REMARK VINA RESULT:      -5.5      0.000      0.000
REMARK  Name = 38027218
REMARK  14 active torsions:
REMARK  status: ('A' for Active; 'I' for Inactive)
REMARK    1  A    between atoms: O_3  and  C_22
REMARK    2  A    between atoms: O_3  and  C_28
REMARK    3  A    between atoms: N_4  and  C_13
REMARK    4  A    between atoms: N_5  and  C_20
REMARK    5  A    between atoms: N_5  and  C_21
REMARK    6  A    between atoms: C_6  and  C_10
REMARK    7  A    between atoms: C_7  and  C_13
REMARK    8  A    between atoms: C_9  and  C_14
REMARK    9  A    between atoms: C_10  and  C_15
REMARK   10  A    between atoms: C_10  and  C_16
REMARK   11  A    between atoms: C_11  and  C_17
REMARK   12  A    between atoms: C_14  and  C_18
REMARK   13  A    between atoms: C_19  and  C_22
REMARK   14  A    between atoms: C_20  and  C_23
REMARK                            x       y       z     vdW  Elec       q    Type
REMARK                         _______ _______ _______ _____ _____    ______ ____
ROOT
ATOM      6  C   UNL     1      -1.078   0.446  24.616  0.00  0.00    +0.000 C 
ATOM      7  C   UNL     1      -0.342  -0.911  24.497  0.00  0.00    +0.032 C 
ATOM      8  C   UNL     1      -2.222   0.349  25.636  0.00  0.00    +0.012 C 
ATOM      9  C   UNL     1      -3.251  -0.733  25.256  0.00  0.00    +0.023 C 
ATOM     11  C   UNL     1      -2.581  -2.035  24.864  0.00  0.00    -0.073 C 
ATOM     12  C   UNL     1      -1.277  -2.097  24.541  0.00  0.00    -0.022 C 
ATOM     17  C   UNL     1      -3.434  -3.272  24.895  0.00  0.00    +0.039 C 
ENDROOT
BRANCH   6  10
ATOM     10  C   UNL     1      -0.124   1.577  25.012  0.00  0.00    -0.013 C 
ATOM     15  C   UNL     1      -0.220   2.728  24.015  0.00  0.00    +0.007 C 
ATOM     16  C   UNL     1      -0.432   2.061  26.427  0.00  0.00    +0.007 C 
ENDBRANCH   6  10
BRANCH   7  13
ATOM     13  C   UNL     1       0.502  -0.975  23.220  0.00  0.00    +0.112 C 
BRANCH  13   4
ATOM      2  O   UNL     1       2.346  -0.198  21.131  0.00  0.00    -0.273 OA
ATOM      4  N   UNL     1       1.703  -0.212  23.367  0.00  0.00    -0.313 N 
ATOM     19  C   UNL     1       2.538   0.120  22.301  0.00  0.00    +0.239 C 
ATOM     30  H   UNL     1       1.928   0.153  24.288  0.00  0.00    +0.149 HD
BRANCH  19  22
ATOM     22  C   UNL     1       3.735   0.934  22.743  0.00  0.00    +0.255 C 
BRANCH  22   3
ATOM      3  O   UNL     1       4.917   0.166  22.665  0.00  0.00    -0.374 OA
ATOM     28  C   UNL     1       5.541   0.023  23.937  0.00  0.00    +0.194 C 
ENDBRANCH  22   3
ENDBRANCH  19  22
ENDBRANCH  13   4
ENDBRANCH   7  13
BRANCH   9  14
ATOM     14  C   UNL     1      -4.186  -0.241  24.145  0.00  0.00    +0.103 C 
BRANCH  14  18
ATOM      1  O   UNL     1      -3.557   1.919  23.317  0.00  0.00    -0.276 OA
ATOM      5  N   UNL     1      -5.186   1.863  24.966  0.00  0.00    -0.300 N 
ATOM     18  C   UNL     1      -4.267   1.273  24.091  0.00  0.00    +0.216 C 
ATOM     21  C   UNL     1      -6.015   1.081  25.873  0.00  0.00    +0.132 C 
BRANCH   5  20
ATOM     20  C   UNL     1      -5.384   3.310  25.036  0.00  0.00    +0.142 C 
BRANCH  20  23
ATOM     23  C   UNL     1      -4.080   4.052  25.095  0.00  0.00    -0.030 A 
ATOM     24  C   UNL     1      -3.284   3.974  26.237  0.00  0.00    +0.005 A 
ATOM     25  C   UNL     1      -3.666   4.821  24.008  0.00  0.00    +0.005 A 
ATOM     26  C   UNL     1      -2.072   4.664  26.292  0.00  0.00    +0.000 A 
ATOM     27  C   UNL     1      -2.455   5.512  24.063  0.00  0.00    +0.000 A 
ATOM     29  C   UNL     1      -1.658   5.433  25.205  0.00  0.00    +0.000 A 
ENDBRANCH  20  23
ENDBRANCH   5  20
ENDBRANCH  14  18
ENDBRANCH   9  14
TORSDOF 9
ENDMDL
MODEL 2
REMARK VINA RESULT:      -2.9      1.471      3.216
REMARK  Name = 38027218
REMARK  14 active torsions:
REMARK  status: ('A' for Active; 'I' for Inactive)
REMARK    1  A    between atoms: O_3  and  C_22
REMARK    2  A    between atoms: O_3  and  C_28
REMARK    3  A    between atoms: N_4  and  C_13
REMARK    4  A    between atoms: N_5  and  C_20
REMARK    5  A    between atoms: N_5  and  C_21
REMARK    6  A    between atoms: C_6  and  C_10
REMARK    7  A    between atoms: C_7  and  C_13
REMARK    8  A    between atoms: C_9  and  C_14
REMARK    9  A    between atoms: C_10  and  C_15
REMARK   10  A    between atoms: C_10  and  C_16
REMARK   11  A    between atoms: C_11  and  C_17
REMARK   12  A    between atoms: C_14  and  C_18
REMARK   13  A    between atoms: C_19  and  C_22
REMARK   14  A    between atoms: C_20  and  C_23
REMARK                            x       y       z     vdW  Elec       q    Type
REMARK                         _______ _______ _______ _____ _____    ______ ____
ROOT
ATOM      6  C   UNL     1      -2.925  -1.076  24.596  0.00  0.00    +0.000 C 
ATOM      7  C   UNL     1      -1.803  -0.368  23.797  0.00  0.00    +0.032 C 
ATOM      8  C   UNL     1      -4.283  -0.876  23.906  0.00  0.00    +0.012 C 
ATOM      9  C   UNL     1      -4.650   0.613  23.762  0.00  0.00    +0.023 C 
ATOM     11  C   UNL     1      -3.492   1.430  23.226  0.00  0.00    -0.073 C 
ATOM     12  C   UNL     1      -2.228   0.969  23.238  0.00  0.00    -0.022 C 
ATOM     17  C   UNL     1      -3.825   2.770  22.634  0.00  0.00    +0.039 C 
ENDROOT
BRANCH   6  10
ATOM     10  C   UNL     1      -2.644  -2.572  24.768  0.00  0.00    -0.013 C 
ATOM     15  C   UNL     1      -3.851  -3.394  24.328  0.00  0.00    +0.007 C 
ATOM     16  C   UNL     1      -1.401  -2.973  23.978  0.00  0.00    +0.007 C 
ENDBRANCH   6  10
BRANCH   7  13
ATOM     13  C   UNL     1      -0.544  -0.186  24.653  0.00  0.00    +0.112 C 
BRANCH  13   4
ATOM      2  O   UNL     1       1.390   1.751  23.716  0.00  0.00    -0.273 OA
ATOM      4  N   UNL     1       0.633  -0.444  23.883  0.00  0.00    -0.313 N 
ATOM     19  C   UNL     1       1.516   0.554  23.472  0.00  0.00    +0.239 C 
ATOM     30  H   UNL     1       0.866  -1.410  23.673  0.00  0.00    +0.149 HD
BRANCH  19  22
ATOM     22  C   UNL     1       2.677  -0.001  22.674  0.00  0.00    +0.255 C 
BRANCH  22   3
ATOM      3  O   UNL     1       3.758   0.908  22.668  0.00  0.00    -0.374 OA
ATOM     28  C   UNL     1       4.928   0.344  23.254  0.00  0.00    +0.194 C 
ENDBRANCH  22   3
ENDBRANCH  19  22
ENDBRANCH  13   4
ENDBRANCH   7  13
BRANCH   9  14
ATOM     14  C   UNL     1      -5.159   1.187  25.089  0.00  0.00    +0.103 C 
BRANCH  14  18
ATOM      1  O   UNL     1      -3.043   1.570  26.147  0.00  0.00    -0.276 OA
ATOM      5  N   UNL     1      -4.465   3.391  25.960  0.00  0.00    -0.300 N 
ATOM     18  C   UNL     1      -4.118   2.048  25.780  0.00  0.00    +0.216 C 
ATOM     21  C   UNL     1      -5.742   3.936  25.517  0.00  0.00    +0.132 C 
BRANCH   5  20
ATOM     20  C   UNL     1      -3.572   4.351  26.608  0.00  0.00    +0.142 C 
BRANCH  20  23
ATOM     23  C   UNL     1      -2.270   4.491  25.872  0.00  0.00    -0.030 A 
ATOM     24  C   UNL     1      -2.007   5.645  25.135  0.00  0.00    +0.005 A 
ATOM     25  C   UNL     1      -1.326   3.466  25.924  0.00  0.00    +0.005 A 
ATOM     26  C   UNL     1      -0.797   5.775  24.451  0.00  0.00    +0.000 A 
ATOM     27  C   UNL     1      -0.117   3.595  25.240  0.00  0.00    +0.000 A 
ATOM     29  C   UNL     1       0.147   4.750  24.504  0.00  0.00    +0.000 A 
ENDBRANCH  20  23
ENDBRANCH   5  20
ENDBRANCH  14  18
ENDBRANCH   9  14
TORSDOF 9
ENDMDL
MODEL 3
REMARK VINA RESULT:      -2.6      1.592      7.447
REMARK  Name = 38027218
REMARK  14 active torsions:
REMARK  status: ('A' for Active; 'I' for Inactive)
REMARK    1  A    between atoms: O_3  and  C_22
REMARK    2  A    between atoms: O_3  and  C_28
REMARK    3  A    between atoms: N_4  and  C_13
REMARK    4  A    between atoms: N_5  and  C_20
REMARK    5  A    between atoms: N_5  and  C_21
REMARK    6  A    between atoms: C_6  and  C_10
REMARK    7  A    between atoms: C_7  and  C_13
REMARK    8  A    between atoms: C_9  and  C_14
REMARK    9  A    between atoms: C_10  and  C_15
REMARK   10  A    between atoms: C_10  and  C_16
REMARK   11  A    between atoms: C_11  and  C_17
REMARK   12  A    between atoms: C_14  and  C_18
REMARK   13  A    between atoms: C_19  and  C_22
REMARK   14  A    between atoms: C_20  and  C_23
REMARK                            x       y       z     vdW  Elec       q    Type
REMARK                         _______ _______ _______ _____ _____    ______ ____
ROOT
ATOM      6  C   UNL     1      -2.834  -1.165  24.555  0.00  0.00    +0.000 C 
ATOM      7  C   UNL     1      -3.393  -0.243  25.667  0.00  0.00    +0.032 C 
ATOM      8  C   UNL     1      -1.334  -1.416  24.769  0.00  0.00    +0.012 C 
ATOM      9  C   UNL     1      -0.520  -0.108  24.774  0.00  0.00    +0.023 C 
ATOM     11  C   UNL     1      -1.160   0.951  25.648  0.00  0.00    -0.073 C 
ATOM     12  C   UNL     1      -2.442   0.867  26.048  0.00  0.00    -0.022 C 
ATOM     17  C   UNL     1      -0.281   2.087  26.090  0.00  0.00    +0.039 C 
ENDROOT
BRANCH   6  10
ATOM     10  C   UNL     1      -3.581  -2.501  24.496  0.00  0.00    -0.013 C 
ATOM     15  C   UNL     1      -4.664  -2.458  23.422  0.00  0.00    +0.007 C 
ATOM     16  C   UNL     1      -2.605  -3.644  24.233  0.00  0.00    +0.007 C 
ENDBRANCH   6  10
BRANCH   7  13
ATOM     13  C   UNL     1      -4.743   0.359  25.262  0.00  0.00    +0.112 C 
BRANCH  13   4
ATOM      2  O   UNL     1      -5.880   2.689  26.545  0.00  0.00    -0.273 OA
ATOM      4  N   UNL     1      -4.591   1.724  24.865  0.00  0.00    -0.313 N 
ATOM     19  C   UNL     1      -5.176   2.792  25.544  0.00  0.00    +0.239 C 
ATOM     30  H   UNL     1      -3.979   1.929  24.080  0.00  0.00    +0.149 HD
BRANCH  19  22
ATOM     22  C   UNL     1      -4.847   4.126  24.908  0.00  0.00    +0.255 C 
BRANCH  22   3
ATOM      3  O   UNL     1      -3.485   4.182  24.543  0.00  0.00    -0.374 OA
ATOM     28  C   UNL     1      -2.656   4.545  25.643  0.00  0.00    +0.194 C 
ENDBRANCH  22   3
ENDBRANCH  19  22
ENDBRANCH  13   4
ENDBRANCH   7  13
BRANCH   9  14
ATOM     14  C   UNL     1      -0.303   0.413  23.349  0.00  0.00    +0.103 C 
BRANCH  14  18
ATOM      1  O   UNL     1       1.728   1.609  23.782  0.00  0.00    -0.276 OA
ATOM      5  N   UNL     1       1.753   0.109  22.014  0.00  0.00    -0.300 N 
ATOM     18  C   UNL     1       1.146   0.776  23.084  0.00  0.00    +0.216 C 
ATOM     21  C   UNL     1       1.045  -0.873  21.203  0.00  0.00    +0.132 C 
BRANCH   5  20
ATOM     20  C   UNL     1       3.143   0.346  21.631  0.00  0.00    +0.142 C 
BRANCH  20  23
ATOM     23  C   UNL     1       4.100  -0.040  22.722  0.00  0.00    -0.030 A 
ATOM     24  C   UNL     1       5.000   0.899  23.224  0.00  0.00    +0.005 A 
ATOM     25  C   UNL     1       4.089  -1.338  23.231  0.00  0.00    +0.005 A 
ATOM     26  C   UNL     1       5.890   0.541  24.238  0.00  0.00    +0.000 A 
ATOM     27  C   UNL     1       4.979  -1.697  24.244  0.00  0.00    +0.000 A 
ATOM     29  C   UNL     1       5.879  -0.757  24.748  0.00  0.00    +0.000 A 
ENDBRANCH  20  23
ENDBRANCH   5  20
ENDBRANCH  14  18
ENDBRANCH   9  14
TORSDOF 9
ENDMDL
MODEL 4
REMARK VINA RESULT:      -2.1      1.881      6.843
REMARK  Name = 38027218
REMARK  14 active torsions:
REMARK  status: ('A' for Active; 'I' for Inactive)
REMARK    1  A    between atoms: O_3  and  C_22
REMARK    2  A    between atoms: O_3  and  C_28
REMARK    3  A    between atoms: N_4  and  C_13
REMARK    4  A    between atoms: N_5  and  C_20
REMARK    5  A    between atoms: N_5  and  C_21
REMARK    6  A    between atoms: C_6  and  C_10
REMARK    7  A    between atoms: C_7  and  C_13
REMARK    8  A    between atoms: C_9  and  C_14
REMARK    9  A    between atoms: C_10  and  C_15
REMARK   10  A    between atoms: C_10  and  C_16
REMARK   11  A    between atoms: C_11  and  C_17
REMARK   12  A    between atoms: C_14  and  C_18
REMARK   13  A    between atoms: C_19  and  C_22
REMARK   14  A    between atoms: C_20  and  C_23
REMARK                            x       y       z     vdW  Elec       q    Type
REMARK                         _______ _______ _______ _____ _____    ______ ____
ROOT
ATOM      6  C   UNL     1      -3.415   1.323  23.686  0.00  0.00    +0.000 C 
ATOM      7  C   UNL     1      -4.701   0.730  24.314  0.00  0.00    +0.032 C 
ATOM      8  C   UNL     1      -2.516   0.202  23.145  0.00  0.00    +0.012 C 
ATOM      9  C   UNL     1      -2.107  -0.798  24.243  0.00  0.00    +0.023 C 
ATOM     11  C   UNL     1      -3.291  -1.227  25.084  0.00  0.00    -0.073 C 
ATOM     12  C   UNL     1      -4.447  -0.539  25.093  0.00  0.00    -0.022 C 
ATOM     17  C   UNL     1      -3.134  -2.492  25.882  0.00  0.00    +0.039 C 
ENDROOT
BRANCH   6  10
ATOM     10  C   UNL     1      -3.736   2.318  22.566  0.00  0.00    -0.013 C 
ATOM     15  C   UNL     1      -3.780   3.740  23.114  0.00  0.00    +0.007 C 
ATOM     16  C   UNL     1      -2.710   2.203  21.443  0.00  0.00    +0.007 C 
ENDBRANCH   6  10
BRANCH   7  13
ATOM     13  C   UNL     1      -5.399   1.752  25.218  0.00  0.00    +0.112 C 
BRANCH  13   4
ATOM      2  O   UNL     1      -5.697   4.579  25.754  0.00  0.00    -0.273 OA
ATOM      4  N   UNL     1      -4.444   2.620  25.833  0.00  0.00    -0.313 N 
ATOM     19  C   UNL     1      -4.670   3.978  26.055  0.00  0.00    +0.239 C 
ATOM     30  H   UNL     1      -3.578   2.213  26.175  0.00  0.00    +0.149 HD
BRANCH  19  22
ATOM     22  C   UNL     1      -3.492   4.654  26.724  0.00  0.00    +0.255 C 
BRANCH  22   3
ATOM      3  O   UNL     1      -2.278   4.066  26.308  0.00  0.00    -0.374 OA
ATOM     28  C   UNL     1      -1.612   4.860  25.331  0.00  0.00    +0.194 C 
ENDBRANCH  22   3
ENDBRANCH  19  22
ENDBRANCH  13   4
ENDBRANCH   7  13
BRANCH   9  14
ATOM     14  C   UNL     1      -0.988  -0.226  25.122  0.00  0.00    +0.103 C 
BRANCH  14  18
ATOM      1  O   UNL     1       0.328   1.687  24.530  0.00  0.00    -0.276 OA
ATOM      5  N   UNL     1       0.699  -0.254  23.318  0.00  0.00    -0.300 N 
ATOM     18  C   UNL     1       0.065   0.503  24.310  0.00  0.00    +0.216 C 
ATOM     21  C   UNL     1       0.373  -1.654  23.076  0.00  0.00    +0.132 C 
BRANCH   5  20
ATOM     20  C   UNL     1       1.736   0.301  22.451  0.00  0.00    +0.142 C 
BRANCH  20  23
ATOM     23  C   UNL     1       3.115   0.029  22.979  0.00  0.00    -0.030 A 
ATOM     24  C   UNL     1       4.082   1.033  22.954  0.00  0.00    +0.005 A 
ATOM     25  C   UNL     1       3.428  -1.229  23.494  0.00  0.00    +0.005 A 
ATOM     26  C   UNL     1       5.364   0.780  23.445  0.00  0.00    +0.000 A 
ATOM     27  C   UNL     1       4.709  -1.483  23.985  0.00  0.00    +0.000 A 
ATOM     29  C   UNL     1       5.677  -0.478  23.960  0.00  0.00    +0.000 A 
ENDBRANCH  20  23
ENDBRANCH   5  20
ENDBRANCH  14  18
ENDBRANCH   9  14
TORSDOF 9
ENDMDL
MODEL 5
REMARK VINA RESULT:      -2.1      2.463      5.431
REMARK  Name = 38027218
REMARK  14 active torsions:
REMARK  status: ('A' for Active; 'I' for Inactive)
REMARK    1  A    between atoms: O_3  and  C_22
REMARK    2  A    between atoms: O_3  and  C_28
REMARK    3  A    between atoms: N_4  and  C_13
REMARK    4  A    between atoms: N_5  and  C_20
REMARK    5  A    between atoms: N_5  and  C_21
REMARK    6  A    between atoms: C_6  and  C_10
REMARK    7  A    between atoms: C_7  and  C_13
REMARK    8  A    between atoms: C_9  and  C_14
REMARK    9  A    between atoms: C_10  and  C_15
REMARK   10  A    between atoms: C_10  and  C_16
REMARK   11  A    between atoms: C_11  and  C_17
REMARK   12  A    between atoms: C_14  and  C_18
REMARK   13  A    between atoms: C_19  and  C_22
REMARK   14  A    between atoms: C_20  and  C_23
REMARK                            x       y       z     vdW  Elec       q    Type
REMARK                         _______ _______ _______ _____ _____    ______ ____
ROOT
ATOM      6  C   UNL     1      -3.549   2.411  24.056  0.00  0.00    +0.000 C 
ATOM      7  C   UNL     1      -4.162   3.549  24.910  0.00  0.00    +0.032 C 
ATOM      8  C   UNL     1      -4.619   1.367  23.705  0.00  0.00    +0.012 C 
ATOM      9  C   UNL     1      -5.260   0.745  24.960  0.00  0.00    +0.023 C 
ATOM     11  C   UNL     1      -5.652   1.800  25.975  0.00  0.00    -0.073 C 
ATOM     12  C   UNL     1      -5.161   3.052  25.928  0.00  0.00    -0.022 C 
ATOM     17  C   UNL     1      -6.656   1.397  27.018  0.00  0.00    +0.039 C 
ENDROOT
BRANCH   6  10
ATOM     10  C   UNL     1      -2.904   2.946  22.774  0.00  0.00    -0.013 C 
ATOM     15  C   UNL     1      -2.380   1.795  21.921  0.00  0.00    +0.007 C 
ATOM     16  C   UNL     1      -3.905   3.789  21.988  0.00  0.00    +0.007 C 
ENDBRANCH   6  10
BRANCH   7  13
ATOM     13  C   UNL     1      -3.072   4.360  25.618  0.00  0.00    +0.112 C 
BRANCH  13   4
ATOM      2  O   UNL     1      -0.210   4.141  25.265  0.00  0.00    -0.273 OA
ATOM      4  N   UNL     1      -2.178   3.498  26.327  0.00  0.00    -0.313 N 
ATOM     19  C   UNL     1      -0.804   3.456  26.093  0.00  0.00    +0.239 C 
ATOM     30  H   UNL     1      -2.557   2.927  27.077  0.00  0.00    +0.149 HD
BRANCH  19  22
ATOM     22  C   UNL     1      -0.101   2.456  26.985  0.00  0.00    +0.255 C 
BRANCH  22   3
ATOM      3  O   UNL     1       1.234   2.850  27.221  0.00  0.00    -0.374 OA
ATOM     28  C   UNL     1       1.606   2.674  28.585  0.00  0.00    +0.194 C 
ENDBRANCH  22   3
ENDBRANCH  19  22
ENDBRANCH  13   4
ENDBRANCH   7  13
BRANCH   9  14
ATOM     14  C   UNL     1      -4.337  -0.306  25.589  0.00  0.00    +0.103 C 
BRANCH  14  18
ATOM      1  O   UNL     1      -3.882  -1.414  23.514  0.00  0.00    -0.276 OA
ATOM      5  N   UNL     1      -2.070  -1.000  24.900  0.00  0.00    -0.300 N 
ATOM     18  C   UNL     1      -3.428  -0.958  24.566  0.00  0.00    +0.216 C 
ATOM     21  C   UNL     1      -1.555  -0.454  26.148  0.00  0.00    +0.132 C 
BRANCH   5  20
ATOM     20  C   UNL     1      -1.064  -1.595  24.020  0.00  0.00    +0.142 C 
BRANCH  20  23
ATOM     23  C   UNL     1       0.027  -0.622  23.678  0.00  0.00    -0.030 A 
ATOM     24  C   UNL     1      -0.051   0.698  24.120  0.00  0.00    +0.005 A 
ATOM     25  C   UNL     1       1.118  -1.039  22.916  0.00  0.00    +0.005 A 
ATOM     26  C   UNL     1       0.963   1.602  23.802  0.00  0.00    +0.000 A 
ATOM     27  C   UNL     1       2.132  -0.135  22.596  0.00  0.00    +0.000 A 
ATOM     29  C   UNL     1       2.054   1.185  23.040  0.00  0.00    +0.000 A 
ENDBRANCH  20  23
ENDBRANCH   5  20
ENDBRANCH  14  18
ENDBRANCH   9  14
TORSDOF 9
ENDMDL
MODEL 6
REMARK VINA RESULT:      -2.0      1.918      6.500
REMARK  Name = 38027218
REMARK  14 active torsions:
REMARK  status: ('A' for Active; 'I' for Inactive)
REMARK    1  A    between atoms: O_3  and  C_22
REMARK    2  A    between atoms: O_3  and  C_28
REMARK    3  A    between atoms: N_4  and  C_13
REMARK    4  A    between atoms: N_5  and  C_20
REMARK    5  A    between atoms: N_5  and  C_21
REMARK    6  A    between atoms: C_6  and  C_10
REMARK    7  A    between atoms: C_7  and  C_13
REMARK    8  A    between atoms: C_9  and  C_14
REMARK    9  A    between atoms: C_10  and  C_15
REMARK   10  A    between atoms: C_10  and  C_16
REMARK   11  A    between atoms: C_11  and  C_17
REMARK   12  A    between atoms: C_14  and  C_18
REMARK   13  A    between atoms: C_19  and  C_22
REMARK   14  A    between atoms: C_20  and  C_23
REMARK                            x       y       z     vdW  Elec       q    Type
REMARK                         _______ _______ _______ _____ _____    ______ ____
ROOT
ATOM      6  C   UNL     1      -3.426   1.553  23.633  0.00  0.00    +0.000 C 
ATOM      7  C   UNL     1      -4.585   1.516  24.661  0.00  0.00    +0.032 C 
ATOM      8  C   UNL     1      -3.039   0.129  23.210  0.00  0.00    +0.012 C 
ATOM      9  C   UNL     1      -2.603  -0.737  24.407  0.00  0.00    +0.023 C 
ATOM     11  C   UNL     1      -3.566  -0.616  25.571  0.00  0.00    -0.073 C 
ATOM     12  C   UNL     1      -4.454   0.391  25.660  0.00  0.00    -0.022 C 
ATOM     17  C   UNL     1      -3.517  -1.703  26.607  0.00  0.00    +0.039 C 
ENDROOT
BRANCH   6  10
ATOM     10  C   UNL     1      -3.788   2.383  22.398  0.00  0.00    -0.013 C 
ATOM     15  C   UNL     1      -4.007   3.842  22.783  0.00  0.00    +0.007 C 
ATOM     16  C   UNL     1      -2.696   2.262  21.338  0.00  0.00    +0.007 C 
ENDBRANCH   6  10
BRANCH   7  13
ATOM     13  C   UNL     1      -4.707   2.849  25.407  0.00  0.00    +0.112 C 
BRANCH  13   4
ATOM      2  O   UNL     1      -2.872   4.052  27.291  0.00  0.00    -0.273 OA
ATOM      4  N   UNL     1      -3.599   3.701  25.109  0.00  0.00    -0.313 N 
ATOM     19  C   UNL     1      -2.760   4.240  26.083  0.00  0.00    +0.239 C 
ATOM     30  H   UNL     1      -3.379   3.877  24.132  0.00  0.00    +0.149 HD
BRANCH  19  22
ATOM     22  C   UNL     1      -1.668   5.102  25.486  0.00  0.00    +0.255 C 
BRANCH  22   3
ATOM      3  O   UNL     1      -0.613   4.303  24.995  0.00  0.00    -0.374 OA
ATOM     28  C   UNL     1      -0.287   3.245  25.892  0.00  0.00    +0.194 C 
ENDBRANCH  22   3
ENDBRANCH  19  22
ENDBRANCH  13   4
ENDBRANCH   7  13
BRANCH   9  14
ATOM     14  C   UNL     1      -1.172  -0.400  24.841  0.00  0.00    +0.103 C 
BRANCH  14  18
ATOM      1  O   UNL     1      -0.019  -2.074  23.572  0.00  0.00    -0.276 OA
ATOM      5  N   UNL     1       0.643   0.125  23.250  0.00  0.00    -0.300 N 
ATOM     18  C   UNL     1      -0.140  -0.875  23.837  0.00  0.00    +0.216 C 
ATOM     21  C   UNL     1       0.482   1.536  23.578  0.00  0.00    +0.132 C 
BRANCH   5  20
ATOM     20  C   UNL     1       1.681  -0.169  22.264  0.00  0.00    +0.142 C 
BRANCH  20  23
ATOM     23  C   UNL     1       3.050  -0.191  22.880  0.00  0.00    -0.030 A 
ATOM     24  C   UNL     1       3.516  -1.347  23.503  0.00  0.00    +0.005 A 
ATOM     25  C   UNL     1       3.855   0.947  22.829  0.00  0.00    +0.005 A 
ATOM     26  C   UNL     1       4.789  -1.368  24.076  0.00  0.00    +0.000 A 
ATOM     27  C   UNL     1       5.127   0.928  23.401  0.00  0.00    +0.000 A 
ATOM     29  C   UNL     1       5.594  -0.230  24.025  0.00  0.00    +0.000 A 
ENDBRANCH  20  23
ENDBRANCH   5  20
ENDBRANCH  14  18
ENDBRANCH   9  14
TORSDOF 9
ENDMDL
MODEL 7
REMARK VINA RESULT:      -1.9      1.878      6.785
REMARK  Name = 38027218
REMARK  14 active torsions:
REMARK  status: ('A' for Active; 'I' for Inactive)
REMARK    1  A    between atoms: O_3  and  C_22
REMARK    2  A    between atoms: O_3  and  C_28
REMARK    3  A    between atoms: N_4  and  C_13
REMARK    4  A    between atoms: N_5  and  C_20
REMARK    5  A    between atoms: N_5  and  C_21
REMARK    6  A    between atoms: C_6  and  C_10
REMARK    7  A    between atoms: C_7  and  C_13
REMARK    8  A    between atoms: C_9  and  C_14
REMARK    9  A    between atoms: C_10  and  C_15
REMARK   10  A    between atoms: C_10  and  C_16
REMARK   11  A    between atoms: C_11  and  C_17
REMARK   12  A    between atoms: C_14  and  C_18
REMARK   13  A    between atoms: C_19  and  C_22
REMARK   14  A    between atoms: C_20  and  C_23
REMARK                            x       y       z     vdW  Elec       q    Type
REMARK                         _______ _______ _______ _____ _____    ______ ____
ROOT
ATOM      6  C   UNL     1      -3.322   2.633  25.371  0.00  0.00    +0.000 C 
ATOM      7  C   UNL     1      -4.331   2.209  24.275  0.00  0.00    +0.032 C 
ATOM      8  C   UNL     1      -2.171   3.443  24.756  0.00  0.00    +0.012 C 
ATOM      9  C   UNL     1      -1.413   2.649  23.675  0.00  0.00    +0.023 C 
ATOM     11  C   UNL     1      -2.360   1.974  22.704  0.00  0.00    -0.073 C 
ATOM     12  C   UNL     1      -3.664   1.798  22.984  0.00  0.00    -0.022 C 
ATOM     17  C   UNL     1      -1.784   1.546  21.383  0.00  0.00    +0.039 C 
ENDROOT
BRANCH   6  10
ATOM     10  C   UNL     1      -3.996   3.448  26.480  0.00  0.00    -0.013 C 
ATOM     15  C   UNL     1      -3.119   4.629  26.880  0.00  0.00    +0.007 C 
ATOM     16  C   UNL     1      -5.373   3.926  26.025  0.00  0.00    +0.007 C 
ENDBRANCH   6  10
BRANCH   7  13
ATOM     13  C   UNL     1      -5.237   1.073  24.765  0.00  0.00    +0.112 C 
BRANCH  13   4
ATOM      2  O   UNL     1      -4.407  -1.431  23.578  0.00  0.00    -0.273 OA
ATOM      4  N   UNL     1      -4.465   0.039  25.381  0.00  0.00    -0.313 N 
ATOM     19  C   UNL     1      -4.107  -1.143  24.733  0.00  0.00    +0.239 C 
ATOM     30  H   UNL     1      -4.114   0.200  26.321  0.00  0.00    +0.149 HD
BRANCH  19  22
ATOM     22  C   UNL     1      -3.289  -2.057  25.620  0.00  0.00    +0.255 C 
BRANCH  22   3
ATOM      3  O   UNL     1      -1.911  -1.919  25.343  0.00  0.00    -0.374 OA
ATOM     28  C   UNL     1      -1.295  -0.954  26.190  0.00  0.00    +0.194 C 
ENDBRANCH  22   3
ENDBRANCH  19  22
ENDBRANCH  13   4
ENDBRANCH   7  13
BRANCH   9  14
ATOM     14  C   UNL     1      -0.456   1.631  24.306  0.00  0.00    +0.103 C 
BRANCH  14  18
ATOM      1  O   UNL     1       1.651   2.334  23.407  0.00  0.00    -0.276 OA
ATOM      5  N   UNL     1       0.927   0.206  22.838  0.00  0.00    -0.300 N 
ATOM     18  C   UNL     1       0.804   1.441  23.484  0.00  0.00    +0.216 C 
ATOM     21  C   UNL     1      -0.086  -0.836  22.944  0.00  0.00    +0.132 C 
BRANCH   5  20
ATOM     20  C   UNL     1       2.083  -0.133  22.009  0.00  0.00    +0.142 C 
BRANCH  20  23
ATOM     23  C   UNL     1       3.346  -0.220  22.816  0.00  0.00    -0.030 A 
ATOM     24  C   UNL     1       4.210   0.872  22.877  0.00  0.00    +0.005 A 
ATOM     25  C   UNL     1       3.655  -1.394  23.502  0.00  0.00    +0.005 A 
ATOM     26  C   UNL     1       5.385   0.792  23.627  0.00  0.00    +0.000 A 
ATOM     27  C   UNL     1       4.830  -1.476  24.251  0.00  0.00    +0.000 A 
ATOM     29  C   UNL     1       5.694  -0.382  24.313  0.00  0.00    +0.000 A 
ENDBRANCH  20  23
ENDBRANCH   5  20
ENDBRANCH  14  18
ENDBRANCH   9  14
TORSDOF 9
ENDMDL
