MODEL 1
REMARK VINA RESULT:       1.4      0.000      0.000
REMARK  Name = 40779423
REMARK  5 active torsions:
REMARK  status: ('A' for Active; 'I' for Inactive)
REMARK    1  A    between atoms: N_4  and  C_24
REMARK    2  A    between atoms: N_5  and  C_16
REMARK    3  A    between atoms: C_9  and  C_15
REMARK    4  A    between atoms: C_10  and  C_16
REMARK    5  A    between atoms: C_18  and  C_19
REMARK                            x       y       z     vdW  Elec       q    Type
REMARK                         _______ _______ _______ _____ _____    ______ ____
ROOT
ATOM      3  N   UNL     1      -5.565   3.292  24.459  0.00  0.00    -0.297 NA
ATOM      8  C   UNL     1      -3.626   3.926  26.078  0.00  0.00    +0.002 C 
ATOM      9  C   UNL     1      -3.104   3.819  24.618  0.00  0.00    +0.055 C 
ATOM     10  C   UNL     1      -5.548   2.364  25.620  0.00  0.00    +0.074 C 
ATOM     11  C   UNL     1      -4.287   2.591  26.481  0.00  0.00    +0.024 C 
ATOM     12  C   UNL     1      -4.262   3.246  23.752  0.00  0.00    +0.094 C 
ATOM     13  C   UNL     1      -4.736   5.000  26.077  0.00  0.00    +0.019 C 
ATOM     14  C   UNL     1      -5.761   4.667  24.979  0.00  0.00    +0.085 C 
ENDROOT
BRANCH   9  15
ATOM      4  N   UNL     1      -0.573   3.711  24.453  0.00  0.00    -0.271 N 
ATOM      6  N   UNL     1       0.466   2.895  24.206  0.00  0.00    -0.176 NA
ATOM     15  C   UNL     1      -1.787   3.095  24.377  0.00  0.00    +0.044 A 
ATOM     17  C   UNL     1      -1.525   1.785  24.058  0.00  0.00    +0.048 A 
ATOM     19  C   UNL     1      -0.122   1.720  23.966  0.00  0.00    +0.066 A 
ATOM     24  C   UNL     1      -0.322   5.099  24.759  0.00  0.00    +0.172 C 
BRANCH  19  18
ATOM     18  C   UNL     1       0.726   0.510  23.639  0.00  0.00    +0.040 C 
ATOM     20  C   UNL     1       0.352  -0.123  22.287  0.00  0.00    +0.010 C 
ATOM     21  C   UNL     1       2.240   0.791  23.564  0.00  0.00    +0.010 C 
ATOM     22  C   UNL     1       1.672  -0.614  21.711  0.00  0.00    +0.001 C 
ATOM     23  C   UNL     1       2.652   0.468  22.132  0.00  0.00    +0.001 C 
ENDBRANCH  19  18
ENDBRANCH   9  15
BRANCH  10  16
ATOM     16  C   UNL     1      -5.695   0.900  25.198  0.00  0.00    +0.124 C 
BRANCH  16   5
ATOM      1  O   UNL     1      -4.848  -1.409  23.832  0.00  0.00    -0.253 OA
ATOM      2  O   UNL     1      -0.267  -2.521  25.335  0.00  0.00    -0.377 OA
ATOM      5  N   UNL     1      -4.479   0.163  25.462  0.00  0.00    -0.298 N 
ATOM      7  N   UNL     1      -2.924  -1.583  25.116  0.00  0.00    -0.281 N 
ATOM     25  C   UNL     1      -4.131  -0.972  24.738  0.00  0.00    +0.302 C 
ATOM     26  C   UNL     1      -2.483  -2.790  24.412  0.00  0.00    +0.137 C 
ATOM     27  C   UNL     1      -2.093  -1.221  26.274  0.00  0.00    +0.137 C 
ATOM     28  C   UNL     1      -0.991  -2.739  24.123  0.00  0.00    +0.179 C 
ATOM     29  C   UNL     1      -0.612  -1.262  25.913  0.00  0.00    +0.179 C 
ATOM     30  H   UNL     1      -3.931   0.479  26.248  0.00  0.00    +0.150 HD
ENDBRANCH  16   5
ENDBRANCH  10  16
TORSDOF 4
ENDMDL
MODEL 2
REMARK VINA RESULT:       2.4      1.819      4.955
REMARK  Name = 40779423
REMARK  5 active torsions:
REMARK  status: ('A' for Active; 'I' for Inactive)
REMARK    1  A    between atoms: N_4  and  C_24
REMARK    2  A    between atoms: N_5  and  C_16
REMARK    3  A    between atoms: C_9  and  C_15
REMARK    4  A    between atoms: C_10  and  C_16
REMARK    5  A    between atoms: C_18  and  C_19
REMARK                            x       y       z     vdW  Elec       q    Type
REMARK                         _______ _______ _______ _____ _____    ______ ____
ROOT
ATOM      3  N   UNL     1      -1.860   4.701  26.023  0.00  0.00    -0.297 NA
ATOM      8  C   UNL     1      -2.895   3.852  23.790  0.00  0.00    +0.002 C 
ATOM      9  C   UNL     1      -3.700   3.310  25.004  0.00  0.00    +0.055 C 
ATOM     10  C   UNL     1      -0.799   4.119  25.160  0.00  0.00    +0.074 C 
ATOM     11  C   UNL     1      -1.418   3.426  23.928  0.00  0.00    +0.024 C 
ATOM     12  C   UNL     1      -2.911   3.689  26.290  0.00  0.00    +0.094 C 
ATOM     13  C   UNL     1      -2.935   5.393  23.881  0.00  0.00    +0.019 C 
ATOM     14  C   UNL     1      -2.480   5.828  25.285  0.00  0.00    +0.085 C 
ENDROOT
BRANCH   9  15
ATOM      4  N   UNL     1      -5.424   1.448  24.945  0.00  0.00    -0.271 N 
ATOM      6  N   UNL     1      -5.582   0.113  24.943  0.00  0.00    -0.176 NA
ATOM     15  C   UNL     1      -4.121   1.847  24.993  0.00  0.00    +0.044 A 
ATOM     17  C   UNL     1      -3.375   0.695  25.024  0.00  0.00    +0.048 A 
ATOM     19  C   UNL     1      -4.327  -0.341  24.991  0.00  0.00    +0.066 A 
ATOM     24  C   UNL     1      -6.591   2.296  24.901  0.00  0.00    +0.172 C 
BRANCH  19  18
ATOM     18  C   UNL     1      -4.068  -1.832  25.005  0.00  0.00    +0.040 C 
ATOM     20  C   UNL     1      -4.163  -2.459  23.602  0.00  0.00    +0.010 C 
ATOM     21  C   UNL     1      -2.682  -2.235  25.550  0.00  0.00    +0.010 C 
ATOM     22  C   UNL     1      -3.103  -3.550  23.594  0.00  0.00    +0.001 C 
ATOM     23  C   UNL     1      -1.970  -2.933  24.395  0.00  0.00    +0.001 C 
ENDBRANCH  19  18
ENDBRANCH   9  15
BRANCH  10  16
ATOM     16  C   UNL     1       0.132   3.183  25.933  0.00  0.00    +0.124 C 
BRANCH  16   5
ATOM      1  O   UNL     1      -0.675   0.882  24.529  0.00  0.00    -0.253 OA
ATOM      2  O   UNL     1       2.922  -0.359  21.366  0.00  0.00    -0.377 OA
ATOM      5  N   UNL     1       0.958   2.415  25.029  0.00  0.00    -0.298 N 
ATOM      7  N   UNL     1       1.405   0.642  23.531  0.00  0.00    -0.281 N 
ATOM     25  C   UNL     1       0.482   1.286  24.371  0.00  0.00    +0.302 C 
ATOM     26  C   UNL     1       0.991  -0.561  22.804  0.00  0.00    +0.137 C 
ATOM     27  C   UNL     1       2.835   0.963  23.403  0.00  0.00    +0.137 C 
ATOM     28  C   UNL     1       1.505  -0.537  21.372  0.00  0.00    +0.179 C 
ATOM     29  C   UNL     1       3.278   0.896  21.946  0.00  0.00    +0.179 C 
ATOM     30  H   UNL     1       1.923   2.704  24.955  0.00  0.00    +0.150 HD
ENDBRANCH  16   5
ENDBRANCH  10  16
TORSDOF 4
ENDMDL
MODEL 3
REMARK VINA RESULT:       2.6      2.320      5.057
REMARK  Name = 40779423
REMARK  5 active torsions:
REMARK  status: ('A' for Active; 'I' for Inactive)
REMARK    1  A    between atoms: N_4  and  C_24
REMARK    2  A    between atoms: N_5  and  C_16
REMARK    3  A    between atoms: C_9  and  C_15
REMARK    4  A    between atoms: C_10  and  C_16
REMARK    5  A    between atoms: C_18  and  C_19
REMARK                            x       y       z     vdW  Elec       q    Type
REMARK                         _______ _______ _______ _____ _____    ______ ____
ROOT
ATOM      3  N   UNL     1      -3.590  -0.675  25.523  0.00  0.00    -0.297 NA
ATOM      8  C   UNL     1      -1.921  -2.540  24.803  0.00  0.00    +0.002 C 
ATOM      9  C   UNL     1      -1.153  -1.269  25.258  0.00  0.00    +0.055 C 
ATOM     10  C   UNL     1      -3.974  -1.215  24.193  0.00  0.00    +0.074 C 
ATOM     11  C   UNL     1      -2.887  -2.170  23.657  0.00  0.00    +0.024 C 
ATOM     12  C   UNL     1      -2.205  -0.144  25.477  0.00  0.00    +0.094 C 
ATOM     13  C   UNL     1      -2.788  -2.989  26.000  0.00  0.00    +0.019 C 
ATOM     14  C   UNL     1      -3.623  -1.795  26.495  0.00  0.00    +0.085 C 
ENDROOT
BRANCH   9  15
ATOM      4  N   UNL     1      -0.035   0.278  23.586  0.00  0.00    -0.271 N 
ATOM      6  N   UNL     1       1.114   0.525  22.932  0.00  0.00    -0.176 NA
ATOM     15  C   UNL     1       0.026  -0.801  24.417  0.00  0.00    +0.044 A 
ATOM     17  C   UNL     1       1.302  -1.295  24.299  0.00  0.00    +0.048 A 
ATOM     19  C   UNL     1       1.926  -0.439  23.373  0.00  0.00    +0.066 A 
ATOM     24  C   UNL     1      -1.174   1.136  23.358  0.00  0.00    +0.172 C 
BRANCH  19  18
ATOM     18  C   UNL     1       3.350  -0.512  22.864  0.00  0.00    +0.040 C 
ATOM     20  C   UNL     1       4.061   0.853  22.907  0.00  0.00    +0.010 C 
ATOM     21  C   UNL     1       4.259  -1.482  23.646  0.00  0.00    +0.010 C 
ATOM     22  C   UNL     1       5.505   0.525  23.257  0.00  0.00    +0.001 C 
ATOM     23  C   UNL     1       5.366  -0.620  24.244  0.00  0.00    +0.001 C 
ENDBRANCH  19  18
ENDBRANCH   9  15
BRANCH  10  16
ATOM     16  C   UNL     1      -4.306  -0.108  23.189  0.00  0.00    +0.124 C 
BRANCH  16   5
ATOM      1  O   UNL     1      -5.684   1.691  24.858  0.00  0.00    -0.253 OA
ATOM      2  O   UNL     1      -2.590   5.345  26.105  0.00  0.00    -0.377 OA
ATOM      5  N   UNL     1      -3.807   1.169  23.646  0.00  0.00    -0.298 N 
ATOM      7  N   UNL     1      -3.935   3.214  24.825  0.00  0.00    -0.281 N 
ATOM     25  C   UNL     1      -4.553   2.002  24.473  0.00  0.00    +0.302 C 
ATOM     26  C   UNL     1      -4.652   4.156  25.688  0.00  0.00    +0.137 C 
ATOM     27  C   UNL     1      -2.664   3.728  24.293  0.00  0.00    +0.137 C 
ATOM     28  C   UNL     1      -3.724   4.749  26.737  0.00  0.00    +0.179 C 
ATOM     29  C   UNL     1      -1.830   4.365  25.398  0.00  0.00    +0.179 C 
ATOM     30  H   UNL     1      -2.913   1.454  23.273  0.00  0.00    +0.150 HD
ENDBRANCH  16   5
ENDBRANCH  10  16
TORSDOF 4
ENDMDL
MODEL 4
REMARK VINA RESULT:       2.9      2.437      6.151
REMARK  Name = 40779423
REMARK  5 active torsions:
REMARK  status: ('A' for Active; 'I' for Inactive)
REMARK    1  A    between atoms: N_4  and  C_24
REMARK    2  A    between atoms: N_5  and  C_16
REMARK    3  A    between atoms: C_9  and  C_15
REMARK    4  A    between atoms: C_10  and  C_16
REMARK    5  A    between atoms: C_18  and  C_19
REMARK                            x       y       z     vdW  Elec       q    Type
REMARK                         _______ _______ _______ _____ _____    ______ ____
ROOT
ATOM      3  N   UNL     1      -2.632  -1.968  23.713  0.00  0.00    -0.297 NA
ATOM      8  C   UNL     1      -2.646  -0.968  26.118  0.00  0.00    +0.002 C 
ATOM      9  C   UNL     1      -3.736  -0.292  25.241  0.00  0.00    +0.055 C 
ATOM     10  C   UNL     1      -1.254  -1.577  24.110  0.00  0.00    +0.074 C 
ATOM     11  C   UNL     1      -1.269  -0.797  25.441  0.00  0.00    +0.024 C 
ATOM     12  C   UNL     1      -3.533  -0.791  23.782  0.00  0.00    +0.094 C 
ATOM     13  C   UNL     1      -2.960  -2.480  26.132  0.00  0.00    +0.019 C 
ATOM     14  C   UNL     1      -3.116  -2.978  24.685  0.00  0.00    +0.085 C 
ENDROOT
BRANCH   9  15
ATOM      4  N   UNL     1      -5.094   1.846  25.411  0.00  0.00    -0.271 N 
ATOM      6  N   UNL     1      -5.009   3.186  25.469  0.00  0.00    -0.176 NA
ATOM     15  C   UNL     1      -3.885   1.221  25.319  0.00  0.00    +0.044 A 
ATOM     17  C   UNL     1      -2.945   2.221  25.318  0.00  0.00    +0.048 A 
ATOM     19  C   UNL     1      -3.694   3.409  25.413  0.00  0.00    +0.066 A 
ATOM     24  C   UNL     1      -6.395   1.220  25.446  0.00  0.00    +0.172 C 
BRANCH  19  18
ATOM     18  C   UNL     1      -3.171   4.828  25.453  0.00  0.00    +0.040 C 
ATOM     20  C   UNL     1      -1.656   4.890  25.720  0.00  0.00    +0.010 C 
ATOM     21  C   UNL     1      -3.400   5.631  24.157  0.00  0.00    +0.010 C 
ATOM     22  C   UNL     1      -1.166   6.072  24.897  0.00  0.00    +0.001 C 
ATOM     23  C   UNL     1      -2.010   5.985  23.637  0.00  0.00    +0.001 C 
ENDBRANCH  19  18
ENDBRANCH   9  15
BRANCH  10  16
ATOM     16  C   UNL     1      -0.526  -0.808  23.005  0.00  0.00    +0.124 C 
BRANCH  16   5
ATOM      1  O   UNL     1       1.393   1.226  22.684  0.00  0.00    -0.253 OA
ATOM      2  O   UNL     1       5.821  -0.595  23.932  0.00  0.00    -0.377 OA
ATOM      5  N   UNL     1       0.906  -0.974  23.118  0.00  0.00    -0.298 N 
ATOM      7  N   UNL     1       3.150  -0.235  23.078  0.00  0.00    -0.281 N 
ATOM     25  C   UNL     1       1.789   0.086  22.945  0.00  0.00    +0.302 C 
ATOM     26  C   UNL     1       4.153   0.819  22.905  0.00  0.00    +0.137 C 
ATOM     27  C   UNL     1       3.714  -1.584  23.235  0.00  0.00    +0.137 C 
ATOM     28  C   UNL     1       5.245   0.712  23.958  0.00  0.00    +0.179 C 
ATOM     29  C   UNL     1       4.845  -1.585  24.257  0.00  0.00    +0.179 C 
ATOM     30  H   UNL     1       1.232  -1.919  23.260  0.00  0.00    +0.150 HD
ENDBRANCH  16   5
ENDBRANCH  10  16
TORSDOF 4
ENDMDL
MODEL 5
REMARK VINA RESULT:       3.2      2.424      3.338
REMARK  Name = 40779423
REMARK  5 active torsions:
REMARK  status: ('A' for Active; 'I' for Inactive)
REMARK    1  A    between atoms: N_4  and  C_24
REMARK    2  A    between atoms: N_5  and  C_16
REMARK    3  A    between atoms: C_9  and  C_15
REMARK    4  A    between atoms: C_10  and  C_16
REMARK    5  A    between atoms: C_18  and  C_19
REMARK                            x       y       z     vdW  Elec       q    Type
REMARK                         _______ _______ _______ _____ _____    ______ ____
ROOT
ATOM      3  N   UNL     1      -4.231   2.195  23.417  0.00  0.00    -0.297 NA
ATOM      8  C   UNL     1      -3.175   4.334  24.463  0.00  0.00    +0.002 C 
ATOM      9  C   UNL     1      -2.081   3.266  24.188  0.00  0.00    +0.055 C 
ATOM     10  C   UNL     1      -4.987   2.593  24.634  0.00  0.00    +0.074 C 
ATOM     11  C   UNL     1      -4.258   3.729  25.381  0.00  0.00    +0.024 C 
ATOM     12  C   UNL     1      -2.807   1.958  23.758  0.00  0.00    +0.094 C 
ATOM     13  C   UNL     1      -3.849   4.641  23.107  0.00  0.00    +0.019 C 
ATOM     14  C   UNL     1      -4.295   3.321  22.454  0.00  0.00    +0.085 C 
ENDROOT
BRANCH   9  15
ATOM      4  N   UNL     1       0.049   2.207  25.074  0.00  0.00    -0.271 N 
ATOM      6  N   UNL     1       0.857   2.123  26.145  0.00  0.00    -0.176 NA
ATOM     15  C   UNL     1      -1.031   3.018  25.262  0.00  0.00    +0.044 A 
ATOM     17  C   UNL     1      -0.923   3.498  26.544  0.00  0.00    +0.048 A 
ATOM     19  C   UNL     1       0.258   2.914  27.039  0.00  0.00    +0.066 A 
ATOM     24  C   UNL     1       0.380   1.465  23.881  0.00  0.00    +0.172 C 
BRANCH  19  18
ATOM     18  C   UNL     1       0.870   3.093  28.411  0.00  0.00    +0.040 C 
ATOM     20  C   UNL     1       0.786   1.815  29.265  0.00  0.00    +0.010 C 
ATOM     21  C   UNL     1       2.360   3.491  28.400  0.00  0.00    +0.010 C 
ATOM     22  C   UNL     1       2.072   1.808  30.077  0.00  0.00    +0.001 C 
ATOM     23  C   UNL     1       3.098   2.355  29.100  0.00  0.00    +0.001 C 
ENDBRANCH  19  18
ENDBRANCH   9  15
BRANCH  10  16
ATOM     16  C   UNL     1      -5.282   1.404  25.551  0.00  0.00    +0.124 C 
BRANCH  16   5
ATOM      1  O   UNL     1      -4.952  -1.071  24.251  0.00  0.00    -0.253 OA
ATOM      2  O   UNL     1      -0.328  -2.644  25.041  0.00  0.00    -0.377 OA
ATOM      5  N   UNL     1      -4.128   0.540  25.663  0.00  0.00    -0.298 N 
ATOM      7  N   UNL     1      -2.861  -1.401  25.201  0.00  0.00    -0.281 N 
ATOM     25  C   UNL     1      -4.042  -0.671  24.985  0.00  0.00    +0.302 C 
ATOM     26  C   UNL     1      -2.689  -2.694  24.532  0.00  0.00    +0.137 C 
ATOM     27  C   UNL     1      -1.803  -1.076  26.168  0.00  0.00    +0.137 C 
ATOM     28  C   UNL     1      -1.275  -2.843  23.991  0.00  0.00    +0.179 C 
ATOM     29  C   UNL     1      -0.424  -1.320  25.566  0.00  0.00    +0.179 C 
ATOM     30  H   UNL     1      -3.417   0.833  26.317  0.00  0.00    +0.150 HD
ENDBRANCH  16   5
ENDBRANCH  10  16
TORSDOF 4
ENDMDL
MODEL 6
REMARK VINA RESULT:       3.9      1.988      5.508
REMARK  Name = 40779423
REMARK  5 active torsions:
REMARK  status: ('A' for Active; 'I' for Inactive)
REMARK    1  A    between atoms: N_4  and  C_24
REMARK    2  A    between atoms: N_5  and  C_16
REMARK    3  A    between atoms: C_9  and  C_15
REMARK    4  A    between atoms: C_10  and  C_16
REMARK    5  A    between atoms: C_18  and  C_19
REMARK                            x       y       z     vdW  Elec       q    Type
REMARK                         _______ _______ _______ _____ _____    ______ ____
ROOT
ATOM      3  N   UNL     1      -2.640  -2.205  23.626  0.00  0.00    -0.297 NA
ATOM      8  C   UNL     1      -4.668  -1.177  24.896  0.00  0.00    +0.002 C 
ATOM      9  C   UNL     1      -4.010  -0.115  23.972  0.00  0.00    +0.055 C 
ATOM     10  C   UNL     1      -2.534  -2.501  25.078  0.00  0.00    +0.074 C 
ATOM     11  C   UNL     1      -3.609  -1.730  25.873  0.00  0.00    +0.024 C 
ATOM     12  C   UNL     1      -2.700  -0.738  23.409  0.00  0.00    +0.094 C 
ATOM     13  C   UNL     1      -5.104  -2.347  23.988  0.00  0.00    +0.019 C 
ATOM     14  C   UNL     1      -3.907  -2.797  23.132  0.00  0.00    +0.085 C 
ENDROOT
BRANCH   9  15
ATOM      4  N   UNL     1      -4.808   2.075  24.977  0.00  0.00    -0.271 N 
ATOM      6  N   UNL     1      -4.405   3.275  25.429  0.00  0.00    -0.176 NA
ATOM     15  C   UNL     1      -3.791   1.285  24.528  0.00  0.00    +0.044 A 
ATOM     17  C   UNL     1      -2.643   2.019  24.698  0.00  0.00    +0.048 A 
ATOM     19  C   UNL     1      -3.081   3.234  25.256  0.00  0.00    +0.066 A 
ATOM     24  C   UNL     1      -6.214   1.748  25.004  0.00  0.00    +0.172 C 
BRANCH  19  18
ATOM     18  C   UNL     1      -2.235   4.425  25.652  0.00  0.00    +0.040 C 
ATOM     20  C   UNL     1      -0.747   4.230  25.309  0.00  0.00    +0.010 C 
ATOM     21  C   UNL     1      -2.647   5.752  24.984  0.00  0.00    +0.010 C 
ATOM     22  C   UNL     1      -0.259   5.613  24.907  0.00  0.00    +0.001 C 
ATOM     23  C   UNL     1      -1.445   6.190  24.154  0.00  0.00    +0.001 C 
ENDBRANCH  19  18
ENDBRANCH   9  15
BRANCH  10  16
ATOM     16  C   UNL     1      -1.128  -2.245  25.624  0.00  0.00    +0.124 C 
BRANCH  16   5
ATOM      1  O   UNL     1      -0.250   0.428  25.566  0.00  0.00    -0.253 OA
ATOM      2  O   UNL     1       3.049   0.909  21.910  0.00  0.00    -0.377 OA
ATOM      5  N   UNL     1      -0.281  -1.658  24.610  0.00  0.00    -0.298 N 
ATOM      7  N   UNL     1       0.928   0.101  23.595  0.00  0.00    -0.281 N 
ATOM     25  C   UNL     1       0.111  -0.324  24.655  0.00  0.00    +0.302 C 
ATOM     26  C   UNL     1       1.382   1.494  23.557  0.00  0.00    +0.137 C 
ATOM     27  C   UNL     1       1.276  -0.680  22.399  0.00  0.00    +0.137 C 
ATOM     28  C   UNL     1       2.846   1.580  23.154  0.00  0.00    +0.179 C 
ATOM     29  C   UNL     1       2.741  -0.481  22.027  0.00  0.00    +0.179 C 
ATOM     30  H   UNL     1      -0.046  -2.254  23.830  0.00  0.00    +0.150 HD
ENDBRANCH  16   5
ENDBRANCH  10  16
TORSDOF 4
ENDMDL
MODEL 7
REMARK VINA RESULT:       4.1      2.930      5.648
REMARK  Name = 40779423
REMARK  5 active torsions:
REMARK  status: ('A' for Active; 'I' for Inactive)
REMARK    1  A    between atoms: N_4  and  C_24
REMARK    2  A    between atoms: N_5  and  C_16
REMARK    3  A    between atoms: C_9  and  C_15
REMARK    4  A    between atoms: C_10  and  C_16
REMARK    5  A    between atoms: C_18  and  C_19
REMARK                            x       y       z     vdW  Elec       q    Type
REMARK                         _______ _______ _______ _____ _____    ______ ____
ROOT
ATOM      3  N   UNL     1      -3.956  -2.041  25.184  0.00  0.00    -0.297 NA
ATOM      8  C   UNL     1      -1.741  -1.594  23.890  0.00  0.00    +0.002 C 
ATOM      9  C   UNL     1      -1.563  -1.273  25.400  0.00  0.00    +0.055 C 
ATOM     10  C   UNL     1      -4.227  -1.202  23.987  0.00  0.00    +0.074 C 
ATOM     11  C   UNL     1      -2.907  -0.754  23.325  0.00  0.00    +0.024 C 
ATOM     12  C   UNL     1      -2.967  -1.369  26.063  0.00  0.00    +0.094 C 
ATOM     13  C   UNL     1      -2.162  -3.077  23.796  0.00  0.00    +0.019 C 
ATOM     14  C   UNL     1      -3.368  -3.320  24.719  0.00  0.00    +0.085 C 
ENDROOT
BRANCH   9  15
ATOM      4  N   UNL     1      -0.182   0.791  24.875  0.00  0.00    -0.271 N 
ATOM      6  N   UNL     1       0.402   1.874  25.416  0.00  0.00    -0.176 NA
ATOM     15  C   UNL     1      -0.829   0.004  25.782  0.00  0.00    +0.044 A 
ATOM     17  C   UNL     1      -0.657   0.614  27.000  0.00  0.00    +0.048 A 
ATOM     19  C   UNL     1       0.108   1.761  26.714  0.00  0.00    +0.066 A 
ATOM     24  C   UNL     1      -0.075   0.568  23.453  0.00  0.00    +0.172 C 
BRANCH  19  18
ATOM     18  C   UNL     1       0.596   2.810  27.688  0.00  0.00    +0.040 C 
ATOM     20  C   UNL     1       0.242   2.469  29.147  0.00  0.00    +0.010 C 
ATOM     21  C   UNL     1       2.122   3.038  27.671  0.00  0.00    +0.010 C 
ATOM     22  C   UNL     1       1.424   2.976  29.960  0.00  0.00    +0.001 C 
ATOM     23  C   UNL     1       2.612   2.666  29.067  0.00  0.00    +0.001 C 
ENDBRANCH  19  18
ENDBRANCH   9  15
BRANCH  10  16
ATOM     16  C   UNL     1      -5.138  -0.014  24.303  0.00  0.00    +0.124 C 
BRANCH  16   5
ATOM      1  O   UNL     1      -5.547   2.127  26.083  0.00  0.00    -0.253 OA
ATOM      2  O   UNL     1      -1.912   5.419  25.427  0.00  0.00    -0.377 OA
ATOM      5  N   UNL     1      -4.387   1.221  24.323  0.00  0.00    -0.298 N 
ATOM      7  N   UNL     1      -3.842   3.376  25.127  0.00  0.00    -0.281 N 
ATOM     25  C   UNL     1      -4.652   2.234  25.238  0.00  0.00    +0.302 C 
ATOM     26  C   UNL     1      -4.057   4.496  26.047  0.00  0.00    +0.137 C 
ATOM     27  C   UNL     1      -2.864   3.647  24.063  0.00  0.00    +0.137 C 
ATOM     28  C   UNL     1      -2.732   5.059  26.539  0.00  0.00    +0.179 C 
ATOM     29  C   UNL     1      -1.598   4.272  24.637  0.00  0.00    +0.179 C 
ATOM     30  H   UNL     1      -3.705   1.336  23.588  0.00  0.00    +0.150 HD
ENDBRANCH  16   5
ENDBRANCH  10  16
TORSDOF 4
ENDMDL
MODEL 8
REMARK VINA RESULT:       4.1      2.315      4.831
REMARK  Name = 40779423
REMARK  5 active torsions:
REMARK  status: ('A' for Active; 'I' for Inactive)
REMARK    1  A    between atoms: N_4  and  C_24
REMARK    2  A    between atoms: N_5  and  C_16
REMARK    3  A    between atoms: C_9  and  C_15
REMARK    4  A    between atoms: C_10  and  C_16
REMARK    5  A    between atoms: C_18  and  C_19
REMARK                            x       y       z     vdW  Elec       q    Type
REMARK                         _______ _______ _______ _____ _____    ______ ____
ROOT
ATOM      3  N   UNL     1      -4.024  -0.450  25.643  0.00  0.00    -0.297 NA
ATOM      8  C   UNL     1      -2.322  -2.127  24.609  0.00  0.00    +0.002 C 
ATOM      9  C   UNL     1      -1.577  -1.007  25.388  0.00  0.00    +0.055 C 
ATOM     10  C   UNL     1      -4.330  -0.662  24.204  0.00  0.00    +0.074 C 
ATOM     11  C   UNL     1      -3.216  -1.486  23.526  0.00  0.00    +0.024 C 
ATOM     12  C   UNL     1      -2.638   0.055  25.800  0.00  0.00    +0.094 C 
ATOM     13  C   UNL     1      -3.260  -2.824  25.618  0.00  0.00    +0.019 C 
ATOM     14  C   UNL     1      -4.119  -1.762  26.327  0.00  0.00    +0.085 C 
ENDROOT
BRANCH   9  15
ATOM      4  N   UNL     1       0.119   0.856  25.087  0.00  0.00    -0.271 N 
ATOM      6  N   UNL     1       1.216   1.228  24.404  0.00  0.00    -0.176 NA
ATOM     15  C   UNL     1      -0.349  -0.379  24.746  0.00  0.00    +0.044 A 
ATOM     17  C   UNL     1       0.500  -0.848  23.774  0.00  0.00    +0.048 A 
ATOM     19  C   UNL     1       1.443   0.183  23.604  0.00  0.00    +0.066 A 
ATOM     24  C   UNL     1      -0.438   1.755  26.069  0.00  0.00    +0.172 C 
BRANCH  19  18
ATOM     18  C   UNL     1       2.619   0.208  22.652  0.00  0.00    +0.040 C 
ATOM     20  C   UNL     1       3.413   1.524  22.733  0.00  0.00    +0.010 C 
ATOM     21  C   UNL     1       3.650  -0.916  22.881  0.00  0.00    +0.010 C 
ATOM     22  C   UNL     1       4.863   1.116  22.516  0.00  0.00    +0.001 C 
ATOM     23  C   UNL     1       4.956  -0.215  23.243  0.00  0.00    +0.001 C 
ENDBRANCH  19  18
ENDBRANCH   9  15
BRANCH  10  16
ATOM     16  C   UNL     1      -4.598   0.651  23.466  0.00  0.00    +0.124 C 
BRANCH  16   5
ATOM      1  O   UNL     1      -2.186   1.822  22.613  0.00  0.00    -0.253 OA
ATOM      2  O   UNL     1      -1.345   5.847  25.365  0.00  0.00    -0.377 OA
ATOM      5  N   UNL     1      -3.922   1.754  24.112  0.00  0.00    -0.298 N 
ATOM      7  N   UNL     1      -2.190   3.342  24.365  0.00  0.00    -0.281 N 
ATOM     25  C   UNL     1      -2.729   2.277  23.625  0.00  0.00    +0.302 C 
ATOM     26  C   UNL     1      -0.930   3.950  23.928  0.00  0.00    +0.137 C 
ATOM     27  C   UNL     1      -2.685   3.841  25.656  0.00  0.00    +0.137 C 
ATOM     28  C   UNL     1      -0.990   5.465  24.036  0.00  0.00    +0.179 C 
ATOM     29  C   UNL     1      -2.646   5.364  25.701  0.00  0.00    +0.179 C 
ATOM     30  H   UNL     1      -4.329   2.077  24.977  0.00  0.00    +0.150 HD
ENDBRANCH  16   5
ENDBRANCH  10  16
TORSDOF 4
ENDMDL
MODEL 9
REMARK VINA RESULT:       4.3      1.836      5.598
REMARK  Name = 40779423
REMARK  5 active torsions:
REMARK  status: ('A' for Active; 'I' for Inactive)
REMARK    1  A    between atoms: N_4  and  C_24
REMARK    2  A    between atoms: N_5  and  C_16
REMARK    3  A    between atoms: C_9  and  C_15
REMARK    4  A    between atoms: C_10  and  C_16
REMARK    5  A    between atoms: C_18  and  C_19
REMARK                            x       y       z     vdW  Elec       q    Type
REMARK                         _______ _______ _______ _____ _____    ______ ____
ROOT
ATOM      3  N   UNL     1      -3.451  -2.445  25.540  0.00  0.00    -0.297 NA
ATOM      8  C   UNL     1      -0.961  -2.259  24.800  0.00  0.00    +0.002 C 
ATOM      9  C   UNL     1      -1.332  -1.094  25.759  0.00  0.00    +0.055 C 
ATOM     10  C   UNL     1      -3.350  -2.557  24.061  0.00  0.00    +0.074 C 
ATOM     11  C   UNL     1      -1.915  -2.244  23.587  0.00  0.00    +0.024 C 
ATOM     12  C   UNL     1      -2.869  -1.158  25.993  0.00  0.00    +0.094 C 
ATOM     13  C   UNL     1      -1.225  -3.571  25.570  0.00  0.00    +0.019 C 
ATOM     14  C   UNL     1      -2.656  -3.547  26.135  0.00  0.00    +0.085 C 
ENDROOT
BRANCH   9  15
ATOM      4  N   UNL     1      -0.040   0.572  24.346  0.00  0.00    -0.271 N 
ATOM      6  N   UNL     1       0.260   1.875  24.203  0.00  0.00    -0.176 NA
ATOM     15  C   UNL     1      -0.859   0.308  25.404  0.00  0.00    +0.044 A 
ATOM     17  C   UNL     1      -1.112   1.522  25.996  0.00  0.00    +0.048 A 
ATOM     19  C   UNL     1      -0.397   2.449  25.214  0.00  0.00    +0.066 A 
ATOM     24  C   UNL     1       0.506  -0.384  23.412  0.00  0.00    +0.172 C 
BRANCH  19  18
ATOM     18  C   UNL     1      -0.315   3.948  25.407  0.00  0.00    +0.040 C 
ATOM     20  C   UNL     1      -0.180   4.707  24.075  0.00  0.00    +0.010 C 
ATOM     21  C   UNL     1      -1.534   4.568  26.120  0.00  0.00    +0.010 C 
ATOM     22  C   UNL     1      -0.968   5.992  24.280  0.00  0.00    +0.001 C 
ATOM     23  C   UNL     1      -2.151   5.538  25.117  0.00  0.00    +0.001 C 
ENDBRANCH  19  18
ENDBRANCH   9  15
BRANCH  10  16
ATOM     16  C   UNL     1      -4.390  -1.698  23.340  0.00  0.00    +0.124 C 
BRANCH  16   5
ATOM      1  O   UNL     1      -3.274   0.851  22.915  0.00  0.00    -0.253 OA
ATOM      2  O   UNL     1      -5.637   4.091  25.814  0.00  0.00    -0.377 OA
ATOM      5  N   UNL     1      -4.693  -0.507  24.101  0.00  0.00    -0.298 N 
ATOM      7  N   UNL     1      -4.489   1.781  24.659  0.00  0.00    -0.281 N 
ATOM     25  C   UNL     1      -4.097   0.719  23.827  0.00  0.00    +0.302 C 
ATOM     26  C   UNL     1      -3.905   3.108  24.446  0.00  0.00    +0.137 C 
ATOM     27  C   UNL     1      -5.340   1.680  25.854  0.00  0.00    +0.137 C 
ATOM     28  C   UNL     1      -4.964   4.194  24.558  0.00  0.00    +0.179 C 
ATOM     29  C   UNL     1      -6.322   2.843  25.921  0.00  0.00    +0.179 C 
ATOM     30  H   UNL     1      -5.311  -0.632  24.890  0.00  0.00    +0.150 HD
ENDBRANCH  16   5
ENDBRANCH  10  16
TORSDOF 4
ENDMDL
MODEL 10
REMARK VINA RESULT:       4.5      1.497      2.365
REMARK  Name = 40779423
REMARK  5 active torsions:
REMARK  status: ('A' for Active; 'I' for Inactive)
REMARK    1  A    between atoms: N_4  and  C_24
REMARK    2  A    between atoms: N_5  and  C_16
REMARK    3  A    between atoms: C_9  and  C_15
REMARK    4  A    between atoms: C_10  and  C_16
REMARK    5  A    between atoms: C_18  and  C_19
REMARK                            x       y       z     vdW  Elec       q    Type
REMARK                         _______ _______ _______ _____ _____    ______ ____
ROOT
ATOM      3  N   UNL     1      -3.393   4.154  24.363  0.00  0.00    -0.297 NA
ATOM      8  C   UNL     1      -0.974   3.994  25.316  0.00  0.00    +0.002 C 
ATOM      9  C   UNL     1      -1.009   3.515  23.839  0.00  0.00    +0.055 C 
ATOM     10  C   UNL     1      -3.406   3.442  25.667  0.00  0.00    +0.074 C 
ATOM     11  C   UNL     1      -1.968   3.155  26.148  0.00  0.00    +0.024 C 
ATOM     12  C   UNL     1      -2.503   3.448  23.408  0.00  0.00    +0.094 C 
ATOM     13  C   UNL     1      -1.491   5.450  25.325  0.00  0.00    +0.019 C 
ATOM     14  C   UNL     1      -2.842   5.511  24.591  0.00  0.00    +0.085 C 
ENDROOT
BRANCH   9  15
ATOM      4  N   UNL     1      -0.860   1.074  23.162  0.00  0.00    -0.271 N 
ATOM      6  N   UNL     1      -0.007   0.077  22.869  0.00  0.00    -0.176 NA
ATOM     15  C   UNL     1      -0.245   2.250  23.475  0.00  0.00    +0.044 A 
ATOM     17  C   UNL     1       1.103   2.007  23.380  0.00  0.00    +0.048 A 
ATOM     19  C   UNL     1       1.190   0.653  23.004  0.00  0.00    +0.066 A 
ATOM     24  C   UNL     1      -2.281   0.820  23.123  0.00  0.00    +0.172 C 
BRANCH  19  18
ATOM     18  C   UNL     1       2.445  -0.155  22.755  0.00  0.00    +0.040 C 
ATOM     20  C   UNL     1       3.551   0.670  22.073  0.00  0.00    +0.010 C 
ATOM     21  C   UNL     1       3.088  -0.746  24.026  0.00  0.00    +0.010 C 
ATOM     22  C   UNL     1       4.848   0.147  22.672  0.00  0.00    +0.001 C 
ATOM     23  C   UNL     1       4.474  -0.118  24.120  0.00  0.00    +0.001 C 
ENDBRANCH  19  18
ENDBRANCH   9  15
BRANCH  10  16
ATOM     16  C   UNL     1      -4.259   2.172  25.629  0.00  0.00    +0.124 C 
BRANCH  16   5
ATOM      1  O   UNL     1      -4.892  -0.349  24.549  0.00  0.00    -0.253 OA
ATOM      2  O   UNL     1      -0.929  -3.278  24.994  0.00  0.00    -0.377 OA
ATOM      5  N   UNL     1      -3.428   0.990  25.702  0.00  0.00    -0.298 N 
ATOM      7  N   UNL     1      -2.904  -1.279  25.299  0.00  0.00    -0.281 N 
ATOM     25  C   UNL     1      -3.815  -0.221  25.139  0.00  0.00    +0.302 C 
ATOM     26  C   UNL     1      -3.233  -2.594  24.745  0.00  0.00    +0.137 C 
ATOM     27  C   UNL     1      -1.679  -1.255  26.112  0.00  0.00    +0.137 C 
ATOM     28  C   UNL     1      -2.021  -3.223  24.075  0.00  0.00    +0.179 C 
ATOM     29  C   UNL     1      -0.537  -1.965  25.394  0.00  0.00    +0.179 C 
ATOM     30  H   UNL     1      -2.582   1.077  26.245  0.00  0.00    +0.150 HD
ENDBRANCH  16   5
ENDBRANCH  10  16
TORSDOF 4
ENDMDL
