MODEL 1
REMARK VINA RESULT:      -4.3      0.000      0.000
REMARK  Name = 51137064
REMARK  4 active torsions:
REMARK  status: ('A' for Active; 'I' for Inactive)
REMARK    1  A    between atoms: N_2  and  C_8
REMARK    2  A    between atoms: C_4  and  C_9
REMARK    3  A    between atoms: C_8  and  C_10
REMARK    4  A    between atoms: C_11  and  C_16
REMARK                            x       y       z     vdW  Elec       q    Type
REMARK                         _______ _______ _______ _____ _____    ______ ____
ROOT
ATOM      2  N   UNL     1      -4.636 -10.029  10.537  0.00  0.00    -0.297 NA
ATOM      4  C   UNL     1      -6.735  -9.900  11.575  0.00  0.00    +0.090 C 
ATOM      5  C   UNL     1      -5.410 -10.674  11.599  0.00  0.00    +0.097 C 
ATOM      6  C   UNL     1      -6.376  -8.533  10.969  0.00  0.00    +0.029 C 
ATOM      7  C   UNL     1      -4.876  -8.597  10.712  0.00  0.00    +0.085 C 
ENDROOT
BRANCH   4   9
ATOM      1  O   UNL     1      -6.572  -9.773  14.004  0.00  0.00    -0.439 OA
ATOM      3  N   UNL     1      -8.691  -9.839  13.204  0.00  0.00    -0.213 NA
ATOM      9  C   UNL     1      -7.406  -9.838  12.929  0.00  0.00    +0.201 A 
ATOM     12  C   UNL     1      -7.425  -9.728  15.069  0.00  0.00    +0.155 A 
ATOM     13  C   UNL     1      -8.721  -9.768  14.575  0.00  0.00    +0.110 A 
ATOM     17  C   UNL     1      -7.093  -9.655  16.416  0.00  0.00    +0.048 A 
ATOM     18  C   UNL     1      -9.792  -9.734  15.480  0.00  0.00    +0.031 A 
ATOM     21  C   UNL     1      -8.172  -9.621  17.305  0.00  0.00    +0.004 A 
ATOM     22  C   UNL     1      -9.496  -9.660  16.849  0.00  0.00    +0.002 A 
ENDBRANCH   4   9
BRANCH   2   8
ATOM      8  C   UNL     1      -3.222 -10.366  10.597  0.00  0.00    +0.119 C 
BRANCH   8  10
ATOM     10  C   UNL     1      -2.676 -10.245  11.995  0.00  0.00    -0.030 A 
ATOM     11  C   UNL     1      -1.458  -9.609  12.238  0.00  0.00    -0.046 A 
ATOM     14  C   UNL     1      -3.406 -10.781  13.056  0.00  0.00    +0.005 A 
ATOM     15  C   UNL     1      -0.972  -9.508  13.541  0.00  0.00    +0.003 A 
ATOM     16  C   UNL     1      -0.658  -9.027  11.118  0.00  0.00    +0.044 C 
ATOM     19  C   UNL     1      -2.919 -10.680  14.359  0.00  0.00    +0.000 A 
ATOM     20  C   UNL     1      -1.702 -10.043  14.602  0.00  0.00    +0.000 A 
ENDBRANCH   8  10
ENDBRANCH   2   8
TORSDOF 3
ENDMDL
MODEL 2
REMARK VINA RESULT:      -3.9     14.906     16.351
REMARK  Name = 51137064
REMARK  4 active torsions:
REMARK  status: ('A' for Active; 'I' for Inactive)
REMARK    1  A    between atoms: N_2  and  C_8
REMARK    2  A    between atoms: C_4  and  C_9
REMARK    3  A    between atoms: C_8  and  C_10
REMARK    4  A    between atoms: C_11  and  C_16
REMARK                            x       y       z     vdW  Elec       q    Type
REMARK                         _______ _______ _______ _____ _____    ______ ____
ROOT
ATOM      2  N   UNL     1       0.834  -0.486  23.798  0.00  0.00    -0.297 NA
ATOM      4  C   UNL     1      -0.956   0.169  25.164  0.00  0.00    +0.090 C 
ATOM      5  C   UNL     1       0.194   0.726  24.315  0.00  0.00    +0.097 C 
ATOM      6  C   UNL     1      -1.246  -1.218  24.565  0.00  0.00    +0.029 C 
ATOM      7  C   UNL     1      -0.273  -1.357  23.403  0.00  0.00    +0.085 C 
ENDROOT
BRANCH   4   9
ATOM      1  O   UNL     1      -3.370   0.506  25.104  0.00  0.00    -0.439 OA
ATOM      3  N   UNL     1      -2.159   2.404  25.370  0.00  0.00    -0.213 NA
ATOM      9  C   UNL     1      -2.148   1.098  25.221  0.00  0.00    +0.201 A 
ATOM     12  C   UNL     1      -4.242   1.553  25.188  0.00  0.00    +0.155 A 
ATOM     13  C   UNL     1      -3.497   2.713  25.352  0.00  0.00    +0.110 A 
ATOM     17  C   UNL     1      -5.629   1.505  25.127  0.00  0.00    +0.048 A 
ATOM     18  C   UNL     1      -4.169   3.939  25.465  0.00  0.00    +0.031 A 
ATOM     21  C   UNL     1      -6.283   2.736  25.242  0.00  0.00    +0.004 A 
ATOM     22  C   UNL     1      -5.570   3.930  25.407  0.00  0.00    +0.002 A 
ENDBRANCH   4   9
BRANCH   2   8
ATOM      8  C   UNL     1       1.743  -0.208  22.696  0.00  0.00    +0.119 C 
BRANCH   8  10
ATOM     10  C   UNL     1       3.184  -0.317  23.117  0.00  0.00    -0.030 A 
ATOM     11  C   UNL     1       4.052   0.768  22.991  0.00  0.00    -0.046 A 
ATOM     14  C   UNL     1       3.648  -1.524  23.638  0.00  0.00    +0.005 A 
ATOM     15  C   UNL     1       5.384   0.646  23.388  0.00  0.00    +0.003 A 
ATOM     16  C   UNL     1       3.579   2.071  22.435  0.00  0.00    +0.044 C 
ATOM     19  C   UNL     1       4.980  -1.647  24.035  0.00  0.00    +0.000 A 
ATOM     20  C   UNL     1       5.848  -0.562  23.910  0.00  0.00    +0.000 A 
ENDBRANCH   8  10
ENDBRANCH   2   8
TORSDOF 3
ENDMDL
MODEL 3
REMARK VINA RESULT:      -3.9     15.116     17.529
REMARK  Name = 51137064
REMARK  4 active torsions:
REMARK  status: ('A' for Active; 'I' for Inactive)
REMARK    1  A    between atoms: N_2  and  C_8
REMARK    2  A    between atoms: C_4  and  C_9
REMARK    3  A    between atoms: C_8  and  C_10
REMARK    4  A    between atoms: C_11  and  C_16
REMARK                            x       y       z     vdW  Elec       q    Type
REMARK                         _______ _______ _______ _____ _____    ______ ____
ROOT
ATOM      2  N   UNL     1      -2.681   0.149  24.050  0.00  0.00    -0.297 NA
ATOM      4  C   UNL     1      -0.570  -0.799  23.669  0.00  0.00    +0.090 C 
ATOM      5  C   UNL     1      -1.510   0.313  23.185  0.00  0.00    +0.097 C 
ATOM      6  C   UNL     1      -1.002  -1.070  25.121  0.00  0.00    +0.029 C 
ATOM      7  C   UNL     1      -2.133  -0.085  25.386  0.00  0.00    +0.085 C 
ENDROOT
BRANCH   4   9
ATOM      1  O   UNL     1       1.780  -1.401  23.902  0.00  0.00    -0.439 OA
ATOM      3  N   UNL     1       1.416   0.648  23.002  0.00  0.00    -0.213 NA
ATOM      9  C   UNL     1       0.891  -0.452  23.496  0.00  0.00    +0.201 A 
ATOM     12  C   UNL     1       2.995  -0.836  23.636  0.00  0.00    +0.155 A 
ATOM     13  C   UNL     1       2.768   0.417  23.085  0.00  0.00    +0.110 A 
ATOM     17  C   UNL     1       4.251  -1.386  23.861  0.00  0.00    +0.048 A 
ATOM     18  C   UNL     1       3.868   1.206  22.721  0.00  0.00    +0.031 A 
ATOM     21  C   UNL     1       5.337  -0.586  23.492  0.00  0.00    +0.004 A 
ATOM     22  C   UNL     1       5.152   0.684  22.933  0.00  0.00    +0.002 A 
ENDBRANCH   4   9
BRANCH   2   8
ATOM      8  C   UNL     1      -3.568   1.303  24.009  0.00  0.00    +0.119 C 
BRANCH   8  10
ATOM     10  C   UNL     1      -2.899   2.543  24.540  0.00  0.00    -0.030 A 
ATOM     11  C   UNL     1      -3.576   3.413  25.395  0.00  0.00    -0.046 A 
ATOM     14  C   UNL     1      -1.584   2.817  24.165  0.00  0.00    +0.005 A 
ATOM     15  C   UNL     1      -2.937   4.556  25.876  0.00  0.00    +0.003 A 
ATOM     16  C   UNL     1      -4.985   3.141  25.811  0.00  0.00    +0.044 C 
ATOM     19  C   UNL     1      -0.945   3.960  24.646  0.00  0.00    +0.000 A 
ATOM     20  C   UNL     1      -1.621   4.830  25.502  0.00  0.00    +0.000 A 
ENDBRANCH   8  10
ENDBRANCH   2   8
TORSDOF 3
ENDMDL
MODEL 4
REMARK VINA RESULT:      -3.7     15.350     17.700
REMARK  Name = 51137064
REMARK  4 active torsions:
REMARK  status: ('A' for Active; 'I' for Inactive)
REMARK    1  A    between atoms: N_2  and  C_8
REMARK    2  A    between atoms: C_4  and  C_9
REMARK    3  A    between atoms: C_8  and  C_10
REMARK    4  A    between atoms: C_11  and  C_16
REMARK                            x       y       z     vdW  Elec       q    Type
REMARK                         _______ _______ _______ _____ _____    ______ ____
ROOT
ATOM      2  N   UNL     1      -1.775   1.285  23.823  0.00  0.00    -0.297 NA
ATOM      4  C   UNL     1       0.095  -0.005  23.240  0.00  0.00    +0.090 C 
ATOM      5  C   UNL     1      -0.494   1.408  23.124  0.00  0.00    +0.097 C 
ATOM      6  C   UNL     1      -0.576  -0.605  24.487  0.00  0.00    +0.029 C 
ATOM      7  C   UNL     1      -1.477   0.500  25.021  0.00  0.00    +0.085 C 
ENDROOT
BRANCH   4   9
ATOM      1  O   UNL     1       2.189  -1.172  23.683  0.00  0.00    -0.439 OA
ATOM      3  N   UNL     1       2.434   0.955  22.938  0.00  0.00    -0.213 NA
ATOM      9  C   UNL     1       1.607  -0.013  23.266  0.00  0.00    +0.201 A 
ATOM     12  C   UNL     1       3.525  -0.903  23.609  0.00  0.00    +0.155 A 
ATOM     13  C   UNL     1       3.672   0.399  23.153  0.00  0.00    +0.110 A 
ATOM     17  C   UNL     1       4.577  -1.755  23.924  0.00  0.00    +0.048 A 
ATOM     18  C   UNL     1       4.964   0.918  22.990  0.00  0.00    +0.031 A 
ATOM     21  C   UNL     1       5.859  -1.221  23.756  0.00  0.00    +0.004 A 
ATOM     22  C   UNL     1       6.051   0.088  23.298  0.00  0.00    +0.002 A 
ENDBRANCH   4   9
BRANCH   2   8
ATOM      8  C   UNL     1      -2.361   2.579  24.139  0.00  0.00    +0.119 C 
BRANCH   8  10
ATOM     10  C   UNL     1      -3.739   2.440  24.732  0.00  0.00    -0.030 A 
ATOM     11  C   UNL     1      -4.182   3.310  25.728  0.00  0.00    -0.046 A 
ATOM     14  C   UNL     1      -4.574   1.423  24.271  0.00  0.00    +0.005 A 
ATOM     15  C   UNL     1      -5.462   3.163  26.263  0.00  0.00    +0.003 A 
ATOM     16  C   UNL     1      -3.305   4.406  26.238  0.00  0.00    +0.044 C 
ATOM     19  C   UNL     1      -5.854   1.276  24.806  0.00  0.00    +0.000 A 
ATOM     20  C   UNL     1      -6.298   2.146  25.802  0.00  0.00    +0.000 A 
ENDBRANCH   8  10
ENDBRANCH   2   8
TORSDOF 3
ENDMDL
MODEL 5
REMARK VINA RESULT:      -3.1     15.220     17.076
REMARK  Name = 51137064
REMARK  4 active torsions:
REMARK  status: ('A' for Active; 'I' for Inactive)
REMARK    1  A    between atoms: N_2  and  C_8
REMARK    2  A    between atoms: C_4  and  C_9
REMARK    3  A    between atoms: C_8  and  C_10
REMARK    4  A    between atoms: C_11  and  C_16
REMARK                            x       y       z     vdW  Elec       q    Type
REMARK                         _______ _______ _______ _____ _____    ______ ____
ROOT
ATOM      2  N   UNL     1      -4.809   3.808  25.361  0.00  0.00    -0.297 NA
ATOM      4  C   UNL     1      -5.139   1.641  24.527  0.00  0.00    +0.090 C 
ATOM      5  C   UNL     1      -4.128   2.795  24.552  0.00  0.00    +0.097 C 
ATOM      6  C   UNL     1      -5.988   1.840  25.794  0.00  0.00    +0.029 C 
ATOM      7  C   UNL     1      -5.398   3.067  26.476  0.00  0.00    +0.085 C 
ENDROOT
BRANCH   4   9
ATOM      1  O   UNL     1      -3.141   0.251  24.647  0.00  0.00    -0.439 OA
ATOM      3  N   UNL     1      -5.037  -0.867  24.106  0.00  0.00    -0.213 NA
ATOM      9  C   UNL     1      -4.482   0.285  24.409  0.00  0.00    +0.201 A 
ATOM     12  C   UNL     1      -2.819  -1.065  24.474  0.00  0.00    +0.155 A 
ATOM     13  C   UNL     1      -3.982  -1.746  24.144  0.00  0.00    +0.110 A 
ATOM     17  C   UNL     1      -1.566  -1.652  24.600  0.00  0.00    +0.048 A 
ATOM     18  C   UNL     1      -3.915  -3.128  23.914  0.00  0.00    +0.031 A 
ATOM     21  C   UNL     1      -1.517  -3.031  24.368  0.00  0.00    +0.004 A 
ATOM     22  C   UNL     1      -2.667  -3.756  24.032  0.00  0.00    +0.002 A 
ENDBRANCH   4   9
BRANCH   2   8
ATOM      8  C   UNL     1      -3.909   4.861  25.808  0.00  0.00    +0.119 C 
BRANCH   8  10
ATOM     10  C   UNL     1      -2.464   4.456  25.672  0.00  0.00    -0.030 A 
ATOM     11  C   UNL     1      -1.567   5.235  24.941  0.00  0.00    -0.046 A 
ATOM     14  C   UNL     1      -2.029   3.284  26.290  0.00  0.00    +0.005 A 
ATOM     15  C   UNL     1      -0.233   4.842  24.829  0.00  0.00    +0.003 A 
ATOM     16  C   UNL     1      -2.010   6.494  24.270  0.00  0.00    +0.044 C 
ATOM     19  C   UNL     1      -0.695   2.891  26.177  0.00  0.00    +0.000 A 
ATOM     20  C   UNL     1       0.203   3.670  25.447  0.00  0.00    +0.000 A 
ENDBRANCH   8  10
ENDBRANCH   2   8
TORSDOF 3
ENDMDL
MODEL 6
REMARK VINA RESULT:      -2.9     15.093     17.036
REMARK  Name = 51137064
REMARK  4 active torsions:
REMARK  status: ('A' for Active; 'I' for Inactive)
REMARK    1  A    between atoms: N_2  and  C_8
REMARK    2  A    between atoms: C_4  and  C_9
REMARK    3  A    between atoms: C_8  and  C_10
REMARK    4  A    between atoms: C_11  and  C_16
REMARK                            x       y       z     vdW  Elec       q    Type
REMARK                         _______ _______ _______ _____ _____    ______ ____
ROOT
ATOM      2  N   UNL     1      -0.405   3.400  25.202  0.00  0.00    -0.297 NA
ATOM      4  C   UNL     1      -0.314   1.057  25.239  0.00  0.00    +0.090 C 
ATOM      5  C   UNL     1      -1.186   2.248  25.657  0.00  0.00    +0.097 C 
ATOM      6  C   UNL     1       0.533   1.587  24.069  0.00  0.00    +0.029 C 
ATOM      7  C   UNL     1       0.078   3.026  23.872  0.00  0.00    +0.085 C 
ENDROOT
BRANCH   4   9
ATOM      1  O   UNL     1      -2.422   0.024  24.586  0.00  0.00    -0.439 OA
ATOM      3  N   UNL     1      -0.728  -1.438  24.947  0.00  0.00    -0.213 NA
ATOM      9  C   UNL     1      -1.120  -0.183  24.929  0.00  0.00    +0.201 A 
ATOM     12  C   UNL     1      -2.899  -1.236  24.365  0.00  0.00    +0.155 A 
ATOM     13  C   UNL     1      -1.860  -2.128  24.586  0.00  0.00    +0.110 A 
ATOM     17  C   UNL     1      -4.186  -1.599  23.985  0.00  0.00    +0.048 A 
ATOM     18  C   UNL     1      -2.098  -3.500  24.423  0.00  0.00    +0.031 A 
ATOM     21  C   UNL     1      -4.406  -2.971  23.826  0.00  0.00    +0.004 A 
ATOM     22  C   UNL     1      -3.385  -3.905  24.040  0.00  0.00    +0.002 A 
ENDBRANCH   4   9
BRANCH   2   8
ATOM      8  C   UNL     1      -1.186   4.628  25.183  0.00  0.00    +0.119 C 
BRANCH   8  10
ATOM     10  C   UNL     1      -2.661   4.357  25.319  0.00  0.00    -0.030 A 
ATOM     11  C   UNL     1      -3.391   3.815  24.262  0.00  0.00    -0.046 A 
ATOM     14  C   UNL     1      -3.295   4.656  26.524  0.00  0.00    +0.005 A 
ATOM     15  C   UNL     1      -4.757   3.571  24.410  0.00  0.00    +0.003 A 
ATOM     16  C   UNL     1      -2.733   3.486  22.961  0.00  0.00    +0.044 C 
ATOM     19  C   UNL     1      -4.661   4.413  26.673  0.00  0.00    +0.000 A 
ATOM     20  C   UNL     1      -5.392   3.870  25.615  0.00  0.00    +0.000 A 
ENDBRANCH   8  10
ENDBRANCH   2   8
TORSDOF 3
ENDMDL
MODEL 7
REMARK VINA RESULT:      -2.1     14.954     17.473
REMARK  Name = 51137064
REMARK  4 active torsions:
REMARK  status: ('A' for Active; 'I' for Inactive)
REMARK    1  A    between atoms: N_2  and  C_8
REMARK    2  A    between atoms: C_4  and  C_9
REMARK    3  A    between atoms: C_8  and  C_10
REMARK    4  A    between atoms: C_11  and  C_16
REMARK                            x       y       z     vdW  Elec       q    Type
REMARK                         _______ _______ _______ _____ _____    ______ ____
ROOT
ATOM      2  N   UNL     1      -1.915   0.962  23.856  0.00  0.00    -0.297 NA
ATOM      4  C   UNL     1      -0.090  -0.498  23.660  0.00  0.00    +0.090 C 
ATOM      5  C   UNL     1      -0.677   0.799  23.089  0.00  0.00    +0.097 C 
ATOM      6  C   UNL     1      -0.687  -0.607  25.073  0.00  0.00    +0.029 C 
ATOM      7  C   UNL     1      -1.549   0.638  25.235  0.00  0.00    +0.085 C 
ENDROOT
BRANCH   4   9
ATOM      1  O   UNL     1       2.023   0.559  23.060  0.00  0.00    -0.439 OA
ATOM      3  N   UNL     1       2.230  -1.488  24.013  0.00  0.00    -0.213 NA
ATOM      9  C   UNL     1       1.421  -0.535  23.604  0.00  0.00    +0.201 A 
ATOM     12  C   UNL     1       3.354   0.262  23.135  0.00  0.00    +0.155 A 
ATOM     13  C   UNL     1       3.476  -0.991  23.719  0.00  0.00    +0.110 A 
ATOM     17  C   UNL     1       4.420   1.047  22.715  0.00  0.00    +0.048 A 
ATOM     18  C   UNL     1       4.758  -1.527  23.910  0.00  0.00    +0.031 A 
ATOM     21  C   UNL     1       5.692   0.498  22.912  0.00  0.00    +0.004 A 
ATOM     22  C   UNL     1       5.859  -0.763  23.497  0.00  0.00    +0.002 A 
ENDBRANCH   4   9
BRANCH   2   8
ATOM      8  C   UNL     1      -2.475   2.299  23.730  0.00  0.00    +0.119 C 
BRANCH   8  10
ATOM     10  C   UNL     1      -3.779   2.432  24.471  0.00  0.00    -0.030 A 
ATOM     11  C   UNL     1      -4.641   1.344  24.608  0.00  0.00    -0.046 A 
ATOM     14  C   UNL     1      -4.120   3.667  25.023  0.00  0.00    +0.005 A 
ATOM     15  C   UNL     1      -5.844   1.490  25.299  0.00  0.00    +0.003 A 
ATOM     16  C   UNL     1      -4.297   0.013  24.025  0.00  0.00    +0.044 C 
ATOM     19  C   UNL     1      -5.323   3.813  25.714  0.00  0.00    +0.000 A 
ATOM     20  C   UNL     1      -6.185   2.725  25.852  0.00  0.00    +0.000 A 
ENDBRANCH   8  10
ENDBRANCH   2   8
TORSDOF 3
ENDMDL
MODEL 8
REMARK VINA RESULT:      -2.1     15.601     18.010
REMARK  Name = 51137064
REMARK  4 active torsions:
REMARK  status: ('A' for Active; 'I' for Inactive)
REMARK    1  A    between atoms: N_2  and  C_8
REMARK    2  A    between atoms: C_4  and  C_9
REMARK    3  A    between atoms: C_8  and  C_10
REMARK    4  A    between atoms: C_11  and  C_16
REMARK                            x       y       z     vdW  Elec       q    Type
REMARK                         _______ _______ _______ _____ _____    ______ ____
ROOT
ATOM      2  N   UNL     1      -2.549   4.380  25.843  0.00  0.00    -0.297 NA
ATOM      4  C   UNL     1      -0.611   3.097  25.525  0.00  0.00    +0.090 C 
ATOM      5  C   UNL     1      -2.143   3.014  25.504  0.00  0.00    +0.097 C 
ATOM      6  C   UNL     1      -0.298   4.579  25.255  0.00  0.00    +0.029 C 
ATOM      7  C   UNL     1      -1.656   5.241  25.068  0.00  0.00    +0.085 C 
ENDROOT
BRANCH   4   9
ATOM      1  O   UNL     1       1.376   2.315  24.350  0.00  0.00    -0.439 OA
ATOM      3  N   UNL     1      -0.502   1.118  23.927  0.00  0.00    -0.213 NA
ATOM      9  C   UNL     1       0.045   2.125  24.572  0.00  0.00    +0.201 A 
ATOM     12  C   UNL     1       1.699   1.321  23.472  0.00  0.00    +0.155 A 
ATOM     13  C   UNL     1       0.548   0.590  23.216  0.00  0.00    +0.110 A 
ATOM     17  C   UNL     1       2.944   1.056  22.915  0.00  0.00    +0.048 A 
ATOM     18  C   UNL     1       0.618  -0.498  22.334  0.00  0.00    +0.031 A 
ATOM     21  C   UNL     1       2.997  -0.032  22.038  0.00  0.00    +0.004 A 
ATOM     22  C   UNL     1       1.859  -0.796  21.752  0.00  0.00    +0.002 A 
ENDBRANCH   4   9
BRANCH   2   8
ATOM      8  C   UNL     1      -3.953   4.630  25.553  0.00  0.00    +0.119 C 
BRANCH   8  10
ATOM     10  C   UNL     1      -4.736   3.350  25.428  0.00  0.00    -0.030 A 
ATOM     11  C   UNL     1      -4.657   2.570  24.275  0.00  0.00    -0.046 A 
ATOM     14  C   UNL     1      -5.551   2.950  26.486  0.00  0.00    +0.005 A 
ATOM     15  C   UNL     1      -5.391   1.388  24.180  0.00  0.00    +0.003 A 
ATOM     16  C   UNL     1      -3.791   2.979  23.128  0.00  0.00    +0.044 C 
ATOM     19  C   UNL     1      -6.286   1.768  26.392  0.00  0.00    +0.000 A 
ATOM     20  C   UNL     1      -6.206   0.987  25.239  0.00  0.00    +0.000 A 
ENDBRANCH   8  10
ENDBRANCH   2   8
TORSDOF 3
ENDMDL
MODEL 9
REMARK VINA RESULT:      -1.3     15.387     16.461
REMARK  Name = 51137064
REMARK  4 active torsions:
REMARK  status: ('A' for Active; 'I' for Inactive)
REMARK    1  A    between atoms: N_2  and  C_8
REMARK    2  A    between atoms: C_4  and  C_9
REMARK    3  A    between atoms: C_8  and  C_10
REMARK    4  A    between atoms: C_11  and  C_16
REMARK                            x       y       z     vdW  Elec       q    Type
REMARK                         _______ _______ _______ _____ _____    ______ ____
ROOT
ATOM      2  N   UNL     1       1.108   1.068  23.156  0.00  0.00    -0.297 NA
ATOM      4  C   UNL     1      -0.780   2.317  23.765  0.00  0.00    +0.090 C 
ATOM      5  C   UNL     1      -0.326   1.153  22.874  0.00  0.00    +0.097 C 
ATOM      6  C   UNL     1       0.258   2.369  24.898  0.00  0.00    +0.029 C 
ATOM      7  C   UNL     1       1.218   1.223  24.606  0.00  0.00    +0.085 C 
ENDROOT
BRANCH   4   9
ATOM      1  O   UNL     1      -2.798   3.322  24.694  0.00  0.00    -0.439 OA
ATOM      3  N   UNL     1      -2.974   1.111  24.227  0.00  0.00    -0.213 NA
ATOM      9  C   UNL     1      -2.215   2.184  24.223  0.00  0.00    +0.201 A 
ATOM     12  C   UNL     1      -4.059   2.920  25.029  0.00  0.00    +0.155 A 
ATOM     13  C   UNL     1      -4.163   1.567  24.742  0.00  0.00    +0.110 A 
ATOM     17  C   UNL     1      -5.080   3.697  25.563  0.00  0.00    +0.048 A 
ATOM     18  C   UNL     1      -5.376   0.911  25.000  0.00  0.00    +0.031 A 
ATOM     21  C   UNL     1      -6.282   3.028  25.814  0.00  0.00    +0.004 A 
ATOM     22  C   UNL     1      -6.430   1.663  25.539  0.00  0.00    +0.002 A 
ENDBRANCH   4   9
BRANCH   2   8
ATOM      8  C   UNL     1       1.693  -0.179  22.685  0.00  0.00    +0.119 C 
BRANCH   8  10
ATOM     10  C   UNL     1       3.127  -0.325  23.123  0.00  0.00    -0.030 A 
ATOM     11  C   UNL     1       4.039   0.716  22.954  0.00  0.00    -0.046 A 
ATOM     14  C   UNL     1       3.537  -1.525  23.704  0.00  0.00    +0.005 A 
ATOM     15  C   UNL     1       5.362   0.559  23.367  0.00  0.00    +0.003 A 
ATOM     16  C   UNL     1       3.623   2.010  22.333  0.00  0.00    +0.044 C 
ATOM     19  C   UNL     1       4.861  -1.682  24.118  0.00  0.00    +0.000 A 
ATOM     20  C   UNL     1       5.773  -0.640  23.949  0.00  0.00    +0.000 A 
ENDBRANCH   8  10
ENDBRANCH   2   8
TORSDOF 3
ENDMDL
MODEL 10
REMARK VINA RESULT:      -1.3     14.789     16.430
REMARK  Name = 51137064
REMARK  4 active torsions:
REMARK  status: ('A' for Active; 'I' for Inactive)
REMARK    1  A    between atoms: N_2  and  C_8
REMARK    2  A    between atoms: C_4  and  C_9
REMARK    3  A    between atoms: C_8  and  C_10
REMARK    4  A    between atoms: C_11  and  C_16
REMARK                            x       y       z     vdW  Elec       q    Type
REMARK                         _______ _______ _______ _____ _____    ______ ____
ROOT
ATOM      2  N   UNL     1       0.020   0.343  23.650  0.00  0.00    -0.297 NA
ATOM      4  C   UNL     1      -1.385   2.214  23.492  0.00  0.00    +0.090 C 
ATOM      5  C   UNL     1      -1.400   0.680  23.520  0.00  0.00    +0.097 C 
ATOM      6  C   UNL     1      -0.088   2.604  24.221  0.00  0.00    +0.029 C 
ATOM      7  C   UNL     1       0.541   1.283  24.643  0.00  0.00    +0.085 C 
ENDROOT
BRANCH   4   9
ATOM      1  O   UNL     1      -3.604   1.945  24.466  0.00  0.00    -0.439 OA
ATOM      3  N   UNL     1      -2.933   4.097  24.226  0.00  0.00    -0.213 NA
ATOM      9  C   UNL     1      -2.644   2.825  24.065  0.00  0.00    +0.201 A 
ATOM     12  C   UNL     1      -4.603   2.751  24.929  0.00  0.00    +0.155 A 
ATOM     13  C   UNL     1      -4.190   4.067  24.781  0.00  0.00    +0.110 A 
ATOM     17  C   UNL     1      -5.827   2.361  25.460  0.00  0.00    +0.048 A 
ATOM     18  C   UNL     1      -5.050   5.098  25.188  0.00  0.00    +0.031 A 
ATOM     21  C   UNL     1      -6.672   3.401  25.861  0.00  0.00    +0.004 A 
ATOM     22  C   UNL     1      -6.294   4.742  25.729  0.00  0.00    +0.002 A 
ENDBRANCH   4   9
BRANCH   2   8
ATOM      8  C   UNL     1       0.228  -1.044  24.037  0.00  0.00    +0.119 C 
BRANCH   8  10
ATOM     10  C   UNL     1      -1.059  -1.711  24.446  0.00  0.00    -0.030 A 
ATOM     11  C   UNL     1      -1.688  -1.382  25.647  0.00  0.00    -0.046 A 
ATOM     14  C   UNL     1      -1.621  -2.671  23.605  0.00  0.00    +0.005 A 
ATOM     15  C   UNL     1      -2.880  -2.012  26.007  0.00  0.00    +0.003 A 
ATOM     16  C   UNL     1      -1.104  -0.358  26.565  0.00  0.00    +0.044 C 
ATOM     19  C   UNL     1      -2.813  -3.301  23.964  0.00  0.00    +0.000 A 
ATOM     20  C   UNL     1      -3.442  -2.972  25.165  0.00  0.00    +0.000 A 
ENDBRANCH   8  10
ENDBRANCH   2   8
TORSDOF 3
ENDMDL
