MODEL 1
REMARK VINA RESULT:      -3.1      0.000      0.000
REMARK  Name = 38030303
REMARK  10 active torsions:
REMARK  status: ('A' for Active; 'I' for Inactive)
REMARK    1  A    between atoms: N_2  and  C_11
REMARK    2  A    between atoms: N_3  and  C_23
REMARK    3  A    between atoms: C_6  and  C_10
REMARK    4  A    between atoms: C_7  and  C_11
REMARK    5  A    between atoms: C_9  and  C_14
REMARK    6  A    between atoms: C_10  and  C_15
REMARK    7  A    between atoms: C_10  and  C_16
REMARK    8  A    between atoms: C_13  and  C_19
REMARK    9  A    between atoms: C_14  and  C_22
REMARK   10  A    between atoms: C_24  and  C_25
REMARK                            x       y       z     vdW  Elec       q    Type
REMARK                         _______ _______ _______ _____ _____    ______ ____
ROOT
ATOM      6  C   UNL     1      16.292  -8.368  28.774  0.00  0.00    +0.000 C 
ATOM      7  C   UNL     1      15.973  -7.017  28.094  0.00  0.00    +0.029 C 
ATOM      8  C   UNL     1      15.897  -8.332  30.257  0.00  0.00    +0.012 C 
ATOM      9  C   UNL     1      14.410  -7.982  30.485  0.00  0.00    +0.024 C 
ATOM     12  C   UNL     1      14.619  -6.478  28.485  0.00  0.00    -0.023 C 
ATOM     13  C   UNL     1      13.901  -6.904  29.540  0.00  0.00    -0.073 C 
ATOM     19  C   UNL     1      12.521  -6.359  29.787  0.00  0.00    +0.039 C 
ENDROOT
BRANCH   6  10
ATOM     10  C   UNL     1      15.611  -9.535  28.046  0.00  0.00    -0.013 C 
ATOM     15  C   UNL     1      16.369  -9.880  26.768  0.00  0.00    +0.007 C 
ATOM     16  C   UNL     1      15.515 -10.750  28.963  0.00  0.00    +0.007 C 
ENDBRANCH   6  10
BRANCH   7  11
ATOM     11  C   UNL     1      17.041  -5.961  28.401  0.00  0.00    +0.092 C 
BRANCH  11   2
ATOM      2  N   UNL     1      17.396  -5.221  27.192  0.00  0.00    -0.299 NA
ATOM      3  N   UNL     1      16.756  -3.625  24.868  0.00  0.00    -0.303 NA
ATOM     17  C   UNL     1      16.760  -5.817  26.011  0.00  0.00    +0.100 C 
ATOM     18  C   UNL     1      17.021  -3.807  27.318  0.00  0.00    +0.100 C 
ATOM     20  C   UNL     1      17.130  -5.039  24.743  0.00  0.00    +0.099 C 
ATOM     21  C   UNL     1      17.391  -3.029  26.051  0.00  0.00    +0.099 C 
ATOM     23  C   UNL     1      17.112  -2.884  23.659  0.00  0.00    +0.105 C 
ENDBRANCH  11   2
ENDBRANCH   7  11
BRANCH   9  14
ATOM     14  C   UNL     1      14.214  -7.620  31.962  0.00  0.00    +0.105 C 
BRANCH  14  22
ATOM      1  O   UNL     1      11.883  -8.345  31.976  0.00  0.00    -0.420 OA
ATOM      4  N   UNL     1      12.209  -6.293  32.805  0.00  0.00    -0.112 NA
ATOM      5  N   UNL     1      10.856  -6.571  32.873  0.00  0.00    -0.107 NA
ATOM     22  C   UNL     1      12.768  -7.355  32.276  0.00  0.00    +0.218 A 
ATOM     24  C   UNL     1      10.713  -7.779  32.379  0.00  0.00    +0.248 A 
BRANCH  24  25
ATOM     25  C   UNL     1       9.536  -8.578  32.202  0.00  0.00    +0.038 A 
ATOM     26  C   UNL     1       8.287  -8.069  32.560  0.00  0.00    +0.013 A 
ATOM     27  C   UNL     1       9.638  -9.864  31.673  0.00  0.00    +0.013 A 
ATOM     28  C   UNL     1       7.142  -8.846  32.389  0.00  0.00    +0.001 A 
ATOM     29  C   UNL     1       8.493 -10.641  31.502  0.00  0.00    +0.001 A 
ATOM     30  C   UNL     1       7.244 -10.132  31.859  0.00  0.00    +0.000 A 
ENDBRANCH  24  25
ENDBRANCH  14  22
ENDBRANCH   9  14
TORSDOF 6
ENDMDL
MODEL 2
REMARK VINA RESULT:      -0.6     16.671     19.327
REMARK  Name = 38030303
REMARK  10 active torsions:
REMARK  status: ('A' for Active; 'I' for Inactive)
REMARK    1  A    between atoms: N_2  and  C_11
REMARK    2  A    between atoms: N_3  and  C_23
REMARK    3  A    between atoms: C_6  and  C_10
REMARK    4  A    between atoms: C_7  and  C_11
REMARK    5  A    between atoms: C_9  and  C_14
REMARK    6  A    between atoms: C_10  and  C_15
REMARK    7  A    between atoms: C_10  and  C_16
REMARK    8  A    between atoms: C_13  and  C_19
REMARK    9  A    between atoms: C_14  and  C_22
REMARK   10  A    between atoms: C_24  and  C_25
REMARK                            x       y       z     vdW  Elec       q    Type
REMARK                         _______ _______ _______ _____ _____    ______ ____
ROOT
ATOM      6  C   UNL     1      -1.388   3.574  24.457  0.00  0.00    +0.000 C 
ATOM      7  C   UNL     1      -0.968   2.680  25.646  0.00  0.00    +0.029 C 
ATOM      8  C   UNL     1      -2.914   3.733  24.414  0.00  0.00    +0.012 C 
ATOM      9  C   UNL     1      -3.505   4.306  25.721  0.00  0.00    +0.024 C 
ATOM     12  C   UNL     1      -1.710   3.019  26.915  0.00  0.00    -0.023 C 
ATOM     13  C   UNL     1      -2.836   3.753  26.970  0.00  0.00    -0.073 C 
ATOM     19  C   UNL     1      -3.446   4.106  28.299  0.00  0.00    +0.039 C 
ENDROOT
BRANCH   6  10
ATOM     10  C   UNL     1      -0.689   4.940  24.508  0.00  0.00    -0.013 C 
ATOM     15  C   UNL     1       0.114   5.175  23.233  0.00  0.00    +0.007 C 
ATOM     16  C   UNL     1      -1.710   6.052  24.717  0.00  0.00    +0.007 C 
ENDBRANCH   6  10
BRANCH   7  11
ATOM     11  C   UNL     1      -1.161   1.193  25.333  0.00  0.00    +0.092 C 
BRANCH  11   2
ATOM      2  N   UNL     1       0.021   0.649  24.665  0.00  0.00    -0.299 NA
ATOM      3  N   UNL     1       1.765   0.317  22.384  0.00  0.00    -0.303 NA
ATOM     17  C   UNL     1      -0.366  -0.193  23.527  0.00  0.00    +0.100 C 
ATOM     18  C   UNL     1       0.913   1.729  24.224  0.00  0.00    +0.100 C 
ATOM     20  C   UNL     1       0.872  -0.762  22.824  0.00  0.00    +0.099 C 
ATOM     21  C   UNL     1       2.151   1.161  23.522  0.00  0.00    +0.099 C 
ATOM     23  C   UNL     1       2.947  -0.227  21.717  0.00  0.00    +0.105 C 
ENDBRANCH  11   2
ENDBRANCH   7  11
BRANCH   9  14
ATOM     14  C   UNL     1      -5.023   4.084  25.710  0.00  0.00    +0.105 C 
BRANCH  14  22
ATOM      1  O   UNL     1      -4.388   1.749  25.391  0.00  0.00    -0.420 OA
ATOM      4  N   UNL     1      -6.499   2.212  24.813  0.00  0.00    -0.112 NA
ATOM      5  N   UNL     1      -6.278   0.866  24.582  0.00  0.00    -0.107 NA
ATOM     22  C   UNL     1      -5.370   2.685  25.284  0.00  0.00    +0.218 A 
ATOM     24  C   UNL     1      -5.034   0.642  24.933  0.00  0.00    +0.248 A 
BRANCH  24  25
ATOM     25  C   UNL     1      -4.264  -0.569  24.911  0.00  0.00    +0.038 A 
ATOM     26  C   UNL     1      -3.413  -0.872  25.973  0.00  0.00    +0.013 A 
ATOM     27  C   UNL     1      -4.367  -1.441  23.828  0.00  0.00    +0.013 A 
ATOM     28  C   UNL     1      -2.664  -2.049  25.952  0.00  0.00    +0.001 A 
ATOM     29  C   UNL     1      -3.619  -2.618  23.807  0.00  0.00    +0.001 A 
ATOM     30  C   UNL     1      -2.768  -2.922  24.869  0.00  0.00    +0.000 A 
ENDBRANCH  24  25
ENDBRANCH  14  22
ENDBRANCH   9  14
TORSDOF 6
ENDMDL
MODEL 3
REMARK VINA RESULT:      -0.5     15.910     19.501
REMARK  Name = 38030303
REMARK  10 active torsions:
REMARK  status: ('A' for Active; 'I' for Inactive)
REMARK    1  A    between atoms: N_2  and  C_11
REMARK    2  A    between atoms: N_3  and  C_23
REMARK    3  A    between atoms: C_6  and  C_10
REMARK    4  A    between atoms: C_7  and  C_11
REMARK    5  A    between atoms: C_9  and  C_14
REMARK    6  A    between atoms: C_10  and  C_15
REMARK    7  A    between atoms: C_10  and  C_16
REMARK    8  A    between atoms: C_13  and  C_19
REMARK    9  A    between atoms: C_14  and  C_22
REMARK   10  A    between atoms: C_24  and  C_25
REMARK                            x       y       z     vdW  Elec       q    Type
REMARK                         _______ _______ _______ _____ _____    ______ ____
ROOT
ATOM      6  C   UNL     1      -2.656   2.717  25.793  0.00  0.00    +0.000 C 
ATOM      7  C   UNL     1      -4.161   2.740  25.440  0.00  0.00    +0.029 C 
ATOM      8  C   UNL     1      -1.865   1.942  24.731  0.00  0.00    +0.012 C 
ATOM      9  C   UNL     1      -2.049   2.502  23.303  0.00  0.00    +0.024 C 
ATOM     12  C   UNL     1      -4.409   3.028  23.981  0.00  0.00    -0.023 C 
ATOM     13  C   UNL     1      -3.477   2.939  23.014  0.00  0.00    -0.073 C 
ATOM     19  C   UNL     1      -3.810   3.334  21.602  0.00  0.00    +0.039 C 
ENDROOT
BRANCH   6  10
ATOM     10  C   UNL     1      -2.101   4.138  25.972  0.00  0.00    -0.013 C 
ATOM     15  C   UNL     1      -0.950   4.385  25.003  0.00  0.00    +0.007 C 
ATOM     16  C   UNL     1      -3.207   5.169  25.775  0.00  0.00    +0.007 C 
ENDBRANCH   6  10
BRANCH   7  11
ATOM     11  C   UNL     1      -4.852   1.426  25.819  0.00  0.00    +0.092 C 
BRANCH  11   2
ATOM      2  N   UNL     1      -4.118   0.283  25.277  0.00  0.00    -0.299 NA
ATOM      3  N   UNL     1      -3.812  -2.525  24.664  0.00  0.00    -0.303 NA
ATOM     17  C   UNL     1      -3.833  -0.699  26.330  0.00  0.00    +0.100 C 
ATOM     18  C   UNL     1      -4.866  -0.343  24.180  0.00  0.00    +0.100 C 
ATOM     20  C   UNL     1      -3.065  -1.898  25.762  0.00  0.00    +0.099 C 
ATOM     21  C   UNL     1      -4.099  -1.542  23.612  0.00  0.00    +0.099 C 
ATOM     23  C   UNL     1      -3.078  -3.667  24.121  0.00  0.00    +0.105 C 
ENDBRANCH  11   2
ENDBRANCH   7  11
BRANCH   9  14
ATOM     14  C   UNL     1      -1.529   1.464  22.300  0.00  0.00    +0.105 C 
BRANCH  14  22
ATOM      1  O   UNL     1       0.786   0.810  22.713  0.00  0.00    -0.420 OA
ATOM      4  N   UNL     1      -0.728  -0.515  23.690  0.00  0.00    -0.112 NA
ATOM      5  N   UNL     1       0.529  -0.998  24.006  0.00  0.00    -0.107 NA
ATOM     22  C   UNL     1      -0.529   0.540  22.936  0.00  0.00    +0.218 A 
ATOM     24  C   UNL     1       1.381  -0.195  23.413  0.00  0.00    +0.248 A 
BRANCH  24  25
ATOM     25  C   UNL     1       2.815  -0.211  23.393  0.00  0.00    +0.038 A 
ATOM     26  C   UNL     1       3.518   0.915  22.962  0.00  0.00    +0.013 A 
ATOM     27  C   UNL     1       3.506  -1.350  23.803  0.00  0.00    +0.013 A 
ATOM     28  C   UNL     1       4.912   0.900  22.942  0.00  0.00    +0.001 A 
ATOM     29  C   UNL     1       4.900  -1.365  23.782  0.00  0.00    +0.001 A 
ATOM     30  C   UNL     1       5.604  -0.240  23.353  0.00  0.00    +0.000 A 
ENDBRANCH  24  25
ENDBRANCH  14  22
ENDBRANCH   9  14
TORSDOF 6
ENDMDL
MODEL 4
REMARK VINA RESULT:      -0.2     16.375     19.970
REMARK  Name = 38030303
REMARK  10 active torsions:
REMARK  status: ('A' for Active; 'I' for Inactive)
REMARK    1  A    between atoms: N_2  and  C_11
REMARK    2  A    between atoms: N_3  and  C_23
REMARK    3  A    between atoms: C_6  and  C_10
REMARK    4  A    between atoms: C_7  and  C_11
REMARK    5  A    between atoms: C_9  and  C_14
REMARK    6  A    between atoms: C_10  and  C_15
REMARK    7  A    between atoms: C_10  and  C_16
REMARK    8  A    between atoms: C_13  and  C_19
REMARK    9  A    between atoms: C_14  and  C_22
REMARK   10  A    between atoms: C_24  and  C_25
REMARK                            x       y       z     vdW  Elec       q    Type
REMARK                         _______ _______ _______ _____ _____    ______ ____
ROOT
ATOM      6  C   UNL     1      -4.993   2.451  26.180  0.00  0.00    +0.000 C 
ATOM      7  C   UNL     1      -4.753   1.205  25.297  0.00  0.00    +0.029 C 
ATOM      8  C   UNL     1      -3.789   3.400  26.112  0.00  0.00    +0.012 C 
ATOM      9  C   UNL     1      -3.445   3.848  24.674  0.00  0.00    +0.024 C 
ATOM     12  C   UNL     1      -4.164   1.553  23.953  0.00  0.00    -0.023 C 
ATOM     13  C   UNL     1      -3.587   2.730  23.652  0.00  0.00    -0.073 C 
ATOM     19  C   UNL     1      -3.110   3.004  22.252  0.00  0.00    +0.039 C 
ENDROOT
BRANCH   6  10
ATOM     10  C   UNL     1      -6.291   3.172  25.791  0.00  0.00    -0.013 C 
ATOM     15  C   UNL     1      -5.998   4.612  25.383  0.00  0.00    +0.007 C 
ATOM     16  C   UNL     1      -6.997   2.424  24.665  0.00  0.00    +0.007 C 
ENDBRANCH   6  10
BRANCH   7  11
ATOM     11  C   UNL     1      -3.849   0.182  25.994  0.00  0.00    +0.092 C 
BRANCH  11   2
ATOM      2  N   UNL     1      -3.204  -0.688  25.013  0.00  0.00    -0.299 NA
ATOM      3  N   UNL     1      -1.837  -3.110  24.223  0.00  0.00    -0.303 NA
ATOM     17  C   UNL     1      -1.798  -0.919  25.367  0.00  0.00    +0.100 C 
ATOM     18  C   UNL     1      -3.920  -1.964  24.897  0.00  0.00    +0.100 C 
ATOM     20  C   UNL     1      -1.121  -1.833  24.340  0.00  0.00    +0.099 C 
ATOM     21  C   UNL     1      -3.243  -2.878  23.870  0.00  0.00    +0.099 C 
ATOM     23  C   UNL     1      -1.192  -3.979  23.241  0.00  0.00    +0.105 C 
ENDBRANCH  11   2
ENDBRANCH   7  11
BRANCH   9  14
ATOM     14  C   UNL     1      -2.046   4.477  24.679  0.00  0.00    +0.105 C 
BRANCH  14  22
ATOM      1  O   UNL     1      -0.376   2.900  23.851  0.00  0.00    -0.420 OA
ATOM      4  N   UNL     1      -0.535   2.979  26.081  0.00  0.00    -0.112 NA
ATOM      5  N   UNL     1       0.439   2.053  25.755  0.00  0.00    -0.107 NA
ATOM     22  C   UNL     1      -0.982   3.447  24.940  0.00  0.00    +0.218 A 
ATOM     24  C   UNL     1       0.497   2.041  24.444  0.00  0.00    +0.248 A 
BRANCH  24  25
ATOM     25  C   UNL     1       1.325   1.276  23.556  0.00  0.00    +0.038 A 
ATOM     26  C   UNL     1       0.769   0.242  22.802  0.00  0.00    +0.013 A 
ATOM     27  C   UNL     1       2.685   1.565  23.447  0.00  0.00    +0.013 A 
ATOM     28  C   UNL     1       1.573  -0.502  21.939  0.00  0.00    +0.001 A 
ATOM     29  C   UNL     1       3.489   0.821  22.584  0.00  0.00    +0.001 A 
ATOM     30  C   UNL     1       2.933  -0.212  21.830  0.00  0.00    +0.000 A 
ENDBRANCH  24  25
ENDBRANCH  14  22
ENDBRANCH   9  14
TORSDOF 6
ENDMDL
MODEL 5
REMARK VINA RESULT:       0.8     15.676     19.044
REMARK  Name = 38030303
REMARK  10 active torsions:
REMARK  status: ('A' for Active; 'I' for Inactive)
REMARK    1  A    between atoms: N_2  and  C_11
REMARK    2  A    between atoms: N_3  and  C_23
REMARK    3  A    between atoms: C_6  and  C_10
REMARK    4  A    between atoms: C_7  and  C_11
REMARK    5  A    between atoms: C_9  and  C_14
REMARK    6  A    between atoms: C_10  and  C_15
REMARK    7  A    between atoms: C_10  and  C_16
REMARK    8  A    between atoms: C_13  and  C_19
REMARK    9  A    between atoms: C_14  and  C_22
REMARK   10  A    between atoms: C_24  and  C_25
REMARK                            x       y       z     vdW  Elec       q    Type
REMARK                         _______ _______ _______ _____ _____    ______ ____
ROOT
ATOM      6  C   UNL     1      -4.150  -0.710  24.143  0.00  0.00    +0.000 C 
ATOM      7  C   UNL     1      -4.432   0.288  25.289  0.00  0.00    +0.029 C 
ATOM      8  C   UNL     1      -3.116  -0.132  23.167  0.00  0.00    +0.012 C 
ATOM      9  C   UNL     1      -1.785   0.259  23.847  0.00  0.00    +0.024 C 
ATOM     12  C   UNL     1      -3.173   0.915  25.834  0.00  0.00    -0.023 C 
ATOM     13  C   UNL     1      -1.981   0.902  25.212  0.00  0.00    -0.073 C 
ATOM     19  C   UNL     1      -0.768   1.482  25.886  0.00  0.00    +0.039 C 
ENDROOT
BRANCH   6  10
ATOM     10  C   UNL     1      -3.698  -2.073  24.686  0.00  0.00    -0.013 C 
ATOM     15  C   UNL     1      -4.367  -3.203  23.910  0.00  0.00    +0.007 C 
ATOM     16  C   UNL     1      -2.180  -2.196  24.620  0.00  0.00    +0.007 C 
ENDBRANCH   6  10
BRANCH   7  11
ATOM     11  C   UNL     1      -5.397   1.395  24.851  0.00  0.00    +0.092 C 
BRANCH  11   2
ATOM      2  N   UNL     1      -4.744   2.702  24.911  0.00  0.00    -0.299 NA
ATOM      3  N   UNL     1      -2.421   4.414  25.072  0.00  0.00    -0.303 NA
ATOM     17  C   UNL     1      -3.994   2.852  26.164  0.00  0.00    +0.100 C 
ATOM     18  C   UNL     1      -3.857   2.894  23.757  0.00  0.00    +0.100 C 
ATOM     20  C   UNL     1      -3.307   4.220  26.227  0.00  0.00    +0.099 C 
ATOM     21  C   UNL     1      -3.170   4.263  23.819  0.00  0.00    +0.099 C 
ATOM     23  C   UNL     1      -1.768   5.721  25.131  0.00  0.00    +0.105 C 
ENDBRANCH  11   2
ENDBRANCH   7  11
BRANCH   9  14
ATOM     14  C   UNL     1      -0.984   1.141  22.882  0.00  0.00    +0.105 C 
BRANCH  14  22
ATOM      1  O   UNL     1       1.369   0.577  23.206  0.00  0.00    -0.420 OA
ATOM      4  N   UNL     1       0.472  -0.274  21.343  0.00  0.00    -0.112 NA
ATOM      5  N   UNL     1       1.796  -0.669  21.398  0.00  0.00    -0.107 NA
ATOM     22  C   UNL     1       0.268   0.450  22.417  0.00  0.00    +0.218 A 
ATOM     24  C   UNL     1       2.279  -0.149  22.502  0.00  0.00    +0.248 A 
BRANCH  24  25
ATOM     25  C   UNL     1       3.594  -0.228  23.070  0.00  0.00    +0.038 A 
ATOM     26  C   UNL     1       4.029  -1.417  23.657  0.00  0.00    +0.013 A 
ATOM     27  C   UNL     1       4.437   0.882  23.036  0.00  0.00    +0.013 A 
ATOM     28  C   UNL     1       5.307  -1.494  24.209  0.00  0.00    +0.001 A 
ATOM     29  C   UNL     1       5.715   0.805  23.588  0.00  0.00    +0.001 A 
ATOM     30  C   UNL     1       6.151  -0.383  24.175  0.00  0.00    +0.000 A 
ENDBRANCH  24  25
ENDBRANCH  14  22
ENDBRANCH   9  14
TORSDOF 6
ENDMDL
