MODEL 1
REMARK VINA RESULT:       8.9      0.000      0.000
REMARK  Name = 11883059
REMARK  12 active torsions:
REMARK  status: ('A' for Active; 'I' for Inactive)
REMARK    1  A    between atoms: O_3  and  C_16
REMARK    2  A    between atoms: O_4  and  C_21
REMARK    3  A    between atoms: O_7  and  C_29
REMARK    4  A    between atoms: O_7  and  C_33
REMARK    5  A    between atoms: N_9  and  C_27
REMARK    6  A    between atoms: C_11  and  C_19
REMARK    7  A    between atoms: C_13  and  C_21
REMARK    8  A    between atoms: C_13  and  C_22
REMARK    9  A    between atoms: C_14  and  C_24
REMARK   10  A    between atoms: C_24  and  C_25
REMARK   11  A    between atoms: C_27  and  C_29
REMARK   12  A    between atoms: C_28  and  C_30
REMARK                            x       y       z     vdW  Elec       q    Type
REMARK                         _______ _______ _______ _____ _____    ______ ____
ROOT
ATOM      1  S   UNL     1       0.225   2.133  25.758  0.00  0.00    -0.057 S 
ATOM      6  O   UNL     1       1.681  -0.216  22.012  0.00  0.00    -0.270 OA
ATOM      8  N   UNL     1      -0.511   1.089  23.508  0.00  0.00    -0.229 NA
ATOM     10  N   UNL     1       1.816   0.873  24.098  0.00  0.00    -0.261 N 
ATOM     11  C   UNL     1      -4.150   1.959  24.443  0.00  0.00    -0.019 C 
ATOM     12  C   UNL     1      -3.711   3.242  25.277  0.00  0.00    +0.011 C 
ATOM     13  C   UNL     1      -4.847   4.012  26.057  0.00  0.00    +0.021 C 
ATOM     14  C   UNL     1      -2.976   1.616  23.413  0.00  0.00    +0.054 C 
ATOM     15  C   UNL     1      -5.432   2.283  23.633  0.00  0.00    +0.010 C 
ATOM     16  C   UNL     1      -6.069   4.212  25.117  0.00  0.00    +0.123 C 
ATOM     17  C   UNL     1      -2.443   2.959  26.133  0.00  0.00    +0.049 C 
ATOM     18  C   UNL     1      -6.540   2.919  24.460  0.00  0.00    +0.032 C 
ATOM     19  C   UNL     1      -4.426   0.726  25.338  0.00  0.00    +0.012 C 
ATOM     20  C   UNL     1      -1.632   1.648  24.094  0.00  0.00    +0.058 A 
ATOM     22  C   UNL     1      -4.327   5.424  26.447  0.00  0.00    +0.016 C 
ATOM     23  C   UNL     1      -1.411   2.272  25.304  0.00  0.00    +0.015 A 
ATOM     26  C   UNL     1       0.522   1.277  24.299  0.00  0.00    +0.165 A 
ATOM     28  C   UNL     1       2.312   0.165  22.990  0.00  0.00    +0.250 C 
ATOM     40  H   UNL     1       2.452   1.170  24.830  0.00  0.00    +0.157 HD
ENDROOT
BRANCH  28  30
ATOM      2  F   UNL     1       7.825  -0.900  23.099  0.00  0.00    -0.205 F 
ATOM     30  C   UNL     1       3.772  -0.118  23.018  0.00  0.00    +0.037 A 
ATOM     31  C   UNL     1       4.659   0.733  22.360  0.00  0.00    +0.016 A 
ATOM     32  C   UNL     1       4.254  -1.233  23.705  0.00  0.00    +0.016 A 
ATOM     34  C   UNL     1       6.029   0.469  22.387  0.00  0.00    +0.039 A 
ATOM     35  C   UNL     1       5.624  -1.497  23.732  0.00  0.00    +0.039 A 
ATOM     36  C   UNL     1       6.511  -0.646  23.072  0.00  0.00    +0.123 A 
ENDBRANCH  28  30
BRANCH  16   3
ATOM      3  O   UNL     1      -7.162   4.789  25.830  0.00  0.00    -0.391 OA
ATOM     37  H   UNL     1      -6.802   5.471  26.422  0.00  0.00    +0.210 HD
ENDBRANCH  16   3
BRANCH  13  21
ATOM     21  C   UNL     1      -5.276   3.346  27.384  0.00  0.00    +0.165 C 
BRANCH  21   4
ATOM      4  O   UNL     1      -6.342   2.469  27.100  0.00  0.00    -0.394 OA
ATOM     38  H   UNL     1      -6.493   1.930  27.896  0.00  0.00    +0.209 HD
ENDBRANCH  21   4
ENDBRANCH  13  21
BRANCH  14  24
ATOM     24  C   UNL     1      -3.177   0.312  22.629  0.00  0.00    +0.106 C 
BRANCH  24  25
ATOM      5  O   UNL     1      -4.349  -1.309  23.990  0.00  0.00    -0.276 OA
ATOM      9  N   UNL     1      -2.036  -1.433  23.795  0.00  0.00    -0.313 N 
ATOM     25  C   UNL     1      -3.286  -0.887  23.541  0.00  0.00    +0.214 C 
ATOM     39  H   UNL     1      -1.215  -1.016  23.365  0.00  0.00    +0.149 HD
BRANCH   9  27
ATOM     27  C   UNL     1      -1.835  -2.589  24.639  0.00  0.00    +0.132 C 
BRANCH  27  29
ATOM     29  C   UNL     1      -0.481  -2.552  25.321  0.00  0.00    +0.178 C 
BRANCH  29   7
ATOM      7  O   UNL     1      -0.376  -1.369  26.102  0.00  0.00    -0.381 OA
ATOM     33  C   UNL     1      -1.622  -1.020  26.689  0.00  0.00    +0.194 C 
ENDBRANCH  29   7
ENDBRANCH  27  29
ENDBRANCH   9  27
ENDBRANCH  24  25
ENDBRANCH  14  24
TORSDOF 9
ENDMDL
