MODEL 1
REMARK VINA RESULT:       9.3      0.000      0.000
REMARK  Name = 75536090
REMARK  6 active torsions:
REMARK  status: ('A' for Active; 'I' for Inactive)
REMARK    1  A    between atoms: O_1  and  C_12
REMARK    2  A    between atoms: O_2  and  C_14
REMARK    3  A    between atoms: N_7  and  C_11
REMARK    4  A    between atoms: N_9  and  C_20
REMARK    5  A    between atoms: C_10  and  C_15
REMARK    6  A    between atoms: C_18  and  C_21
REMARK                            x       y       z     vdW  Elec       q    Type
REMARK                         _______ _______ _______ _____ _____    ______ ____
ROOT
ATOM     10  C   UNL     1      -2.269  -1.413  25.378  0.00  0.00    +0.046 C 
ATOM     11  C   UNL     1      -1.594  -1.886  24.070  0.00  0.00    +0.112 C 
ATOM     12  C   UNL     1      -1.719  -3.408  24.134  0.00  0.00    +0.164 C 
ATOM     13  C   UNL     1      -3.226  -2.558  25.797  0.00  0.00    +0.044 C 
ATOM     14  C   UNL     1      -3.119  -3.615  24.699  0.00  0.00    +0.145 C 
ENDROOT
BRANCH  10  15
ATOM      8  N   UNL     1      -2.728   2.348  25.212  0.00  0.00    -0.240 NA
ATOM     15  C   UNL     1      -2.935  -0.060  25.244  0.00  0.00    -0.024 A 
ATOM     16  C   UNL     1      -4.307   0.048  25.045  0.00  0.00    +0.009 A 
ATOM     17  C   UNL     1      -2.197   1.109  25.320  0.00  0.00    +0.116 A 
ATOM     19  C   UNL     1      -4.890   1.305  24.927  0.00  0.00    +0.044 A 
ATOM     20  C   UNL     1      -4.064   2.413  25.018  0.00  0.00    +0.121 A 
BRANCH  20   9
ATOM      4  O   UNL     1      -6.074   6.071  24.510  0.00  0.00    -0.377 OA
ATOM      9  N   UNL     1      -4.666   3.670  24.900  0.00  0.00    -0.311 N 
ATOM     22  C   UNL     1      -5.978   3.873  25.531  0.00  0.00    +0.134 C 
ATOM     23  C   UNL     1      -4.409   4.497  23.715  0.00  0.00    +0.134 C 
ATOM     24  C   UNL     1      -6.223   5.364  25.740  0.00  0.00    +0.178 C 
ATOM     25  C   UNL     1      -4.739   5.953  24.022  0.00  0.00    +0.178 C 
ENDBRANCH  20   9
ENDBRANCH  10  15
BRANCH  11   7
ATOM      3  O   UNL     1      -0.586   0.403  22.658  0.00  0.00    -0.270 OA
ATOM      7  N   UNL     1      -0.219  -1.462  23.987  0.00  0.00    -0.305 N 
ATOM     18  C   UNL     1       0.175  -0.336  23.277  0.00  0.00    +0.245 C 
ATOM     33  H   UNL     1       0.468  -2.043  24.455  0.00  0.00    +0.149 HD
BRANCH  18  21
ATOM      5  O   UNL     1       4.752  -1.792  23.975  0.00  0.00    -0.485 OA
ATOM      6  O   UNL     1       5.700   0.811  23.179  0.00  0.00    -0.485 OA
ATOM     21  C   UNL     1       1.633  -0.049  23.268  0.00  0.00    +0.040 A 
ATOM     26  C   UNL     1       2.542  -1.050  23.612  0.00  0.00    +0.062 A 
ATOM     27  C   UNL     1       2.090   1.222  22.919  0.00  0.00    +0.017 A 
ATOM     28  C   UNL     1       3.910  -0.775  23.609  0.00  0.00    +0.163 A 
ATOM     29  C   UNL     1       3.458   1.494  22.903  0.00  0.00    +0.050 A 
ATOM     30  C   UNL     1       4.369   0.490  23.233  0.00  0.00    +0.162 A 
ATOM     31  C   UNL     1       6.068  -1.315  24.270  0.00  0.00    +0.270 C 
ATOM     32  C   UNL     1       6.531  -0.353  23.192  0.00  0.00    +0.270 C 
ENDBRANCH  18  21
ENDBRANCH  11   7
BRANCH  12   1
ATOM      1  O   UNL     1      -1.586  -4.012  22.861  0.00  0.00    -0.387 OA
ATOM     34  H   UNL     1      -0.847  -4.641  22.914  0.00  0.00    +0.210 HD
ENDBRANCH  12   1
BRANCH  14   2
ATOM      2  O   UNL     1      -4.112  -3.351  23.712  0.00  0.00    -0.389 OA
ATOM     35  H   UNL     1      -4.841  -2.880  24.150  0.00  0.00    +0.210 HD
ENDBRANCH  14   2
TORSDOF 6
ENDMDL
