MODEL 1
REMARK VINA RESULT:       0.4      0.000      0.000
REMARK  Name = 51137411
REMARK  7 active torsions:
REMARK  status: ('A' for Active; 'I' for Inactive)
REMARK    1  A    between atoms: O_5  and  C_22
REMARK    2  A    between atoms: O_5  and  C_29
REMARK    3  A    between atoms: N_6  and  C_13
REMARK    4  A    between atoms: C_9  and  C_14
REMARK    5  A    between atoms: C_13  and  C_15
REMARK    6  A    between atoms: C_18  and  C_19
REMARK    7  A    between atoms: C_27  and  C_28
REMARK                            x       y       z     vdW  Elec       q    Type
REMARK                         _______ _______ _______ _____ _____    ______ ____
ROOT
ATOM      6  N   UNL     1      -3.106   5.257  25.593  0.00  0.00    -0.297 NA
ATOM      9  C   UNL     1      -4.896   3.761  25.359  0.00  0.00    +0.092 C 
ATOM     10  C   UNL     1      -4.667   4.061  26.851  0.00  0.00    +0.029 C 
ATOM     11  C   UNL     1      -3.617   4.247  24.664  0.00  0.00    +0.097 C 
ATOM     12  C   UNL     1      -3.271   4.667  26.920  0.00  0.00    +0.085 C 
ENDROOT
BRANCH   9  14
ATOM      4  O   UNL     1      -4.178   1.464  24.907  0.00  0.00    -0.420 OA
ATOM      7  N   UNL     1      -6.397   1.750  24.878  0.00  0.00    -0.112 NA
ATOM      8  N   UNL     1      -6.134   0.418  24.610  0.00  0.00    -0.107 NA
ATOM     14  C   UNL     1      -5.227   2.320  25.044  0.00  0.00    +0.222 A 
ATOM     18  C   UNL     1      -4.827   0.299  24.637  0.00  0.00    +0.248 A 
BRANCH  18  19
ATOM     19  C   UNL     1      -3.992  -0.850  24.430  0.00  0.00    +0.038 A 
ATOM     23  C   UNL     1      -2.682  -0.855  24.910  0.00  0.00    +0.013 A 
ATOM     24  C   UNL     1      -4.490  -1.960  23.749  0.00  0.00    +0.013 A 
ATOM     25  C   UNL     1      -1.871  -1.971  24.709  0.00  0.00    +0.004 A 
ATOM     26  C   UNL     1      -3.679  -3.076  23.548  0.00  0.00    +0.004 A 
ATOM     27  C   UNL     1      -2.369  -3.082  24.027  0.00  0.00    -0.050 A 
ATOM     28  C   UNL     1      -1.500  -4.275  23.812  0.00  0.00    +0.044 C 
ENDBRANCH  18  19
ENDBRANCH   9  14
BRANCH   6  13
ATOM     13  C   UNL     1      -1.723   5.618  25.314  0.00  0.00    +0.119 C 
BRANCH  13  15
ATOM     15  C   UNL     1      -0.895   4.416  24.945  0.00  0.00    -0.033 A 
ATOM     16  C   UNL     1      -0.795   3.339  25.827  0.00  0.00    +0.008 A 
ATOM     17  C   UNL     1      -0.225   4.379  23.721  0.00  0.00    +0.008 A 
ATOM     20  C   UNL     1      -0.027   2.226  25.485  0.00  0.00    +0.046 A 
ATOM     21  C   UNL     1       0.542   3.267  23.379  0.00  0.00    +0.046 A 
ATOM     22  C   UNL     1       0.641   2.190  24.261  0.00  0.00    +0.130 A 
BRANCH  22   5
ATOM      5  O   UNL     1       1.389   1.103  23.927  0.00  0.00    -0.406 OA
BRANCH   5  29
ATOM      1  F   UNL     1       0.724  -1.054  23.955  0.00  0.00    -0.133 F 
ATOM      2  F   UNL     1      -0.500   0.385  22.857  0.00  0.00    -0.133 F 
ATOM      3  F   UNL     1       1.471  -0.233  22.072  0.00  0.00    -0.133 F 
ATOM     29  C   UNL     1       0.768   0.058  23.187  0.00  0.00    +0.575 C 
ENDBRANCH   5  29
ENDBRANCH  22   5
ENDBRANCH  13  15
ENDBRANCH   6  13
TORSDOF 6
ENDMDL
MODEL 2
REMARK VINA RESULT:       0.7      3.003      7.264
REMARK  Name = 51137411
REMARK  7 active torsions:
REMARK  status: ('A' for Active; 'I' for Inactive)
REMARK    1  A    between atoms: O_5  and  C_22
REMARK    2  A    between atoms: O_5  and  C_29
REMARK    3  A    between atoms: N_6  and  C_13
REMARK    4  A    between atoms: C_9  and  C_14
REMARK    5  A    between atoms: C_13  and  C_15
REMARK    6  A    between atoms: C_18  and  C_19
REMARK    7  A    between atoms: C_27  and  C_28
REMARK                            x       y       z     vdW  Elec       q    Type
REMARK                         _______ _______ _______ _____ _____    ______ ____
ROOT
ATOM      6  N   UNL     1      -1.729  -3.000  24.426  0.00  0.00    -0.297 NA
ATOM      9  C   UNL     1       0.122  -1.656  23.911  0.00  0.00    +0.092 C 
ATOM     10  C   UNL     1       0.344  -2.339  25.272  0.00  0.00    +0.029 C 
ATOM     11  C   UNL     1      -1.379  -1.818  23.635  0.00  0.00    +0.097 C 
ATOM     12  C   UNL     1      -1.036  -2.819  25.701  0.00  0.00    +0.085 C 
ENDROOT
BRANCH   9  14
ATOM      4  O   UNL     1      -0.301   0.732  24.249  0.00  0.00    -0.420 OA
ATOM      7  N   UNL     1       1.731   0.272  23.433  0.00  0.00    -0.112 NA
ATOM      8  N   UNL     1       1.627   1.644  23.572  0.00  0.00    -0.107 NA
ATOM     14  C   UNL     1       0.583  -0.218  23.839  0.00  0.00    +0.222 A 
ATOM     18  C   UNL     1       0.425   1.866  24.052  0.00  0.00    +0.248 A 
BRANCH  18  19
ATOM     19  C   UNL     1      -0.229   3.096  24.393  0.00  0.00    +0.038 A 
ATOM     23  C   UNL     1      -1.082   3.149  25.496  0.00  0.00    +0.013 A 
ATOM     24  C   UNL     1      -0.012   4.238  23.623  0.00  0.00    +0.013 A 
ATOM     25  C   UNL     1      -1.718   4.345  25.828  0.00  0.00    +0.004 A 
ATOM     26  C   UNL     1      -0.648   5.434  23.955  0.00  0.00    +0.004 A 
ATOM     27  C   UNL     1      -1.501   5.488  25.058  0.00  0.00    -0.050 A 
ATOM     28  C   UNL     1      -2.182   6.766  25.413  0.00  0.00    +0.044 C 
ENDBRANCH  18  19
ENDBRANCH   9  14
BRANCH   6  13
ATOM     13  C   UNL     1      -3.168  -3.150  24.592  0.00  0.00    +0.119 C 
BRANCH  13  15
ATOM     15  C   UNL     1      -3.848  -1.823  24.798  0.00  0.00    -0.033 A 
ATOM     16  C   UNL     1      -4.664  -1.294  23.798  0.00  0.00    +0.008 A 
ATOM     17  C   UNL     1      -3.661  -1.121  25.990  0.00  0.00    +0.008 A 
ATOM     20  C   UNL     1      -5.293  -0.063  23.990  0.00  0.00    +0.046 A 
ATOM     21  C   UNL     1      -4.290   0.108  26.182  0.00  0.00    +0.046 A 
ATOM     22  C   UNL     1      -5.106   0.637  25.182  0.00  0.00    +0.130 A 
BRANCH  22   5
ATOM      5  O   UNL     1      -5.721   1.837  25.369  0.00  0.00    -0.406 OA
BRANCH   5  29
ATOM      1  F   UNL     1      -5.755   4.089  25.220  0.00  0.00    -0.133 F 
ATOM      2  F   UNL     1      -4.168   3.161  26.401  0.00  0.00    -0.133 F 
ATOM      3  F   UNL     1      -4.150   3.015  24.196  0.00  0.00    -0.133 F 
ATOM     29  C   UNL     1      -4.932   3.019  25.296  0.00  0.00    +0.575 C 
ENDBRANCH   5  29
ENDBRANCH  22   5
ENDBRANCH  13  15
ENDBRANCH   6  13
TORSDOF 6
ENDMDL
MODEL 3
REMARK VINA RESULT:       1.0      3.633      6.949
REMARK  Name = 51137411
REMARK  7 active torsions:
REMARK  status: ('A' for Active; 'I' for Inactive)
REMARK    1  A    between atoms: O_5  and  C_22
REMARK    2  A    between atoms: O_5  and  C_29
REMARK    3  A    between atoms: N_6  and  C_13
REMARK    4  A    between atoms: C_9  and  C_14
REMARK    5  A    between atoms: C_13  and  C_15
REMARK    6  A    between atoms: C_18  and  C_19
REMARK    7  A    between atoms: C_27  and  C_28
REMARK                            x       y       z     vdW  Elec       q    Type
REMARK                         _______ _______ _______ _____ _____    ______ ____
ROOT
ATOM      6  N   UNL     1      -3.645  -1.643  24.256  0.00  0.00    -0.297 NA
ATOM      9  C   UNL     1      -1.362  -1.471  23.747  0.00  0.00    +0.092 C 
ATOM     10  C   UNL     1      -1.535  -2.135  25.126  0.00  0.00    +0.029 C 
ATOM     11  C   UNL     1      -2.727  -0.837  23.448  0.00  0.00    +0.097 C 
ATOM     12  C   UNL     1      -2.966  -1.816  25.539  0.00  0.00    +0.085 C 
ENDROOT
BRANCH   9  14
ATOM      4  O   UNL     1       1.036  -1.005  23.575  0.00  0.00    -0.420 OA
ATOM      7  N   UNL     1      -0.249   0.827  23.642  0.00  0.00    -0.112 NA
ATOM      8  N   UNL     1       1.070   1.233  23.546  0.00  0.00    -0.107 NA
ATOM     14  C   UNL     1      -0.220  -0.485  23.656  0.00  0.00    +0.222 A 
ATOM     18  C   UNL     1       1.783   0.131  23.509  0.00  0.00    +0.248 A 
BRANCH  18  19
ATOM     19  C   UNL     1       3.202  -0.058  23.414  0.00  0.00    +0.038 A 
ATOM     23  C   UNL     1       4.009   0.967  22.917  0.00  0.00    +0.013 A 
ATOM     24  C   UNL     1       3.774  -1.264  23.816  0.00  0.00    +0.013 A 
ATOM     25  C   UNL     1       5.388   0.784  22.823  0.00  0.00    +0.004 A 
ATOM     26  C   UNL     1       5.154  -1.446  23.722  0.00  0.00    +0.004 A 
ATOM     27  C   UNL     1       5.961  -0.423  23.226  0.00  0.00    -0.050 A 
ATOM     28  C   UNL     1       7.436  -0.617  23.125  0.00  0.00    +0.044 C 
ENDBRANCH  18  19
ENDBRANCH   9  14
BRANCH   6  13
ATOM     13  C   UNL     1      -4.952  -1.018  24.399  0.00  0.00    +0.119 C 
BRANCH  13  15
ATOM     15  C   UNL     1      -4.840   0.456  24.684  0.00  0.00    -0.033 A 
ATOM     16  C   UNL     1      -5.644   1.041  25.661  0.00  0.00    +0.008 A 
ATOM     17  C   UNL     1      -3.931   1.236  23.967  0.00  0.00    +0.008 A 
ATOM     20  C   UNL     1      -5.539   2.408  25.924  0.00  0.00    +0.046 A 
ATOM     21  C   UNL     1      -3.826   2.601  24.230  0.00  0.00    +0.046 A 
ATOM     22  C   UNL     1      -4.630   3.187  25.208  0.00  0.00    +0.130 A 
BRANCH  22   5
ATOM      5  O   UNL     1      -4.528   4.520  25.465  0.00  0.00    -0.406 OA
BRANCH   5  29
ATOM      1  F   UNL     1      -2.811   4.015  26.841  0.00  0.00    -0.133 F 
ATOM      2  F   UNL     1      -2.415   5.336  25.147  0.00  0.00    -0.133 F 
ATOM      3  F   UNL     1      -3.589   6.057  26.876  0.00  0.00    -0.133 F 
ATOM     29  C   UNL     1      -3.335   4.999  26.077  0.00  0.00    +0.575 C 
ENDBRANCH   5  29
ENDBRANCH  22   5
ENDBRANCH  13  15
ENDBRANCH   6  13
TORSDOF 6
ENDMDL
MODEL 4
REMARK VINA RESULT:       1.3      2.760      5.353
REMARK  Name = 51137411
REMARK  7 active torsions:
REMARK  status: ('A' for Active; 'I' for Inactive)
REMARK    1  A    between atoms: O_5  and  C_22
REMARK    2  A    between atoms: O_5  and  C_29
REMARK    3  A    between atoms: N_6  and  C_13
REMARK    4  A    between atoms: C_9  and  C_14
REMARK    5  A    between atoms: C_13  and  C_15
REMARK    6  A    between atoms: C_18  and  C_19
REMARK    7  A    between atoms: C_27  and  C_28
REMARK                            x       y       z     vdW  Elec       q    Type
REMARK                         _______ _______ _______ _____ _____    ______ ____
ROOT
ATOM      6  N   UNL     1      -5.546   0.390  25.077  0.00  0.00    -0.297 NA
ATOM      9  C   UNL     1      -4.037  -1.390  24.844  0.00  0.00    +0.092 C 
ATOM     10  C   UNL     1      -4.186  -1.032  26.333  0.00  0.00    +0.029 C 
ATOM     11  C   UNL     1      -4.625  -0.186  24.094  0.00  0.00    +0.097 C 
ATOM     12  C   UNL     1      -4.817   0.355  26.344  0.00  0.00    +0.085 C 
ENDROOT
BRANCH   9  14
ATOM      4  O   UNL     1      -1.786  -0.677  24.196  0.00  0.00    -0.420 OA
ATOM      7  N   UNL     1      -2.076  -2.896  24.198  0.00  0.00    -0.112 NA
ATOM      8  N   UNL     1      -0.772  -2.636  23.817  0.00  0.00    -0.107 NA
ATOM     14  C   UNL     1      -2.629  -1.725  24.409  0.00  0.00    +0.222 A 
ATOM     18  C   UNL     1      -0.648  -1.329  23.830  0.00  0.00    +0.248 A 
BRANCH  18  19
ATOM     19  C   UNL     1       0.480  -0.497  23.523  0.00  0.00    +0.038 A 
ATOM     23  C   UNL     1       1.511  -0.990  22.722  0.00  0.00    +0.013 A 
ATOM     24  C   UNL     1       0.546   0.802  24.025  0.00  0.00    +0.013 A 
ATOM     25  C   UNL     1       2.607  -0.182  22.424  0.00  0.00    +0.004 A 
ATOM     26  C   UNL     1       1.643   1.610  23.727  0.00  0.00    +0.004 A 
ATOM     27  C   UNL     1       2.674   1.118  22.926  0.00  0.00    -0.050 A 
ATOM     28  C   UNL     1       3.847   1.981  22.607  0.00  0.00    +0.044 C 
ENDBRANCH  18  19
ENDBRANCH   9  14
BRANCH   6  13
ATOM     13  C   UNL     1      -5.968   1.737  24.717  0.00  0.00    +0.119 C 
BRANCH  13  15
ATOM     15  C   UNL     1      -4.826   2.716  24.776  0.00  0.00    -0.033 A 
ATOM     16  C   UNL     1      -4.016   2.911  23.657  0.00  0.00    +0.008 A 
ATOM     17  C   UNL     1      -4.577   3.427  25.950  0.00  0.00    +0.008 A 
ATOM     20  C   UNL     1      -2.958   3.818  23.712  0.00  0.00    +0.046 A 
ATOM     21  C   UNL     1      -3.519   4.334  26.005  0.00  0.00    +0.046 A 
ATOM     22  C   UNL     1      -2.710   4.529  24.887  0.00  0.00    +0.130 A 
BRANCH  22   5
ATOM      5  O   UNL     1      -1.677   5.415  24.939  0.00  0.00    -0.406 OA
BRANCH   5  29
ATOM      1  F   UNL     1       0.519   5.934  24.963  0.00  0.00    -0.133 F 
ATOM      2  F   UNL     1      -0.078   3.961  25.687  0.00  0.00    -0.133 F 
ATOM      3  F   UNL     1      -0.166   4.433  23.530  0.00  0.00    -0.133 F 
ATOM     29  C   UNL     1      -0.354   4.918  24.775  0.00  0.00    +0.575 C 
ENDBRANCH   5  29
ENDBRANCH  22   5
ENDBRANCH  13  15
ENDBRANCH   6  13
TORSDOF 6
ENDMDL
MODEL 5
REMARK VINA RESULT:       1.3      1.983      5.231
REMARK  Name = 51137411
REMARK  7 active torsions:
REMARK  status: ('A' for Active; 'I' for Inactive)
REMARK    1  A    between atoms: O_5  and  C_22
REMARK    2  A    between atoms: O_5  and  C_29
REMARK    3  A    between atoms: N_6  and  C_13
REMARK    4  A    between atoms: C_9  and  C_14
REMARK    5  A    between atoms: C_13  and  C_15
REMARK    6  A    between atoms: C_18  and  C_19
REMARK    7  A    between atoms: C_27  and  C_28
REMARK                            x       y       z     vdW  Elec       q    Type
REMARK                         _______ _______ _______ _____ _____    ______ ____
ROOT
ATOM      6  N   UNL     1      -5.335   2.807  25.405  0.00  0.00    -0.297 NA
ATOM      9  C   UNL     1      -3.420   4.105  25.024  0.00  0.00    +0.092 C 
ATOM     10  C   UNL     1      -4.233   3.991  23.723  0.00  0.00    +0.029 C 
ATOM     11  C   UNL     1      -3.982   3.002  25.931  0.00  0.00    +0.097 C 
ATOM     12  C   UNL     1      -5.180   2.821  23.952  0.00  0.00    +0.085 C 
ENDROOT
BRANCH   9  14
ATOM      4  O   UNL     1      -1.427   2.843  24.368  0.00  0.00    -0.420 OA
ATOM      7  N   UNL     1      -0.997   4.917  25.090  0.00  0.00    -0.112 NA
ATOM      8  N   UNL     1       0.206   4.323  24.756  0.00  0.00    -0.107 NA
ATOM     14  C   UNL     1      -1.922   4.017  24.848  0.00  0.00    +0.222 A 
ATOM     18  C   UNL     1      -0.094   3.114  24.339  0.00  0.00    +0.248 A 
BRANCH  18  19
ATOM     19  C   UNL     1       0.751   2.055  23.869  0.00  0.00    +0.038 A 
ATOM     23  C   UNL     1       0.254   0.754  23.780  0.00  0.00    +0.013 A 
ATOM     24  C   UNL     1       2.069   2.325  23.501  0.00  0.00    +0.013 A 
ATOM     25  C   UNL     1       1.076  -0.276  23.322  0.00  0.00    +0.004 A 
ATOM     26  C   UNL     1       2.890   1.295  23.043  0.00  0.00    +0.004 A 
ATOM     27  C   UNL     1       2.394  -0.006  22.954  0.00  0.00    -0.050 A 
ATOM     28  C   UNL     1       3.272  -1.107  22.465  0.00  0.00    +0.044 C 
ENDBRANCH  18  19
ENDBRANCH   9  14
BRANCH   6  13
ATOM     13  C   UNL     1      -5.945   1.575  25.887  0.00  0.00    +0.119 C 
BRANCH  13  15
ATOM     15  C   UNL     1      -5.126   0.366  25.521  0.00  0.00    -0.033 A 
ATOM     16  C   UNL     1      -5.225  -0.184  24.242  0.00  0.00    +0.008 A 
ATOM     17  C   UNL     1      -4.269  -0.207  26.462  0.00  0.00    +0.008 A 
ATOM     20  C   UNL     1      -4.467  -1.305  23.904  0.00  0.00    +0.046 A 
ATOM     21  C   UNL     1      -3.511  -1.327  26.124  0.00  0.00    +0.046 A 
ATOM     22  C   UNL     1      -3.610  -1.876  24.845  0.00  0.00    +0.130 A 
BRANCH  22   5
ATOM      5  O   UNL     1      -2.869  -2.969  24.514  0.00  0.00    -0.406 OA
BRANCH   5  29
ATOM      1  F   UNL     1      -1.345  -1.510  23.714  0.00  0.00    -0.133 F 
ATOM      2  F   UNL     1      -0.696  -2.948  25.226  0.00  0.00    -0.133 F 
ATOM      3  F   UNL     1      -1.138  -3.615  23.166  0.00  0.00    -0.133 F 
ATOM     29  C   UNL     1      -1.505  -2.777  24.158  0.00  0.00    +0.575 C 
ENDBRANCH   5  29
ENDBRANCH  22   5
ENDBRANCH  13  15
ENDBRANCH   6  13
TORSDOF 6
ENDMDL
MODEL 6
REMARK VINA RESULT:       2.1      2.954      4.972
REMARK  Name = 51137411
REMARK  7 active torsions:
REMARK  status: ('A' for Active; 'I' for Inactive)
REMARK    1  A    between atoms: O_5  and  C_22
REMARK    2  A    between atoms: O_5  and  C_29
REMARK    3  A    between atoms: N_6  and  C_13
REMARK    4  A    between atoms: C_9  and  C_14
REMARK    5  A    between atoms: C_13  and  C_15
REMARK    6  A    between atoms: C_18  and  C_19
REMARK    7  A    between atoms: C_27  and  C_28
REMARK                            x       y       z     vdW  Elec       q    Type
REMARK                         _______ _______ _______ _____ _____    ______ ____
ROOT
ATOM      6  N   UNL     1      -0.482   4.989  24.904  0.00  0.00    -0.297 NA
ATOM      9  C   UNL     1       0.663   2.978  24.520  0.00  0.00    +0.092 C 
ATOM     10  C   UNL     1       0.841   3.912  23.310  0.00  0.00    +0.029 C 
ATOM     11  C   UNL     1      -0.510   3.581  25.306  0.00  0.00    +0.097 C 
ATOM     12  C   UNL     1      -0.250   4.964  23.460  0.00  0.00    +0.085 C 
ENDROOT
BRANCH   9  14
ATOM      4  O   UNL     1      -0.809   1.032  24.310  0.00  0.00    -0.420 OA
ATOM      7  N   UNL     1       1.321   0.631  23.752  0.00  0.00    -0.112 NA
ATOM      8  N   UNL     1       0.608  -0.543  23.589  0.00  0.00    -0.107 NA
ATOM     14  C   UNL     1       0.454   1.522  24.174  0.00  0.00    +0.222 A 
ATOM     18  C   UNL     1      -0.629  -0.261  23.926  0.00  0.00    +0.248 A 
BRANCH  18  19
ATOM     19  C   UNL     1      -1.799  -1.090  23.951  0.00  0.00    +0.038 A 
ATOM     23  C   UNL     1      -3.029  -0.574  23.541  0.00  0.00    +0.013 A 
ATOM     24  C   UNL     1      -1.708  -2.412  24.386  0.00  0.00    +0.013 A 
ATOM     25  C   UNL     1      -4.167  -1.380  23.566  0.00  0.00    +0.004 A 
ATOM     26  C   UNL     1      -2.846  -3.218  24.412  0.00  0.00    +0.004 A 
ATOM     27  C   UNL     1      -4.076  -2.702  24.001  0.00  0.00    -0.050 A 
ATOM     28  C   UNL     1      -5.293  -3.564  24.028  0.00  0.00    +0.044 C 
ENDBRANCH  18  19
ENDBRANCH   9  14
BRANCH   6  13
ATOM     13  C   UNL     1      -1.707   5.691  25.257  0.00  0.00    +0.119 C 
BRANCH  13  15
ATOM     15  C   UNL     1      -2.912   4.793  25.169  0.00  0.00    -0.033 A 
ATOM     16  C   UNL     1      -3.690   4.555  26.303  0.00  0.00    +0.008 A 
ATOM     17  C   UNL     1      -3.250   4.197  23.953  0.00  0.00    +0.008 A 
ATOM     20  C   UNL     1      -4.806   3.722  26.220  0.00  0.00    +0.046 A 
ATOM     21  C   UNL     1      -4.365   3.365  23.871  0.00  0.00    +0.046 A 
ATOM     22  C   UNL     1      -5.143   3.127  25.004  0.00  0.00    +0.130 A 
BRANCH  22   5
ATOM      5  O   UNL     1      -6.233   2.315  24.924  0.00  0.00    -0.406 OA
BRANCH   5  29
ATOM      1  F   UNL     1      -4.848   0.732  25.745  0.00  0.00    -0.133 F 
ATOM      2  F   UNL     1      -6.821   0.946  26.659  0.00  0.00    -0.133 F 
ATOM      3  F   UNL     1      -6.615   0.078  24.638  0.00  0.00    -0.133 F 
ATOM     29  C   UNL     1      -6.146   1.012  25.491  0.00  0.00    +0.575 C 
ENDBRANCH   5  29
ENDBRANCH  22   5
ENDBRANCH  13  15
ENDBRANCH   6  13
TORSDOF 6
ENDMDL
MODEL 7
REMARK VINA RESULT:       2.4      3.320      6.199
REMARK  Name = 51137411
REMARK  7 active torsions:
REMARK  status: ('A' for Active; 'I' for Inactive)
REMARK    1  A    between atoms: O_5  and  C_22
REMARK    2  A    between atoms: O_5  and  C_29
REMARK    3  A    between atoms: N_6  and  C_13
REMARK    4  A    between atoms: C_9  and  C_14
REMARK    5  A    between atoms: C_13  and  C_15
REMARK    6  A    between atoms: C_18  and  C_19
REMARK    7  A    between atoms: C_27  and  C_28
REMARK                            x       y       z     vdW  Elec       q    Type
REMARK                         _______ _______ _______ _____ _____    ______ ____
ROOT
ATOM      6  N   UNL     1      -2.257   4.224  25.683  0.00  0.00    -0.297 NA
ATOM      9  C   UNL     1      -0.220   3.243  25.062  0.00  0.00    +0.092 C 
ATOM     10  C   UNL     1      -0.435   4.538  24.259  0.00  0.00    +0.029 C 
ATOM     11  C   UNL     1      -1.600   2.915  25.647  0.00  0.00    +0.097 C 
ATOM     12  C   UNL     1      -1.918   4.852  24.407  0.00  0.00    +0.085 C 
ENDROOT
BRANCH   9  14
ATOM      4  O   UNL     1       1.723   1.932  24.354  0.00  0.00    -0.420 OA
ATOM      7  N   UNL     1      -0.220   1.216  23.505  0.00  0.00    -0.112 NA
ATOM      8  N   UNL     1       0.784   0.394  23.027  0.00  0.00    -0.107 NA
ATOM     14  C   UNL     1       0.374   2.098  24.274  0.00  0.00    +0.222 A 
ATOM     18  C   UNL     1       1.900   0.849  23.549  0.00  0.00    +0.248 A 
BRANCH  18  19
ATOM     19  C   UNL     1       3.251   0.389  23.404  0.00  0.00    +0.038 A 
ATOM     23  C   UNL     1       3.586  -0.916  23.766  0.00  0.00    +0.013 A 
ATOM     24  C   UNL     1       4.229   1.247  22.901  0.00  0.00    +0.013 A 
ATOM     25  C   UNL     1       4.899  -1.363  23.625  0.00  0.00    +0.004 A 
ATOM     26  C   UNL     1       5.543   0.800  22.760  0.00  0.00    +0.004 A 
ATOM     27  C   UNL     1       5.878  -0.505  23.122  0.00  0.00    -0.050 A 
ATOM     28  C   UNL     1       7.283  -0.983  22.972  0.00  0.00    +0.044 C 
ENDBRANCH  18  19
ENDBRANCH   9  14
BRANCH   6  13
ATOM     13  C   UNL     1      -3.696   4.116  25.884  0.00  0.00    +0.119 C 
BRANCH  13  15
ATOM     15  C   UNL     1      -4.221   2.772  25.456  0.00  0.00    -0.033 A 
ATOM     16  C   UNL     1      -5.466   2.333  25.908  0.00  0.00    +0.008 A 
ATOM     17  C   UNL     1      -3.462   1.965  24.607  0.00  0.00    +0.008 A 
ATOM     20  C   UNL     1      -5.952   1.087  25.511  0.00  0.00    +0.046 A 
ATOM     21  C   UNL     1      -3.948   0.720  24.211  0.00  0.00    +0.046 A 
ATOM     22  C   UNL     1      -5.193   0.281  24.662  0.00  0.00    +0.130 A 
BRANCH  22   5
ATOM      5  O   UNL     1      -5.669  -0.934  24.274  0.00  0.00    -0.406 OA
BRANCH   5  29
ATOM      1  F   UNL     1      -5.404  -3.045  23.519  0.00  0.00    -0.133 F 
ATOM      2  F   UNL     1      -3.920  -1.551  22.935  0.00  0.00    -0.133 F 
ATOM      3  F   UNL     1      -3.991  -2.303  25.012  0.00  0.00    -0.133 F 
ATOM     29  C   UNL     1      -4.730  -1.950  23.939  0.00  0.00    +0.575 C 
ENDBRANCH   5  29
ENDBRANCH  22   5
ENDBRANCH  13  15
ENDBRANCH   6  13
TORSDOF 6
ENDMDL
