MODEL 1
REMARK VINA RESULT:      -1.8      0.000      0.000
REMARK  Name = 11912977
REMARK  5 active torsions:
REMARK  status: ('A' for Active; 'I' for Inactive)
REMARK    1  A    between atoms: S_1  and  N_8
REMARK    2  A    between atoms: S_1  and  C_19
REMARK    3  A    between atoms: N_8  and  C_14
REMARK    4  A    between atoms: N_9  and  C_15
REMARK    5  A    between atoms: C_21  and  C_26
REMARK                            x       y       z     vdW  Elec       q    Type
REMARK                         _______ _______ _______ _____ _____    ______ ____
ROOT
ATOM      3  O   UNL     1      -1.268  -1.428  26.528  0.00  0.00    -0.370 OA
ATOM      4  O   UNL     1      -2.416  -2.188  23.729  0.00  0.00    -0.370 OA
ATOM     12  C   UNL     1      -1.739  -1.026  24.231  0.00  0.00    +0.170 C 
ATOM     13  C   UNL     1      -2.221  -0.801  25.652  0.00  0.00    +0.171 C 
ATOM     14  C   UNL     1      -0.261  -1.302  24.383  0.00  0.00    +0.133 C 
ATOM     15  C   UNL     1      -3.543  -1.527  25.712  0.00  0.00    +0.130 C 
ATOM     16  C   UNL     1      -0.194  -1.968  25.746  0.00  0.00    +0.183 C 
ATOM     17  C   UNL     1      -3.351  -2.654  24.713  0.00  0.00    +0.185 C 
ENDROOT
BRANCH  15   9
ATOM      9  N   UNL     1      -4.609  -0.651  25.279  0.00  0.00    -0.306 N 
ATOM     10  N   UNL     1      -3.207   1.231  25.263  0.00  0.00    -0.211 NA
ATOM     11  N   UNL     1      -5.531   1.413  24.649  0.00  0.00    -0.223 NA
ATOM     18  C   UNL     1      -4.444   0.705  25.057  0.00  0.00    +0.216 A 
ATOM     21  C   UNL     1      -3.082   2.555  25.038  0.00  0.00    +0.111 A 
ATOM     22  C   UNL     1      -5.333   2.732  24.442  0.00  0.00    +0.116 A 
ATOM     25  C   UNL     1      -4.119   3.363  24.622  0.00  0.00    +0.051 A 
ATOM     31  H   UNL     1      -5.522  -1.041  25.071  0.00  0.00    +0.149 HD
BRANCH  21  26
ATOM      7  O   UNL     1      -0.891   2.228  25.859  0.00  0.00    -0.461 OA
ATOM     26  C   UNL     1      -1.762   3.082  25.264  0.00  0.00    +0.153 A 
ATOM     27  C   UNL     1      -1.162   4.291  25.010  0.00  0.00    +0.051 A 
ATOM     28  C   UNL     1       0.168   4.174  25.479  0.00  0.00    +0.042 A 
ATOM     29  C   UNL     1       0.282   2.900  25.987  0.00  0.00    +0.196 A 
ENDBRANCH  21  26
ENDBRANCH  15   9
BRANCH  14   8
ATOM      8  N   UNL     1       0.505  -0.079  24.361  0.00  0.00    -0.182 NA
ATOM     30  H   UNL     1       0.169   0.668  24.982  0.00  0.00    +0.149 HD
BRANCH   8   1
ATOM      1  S   UNL     1       1.309   0.388  22.940  0.00  0.00    +0.065 S 
ATOM      5  O   UNL     1       1.326   1.836  22.849  0.00  0.00    -0.153 OA
ATOM      6  O   UNL     1       0.806  -0.407  21.836  0.00  0.00    -0.153 OA
BRANCH   1  19
ATOM      2  S   UNL     1       4.172   0.965  22.826  0.00  0.00    -0.077 S 
ATOM     19  C   UNL     1       2.959  -0.157  23.259  0.00  0.00    +0.142 A 
ATOM     20  C   UNL     1       3.474  -1.312  23.789  0.00  0.00    +0.036 A 
ATOM     23  C   UNL     1       4.898  -1.279  23.843  0.00  0.00    +0.010 A 
ATOM     24  C   UNL     1       5.408  -0.098  23.351  0.00  0.00    +0.047 A 
ENDBRANCH   1  19
ENDBRANCH   8   1
ENDBRANCH  14   8
TORSDOF 5
ENDMDL
MODEL 2
REMARK VINA RESULT:      -1.7      1.949      4.347
REMARK  Name = 11912977
REMARK  5 active torsions:
REMARK  status: ('A' for Active; 'I' for Inactive)
REMARK    1  A    between atoms: S_1  and  N_8
REMARK    2  A    between atoms: S_1  and  C_19
REMARK    3  A    between atoms: N_8  and  C_14
REMARK    4  A    between atoms: N_9  and  C_15
REMARK    5  A    between atoms: C_21  and  C_26
REMARK                            x       y       z     vdW  Elec       q    Type
REMARK                         _______ _______ _______ _____ _____    ______ ____
ROOT
ATOM      3  O   UNL     1      -1.173   2.652  23.247  0.00  0.00    -0.370 OA
ATOM      4  O   UNL     1      -0.941   4.369  25.841  0.00  0.00    -0.370 OA
ATOM     12  C   UNL     1      -1.220   2.981  25.602  0.00  0.00    +0.170 C 
ATOM     13  C   UNL     1      -2.066   2.899  24.346  0.00  0.00    +0.171 C 
ATOM     14  C   UNL     1       0.049   2.244  25.240  0.00  0.00    +0.133 C 
ATOM     15  C   UNL     1      -2.678   4.274  24.224  0.00  0.00    +0.130 C 
ATOM     16  C   UNL     1       0.163   2.509  23.749  0.00  0.00    +0.183 C 
ATOM     17  C   UNL     1      -1.628   5.165  24.864  0.00  0.00    +0.185 C 
ENDROOT
BRANCH  15   9
ATOM      9  N   UNL     1      -3.912   4.336  24.975  0.00  0.00    -0.306 N 
ATOM     10  N   UNL     1      -4.160   2.002  24.973  0.00  0.00    -0.211 NA
ATOM     11  N   UNL     1      -5.784   3.419  26.053  0.00  0.00    -0.223 NA
ATOM     18  C   UNL     1      -4.641   3.219  25.345  0.00  0.00    +0.216 A 
ATOM     21  C   UNL     1      -4.894   0.935  25.350  0.00  0.00    +0.111 A 
ATOM     22  C   UNL     1      -6.468   2.308  26.397  0.00  0.00    +0.116 A 
ATOM     25  C   UNL     1      -6.068   1.028  26.070  0.00  0.00    +0.051 A 
ATOM     31  H   UNL     1      -4.252   5.233  25.304  0.00  0.00    +0.149 HD
BRANCH  21  26
ATOM      7  O   UNL     1      -3.695  -1.022  25.905  0.00  0.00    -0.461 OA
ATOM     26  C   UNL     1      -4.361  -0.337  24.942  0.00  0.00    +0.153 A 
ATOM     27  C   UNL     1      -4.370  -1.040  23.762  0.00  0.00    +0.051 A 
ATOM     28  C   UNL     1      -3.663  -2.239  24.016  0.00  0.00    +0.042 A 
ATOM     29  C   UNL     1      -3.272  -2.180  25.334  0.00  0.00    +0.196 A 
ENDBRANCH  21  26
ENDBRANCH  15   9
BRANCH  14   8
ATOM      8  N   UNL     1      -0.071   0.831  25.512  0.00  0.00    -0.182 NA
ATOM     30  H   UNL     1       0.358   0.509  26.389  0.00  0.00    +0.149 HD
BRANCH   8   1
ATOM      1  S   UNL     1      -0.146  -0.273  24.226  0.00  0.00    +0.065 S 
ATOM      5  O   UNL     1      -1.249   0.079  23.351  0.00  0.00    -0.153 OA
ATOM      6  O   UNL     1      -0.037  -1.618  24.757  0.00  0.00    -0.153 OA
BRANCH   1  19
ATOM      2  S   UNL     1       1.417  -0.546  21.771  0.00  0.00    -0.077 S 
ATOM     19  C   UNL     1       1.360   0.065  23.365  0.00  0.00    +0.142 A 
ATOM     20  C   UNL     1       2.508   0.725  23.719  0.00  0.00    +0.036 A 
ATOM     23  C   UNL     1       3.461   0.732  22.658  0.00  0.00    +0.010 A 
ATOM     24  C   UNL     1       2.996   0.077  21.540  0.00  0.00    +0.047 A 
ENDBRANCH   1  19
ENDBRANCH   8   1
ENDBRANCH  14   8
TORSDOF 5
ENDMDL
MODEL 3
REMARK VINA RESULT:       2.1      2.852      6.750
REMARK  Name = 11912977
REMARK  5 active torsions:
REMARK  status: ('A' for Active; 'I' for Inactive)
REMARK    1  A    between atoms: S_1  and  N_8
REMARK    2  A    between atoms: S_1  and  C_19
REMARK    3  A    between atoms: N_8  and  C_14
REMARK    4  A    between atoms: N_9  and  C_15
REMARK    5  A    between atoms: C_21  and  C_26
REMARK                            x       y       z     vdW  Elec       q    Type
REMARK                         _______ _______ _______ _____ _____    ______ ____
ROOT
ATOM      3  O   UNL     1      -2.647   3.180  26.365  0.00  0.00    -0.370 OA
ATOM      4  O   UNL     1      -1.650   5.306  24.311  0.00  0.00    -0.370 OA
ATOM     12  C   UNL     1      -2.393   4.084  24.179  0.00  0.00    +0.170 C 
ATOM     13  C   UNL     1      -1.828   3.101  25.186  0.00  0.00    +0.171 C 
ATOM     14  C   UNL     1      -3.823   4.287  24.625  0.00  0.00    +0.133 C 
ATOM     15  C   UNL     1      -0.442   3.626  25.476  0.00  0.00    +0.130 C 
ATOM     16  C   UNL     1      -3.723   4.100  26.129  0.00  0.00    +0.183 C 
ATOM     17  C   UNL     1      -0.603   5.122  25.275  0.00  0.00    +0.185 C 
ENDROOT
BRANCH  15   9
ATOM      9  N   UNL     1       0.501   3.091  24.519  0.00  0.00    -0.306 N 
ATOM     10  N   UNL     1      -0.299   0.901  24.787  0.00  0.00    -0.211 NA
ATOM     11  N   UNL     1       1.504   1.383  23.261  0.00  0.00    -0.223 NA
ATOM     18  C   UNL     1       0.571   1.751  24.178  0.00  0.00    +0.216 A 
ATOM     21  C   UNL     1      -0.203  -0.397  24.432  0.00  0.00    +0.111 A 
ATOM     22  C   UNL     1       1.543   0.070  22.953  0.00  0.00    +0.116 A 
ATOM     25  C   UNL     1       0.707  -0.875  23.511  0.00  0.00    +0.051 A 
ATOM     31  H   UNL     1       1.118   3.722  24.020  0.00  0.00    +0.149 HD
BRANCH  21  26
ATOM      7  O   UNL     1      -1.872  -0.698  26.076  0.00  0.00    -0.461 OA
ATOM     26  C   UNL     1      -1.136  -1.272  25.092  0.00  0.00    +0.153 A 
ATOM     27  C   UNL     1      -1.461  -2.599  24.950  0.00  0.00    +0.051 A 
ATOM     28  C   UNL     1      -2.466  -2.859  25.912  0.00  0.00    +0.042 A 
ATOM     29  C   UNL     1      -2.680  -1.671  26.571  0.00  0.00    +0.196 A 
ENDBRANCH  21  26
ENDBRANCH  15   9
BRANCH  14   8
ATOM      8  N   UNL     1      -4.699   3.305  24.033  0.00  0.00    -0.182 NA
ATOM     30  H   UNL     1      -5.184   3.599  23.176  0.00  0.00    +0.149 HD
BRANCH   8   1
ATOM      1  S   UNL     1      -5.478   2.164  25.020  0.00  0.00    +0.065 S 
ATOM      5  O   UNL     1      -6.909   2.223  24.789  0.00  0.00    -0.153 OA
ATOM      6  O   UNL     1      -4.952   2.274  26.367  0.00  0.00    -0.153 OA
BRANCH   1  19
ATOM      2  S   UNL     1      -3.585   0.802  23.257  0.00  0.00    -0.077 S 
ATOM     19  C   UNL     1      -4.882   0.638  24.356  0.00  0.00    +0.142 A 
ATOM     20  C   UNL     1      -5.251  -0.668  24.546  0.00  0.00    +0.036 A 
ATOM     23  C   UNL     1      -4.453  -1.560  23.771  0.00  0.00    +0.010 A 
ATOM     24  C   UNL     1      -3.508  -0.892  23.024  0.00  0.00    +0.047 A 
ENDBRANCH   1  19
ENDBRANCH   8   1
ENDBRANCH  14   8
TORSDOF 5
ENDMDL
