MODEL 1
REMARK VINA RESULT:      -3.6      0.000      0.000
REMARK  Name = 28962489
REMARK  10 active torsions:
REMARK  status: ('A' for Active; 'I' for Inactive)
REMARK    1  A    between atoms: O_1  and  C_10
REMARK    2  A    between atoms: N_4  and  C_14
REMARK    3  A    between atoms: N_5  and  C_24
REMARK    4  A    between atoms: C_7  and  C_17
REMARK    5  A    between atoms: C_9  and  C_19
REMARK    6  A    between atoms: C_13  and  C_18
REMARK    7  A    between atoms: C_18  and  C_20
REMARK    8  A    between atoms: C_18  and  C_21
REMARK    9  A    between atoms: C_22  and  C_23
REMARK   10  A    between atoms: C_24  and  C_25
REMARK                            x       y       z     vdW  Elec       q    Type
REMARK                         _______ _______ _______ _____ _____    ______ ____
ROOT
ATOM      7  C   UNL     1      -2.240  -1.049  25.153  0.00  0.00    -0.027 C 
ATOM      8  C   UNL     1      -2.259   0.135  24.130  0.00  0.00    +0.028 C 
ATOM      9  C   UNL     1      -0.813   0.708  23.911  0.00  0.00    +0.012 C 
ATOM     10  C   UNL     1      -3.345   1.186  24.504  0.00  0.00    +0.122 C 
ATOM     11  C   UNL     1      -3.657  -1.662  25.259  0.00  0.00    +0.007 C 
ATOM     12  C   UNL     1      -1.289  -2.150  24.631  0.00  0.00    +0.009 C 
ATOM     13  C   UNL     1      -4.739   0.552  24.711  0.00  0.00    +0.029 C 
ATOM     14  C   UNL     1       0.152  -0.424  23.459  0.00  0.00    +0.076 C 
ATOM     15  C   UNL     1      -4.716  -0.643  25.664  0.00  0.00    +0.007 C 
ATOM     16  C   UNL     1       0.124  -1.648  24.374  0.00  0.00    +0.023 C 
ATOM     17  C   UNL     1      -1.782  -0.606  26.565  0.00  0.00    +0.011 C 
ATOM     19  C   UNL     1      -0.754   1.860  22.893  0.00  0.00    +0.010 C 
ENDROOT
BRANCH  14   4
ATOM      3  O   UNL     1       1.837  -0.387  21.094  0.00  0.00    -0.276 OA
ATOM      4  N   UNL     1       1.519   0.044  23.360  0.00  0.00    -0.312 N 
ATOM     22  C   UNL     1       2.240   0.020  22.181  0.00  0.00    +0.210 C 
ATOM     23  C   UNL     1       3.625   0.587  22.351  0.00  0.00    +0.109 C 
ATOM     30  H   UNL     1       1.980   0.349  24.213  0.00  0.00    +0.149 HD
ENDBRANCH  14   4
BRANCH  10   1
ATOM      1  O   UNL     1      -3.480   2.131  23.441  0.00  0.00    -0.391 OA
ATOM     31  H   UNL     1      -4.345   1.991  23.019  0.00  0.00    +0.210 HD
ENDBRANCH  10   1
BRANCH  13  18
ATOM     18  C   UNL     1      -5.765   1.580  25.205  0.00  0.00    +0.077 C 
ATOM     20  C   UNL     1      -6.957   1.629  24.256  0.00  0.00    +0.017 C 
BRANCH  18  21
ATOM      2  O   UNL     1      -5.298   3.861  24.542  0.00  0.00    -0.276 OA
ATOM      5  N   UNL     1      -4.280   3.032  26.455  0.00  0.00    -0.311 N 
ATOM     21  C   UNL     1      -5.106   2.948  25.342  0.00  0.00    +0.216 C 
ATOM     32  H   UNL     1      -4.215   2.249  27.097  0.00  0.00    +0.149 HD
BRANCH   5  24
ATOM     24  C   UNL     1      -3.546   4.228  26.793  0.00  0.00    +0.141 C 
BRANCH  24  25
ATOM      6  N   UNL     1      -0.047   3.332  25.673  0.00  0.00    -0.263 NA
ATOM     25  C   UNL     1      -2.225   4.297  26.082  0.00  0.00    -0.012 A 
ATOM     26  C   UNL     1      -1.937   5.336  25.203  0.00  0.00    +0.008 A 
ATOM     27  C   UNL     1      -1.255   3.328  26.280  0.00  0.00    +0.115 A 
ATOM     28  C   UNL     1      -0.706   5.374  24.560  0.00  0.00    +0.020 A 
ATOM     29  C   UNL     1       0.197   4.357  24.827  0.00  0.00    +0.111 A 
ENDBRANCH  24  25
ENDBRANCH   5  24
ENDBRANCH  18  21
ENDBRANCH  13  18
TORSDOF 6
ENDMDL
