MODEL 1
REMARK VINA RESULT:       3.7      0.000      0.000
REMARK  Name = 25313885
REMARK  7 active torsions:
REMARK  status: ('A' for Active; 'I' for Inactive)
REMARK    1  A    between atoms: N_6  and  C_30
REMARK    2  A    between atoms: N_7  and  C_23
REMARK    3  A    between atoms: C_9  and  C_13
REMARK    4  A    between atoms: C_10  and  C_14
REMARK    5  A    between atoms: C_13  and  C_16
REMARK    6  A    between atoms: C_14  and  C_17
REMARK    7  A    between atoms: C_23  and  C_24
REMARK                            x       y       z     vdW  Elec       q    Type
REMARK                         _______ _______ _______ _____ _____    ______ ____
ROOT
ATOM      4  N   UNL     1      -6.731   2.119  25.853  0.00  0.00    -0.316 NA
ATOM      9  C   UNL     1      -3.848   1.856  25.286  0.00  0.00    +0.004 C 
ATOM     10  C   UNL     1      -4.491   3.184  25.752  0.00  0.00    +0.012 C 
ATOM     11  C   UNL     1      -4.724   0.683  25.756  0.00  0.00    +0.019 C 
ATOM     12  C   UNL     1      -5.974   3.267  25.355  0.00  0.00    +0.085 C 
ATOM     15  C   UNL     1      -6.190   0.854  25.360  0.00  0.00    +0.081 C 
ATOM     36  H   UNL     1      -7.705   2.205  25.564  0.00  0.00    +0.122 HD
ENDROOT
BRANCH   9  13
ATOM     13  C   UNL     1      -3.598   1.780  23.776  0.00  0.00    +0.100 C 
BRANCH  13  16
ATOM      2  O   UNL     1      -3.750  -0.490  23.094  0.00  0.00    -0.276 OA
ATOM      5  N   UNL     1      -1.615   0.343  23.477  0.00  0.00    -0.298 N 
ATOM      6  N   UNL     1       1.267   0.093  23.364  0.00  0.00    -0.327 N 
ATOM     16  C   UNL     1      -3.005   0.439  23.416  0.00  0.00    +0.216 C 
ATOM     18  C   UNL     1      -0.966  -0.923  23.148  0.00  0.00    +0.126 C 
ATOM     19  C   UNL     1      -0.731   1.451  23.849  0.00  0.00    +0.126 C 
ATOM     20  C   UNL     1       0.400  -0.713  22.498  0.00  0.00    +0.124 C 
ATOM     21  C   UNL     1       0.634   0.977  24.345  0.00  0.00    +0.124 C 
BRANCH   6  30
ATOM      1  F   UNL     1       6.763  -0.317  23.015  0.00  0.00    -0.205 F 
ATOM     30  C   UNL     1       2.653  -0.011  23.275  0.00  0.00    +0.030 A 
ATOM     31  C   UNL     1       3.399   1.045  22.752  0.00  0.00    +0.026 A 
ATOM     32  C   UNL     1       3.295  -1.170  23.710  0.00  0.00    +0.026 A 
ATOM     33  C   UNL     1       4.787   0.942  22.664  0.00  0.00    +0.040 A 
ATOM     34  C   UNL     1       4.684  -1.273  23.622  0.00  0.00    +0.040 A 
ATOM     35  C   UNL     1       5.430  -0.217  23.099  0.00  0.00    +0.124 A 
ENDBRANCH   6  30
ENDBRANCH  13  16
ENDBRANCH   9  13
BRANCH  10  14
ATOM     14  C   UNL     1      -3.734   4.419  25.264  0.00  0.00    +0.064 C 
BRANCH  14  17
ATOM      3  O   UNL     1      -0.144   4.624  25.076  0.00  0.00    -0.358 OA
ATOM      8  N   UNL     1      -1.420   5.072  24.755  0.00  0.00    -0.083 NA
ATOM     17  C   UNL     1      -2.248   4.234  25.385  0.00  0.00    +0.084 A 
ATOM     22  C   UNL     1      -1.560   3.247  26.112  0.00  0.00    +0.072 A 
ATOM     24  C   UNL     1      -0.239   3.538  25.884  0.00  0.00    +0.151 A 
BRANCH  24  23
ATOM     23  C   UNL     1       1.024   2.933  26.321  0.00  0.00    +0.161 C 
BRANCH  23   7
ATOM      7  N   UNL     1       1.274   3.092  27.754  0.00  0.00    -0.295 NA
ATOM     25  C   UNL     1       2.690   2.847  28.058  0.00  0.00    +0.085 C 
ATOM     26  C   UNL     1       0.401   2.198  28.530  0.00  0.00    +0.085 C 
ATOM     27  C   UNL     1       2.979   3.057  29.546  0.00  0.00    +0.015 C 
ATOM     28  C   UNL     1       0.616   2.388  30.033  0.00  0.00    +0.015 C 
ATOM     29  C   UNL     1       2.078   2.187  30.414  0.00  0.00    +0.002 C 
ENDBRANCH  23   7
ENDBRANCH  24  23
ENDBRANCH  14  17
ENDBRANCH  10  14
TORSDOF 7
ENDMDL
MODEL 2
REMARK VINA RESULT:       6.2      2.545      4.409
REMARK  Name = 25313885
REMARK  7 active torsions:
REMARK  status: ('A' for Active; 'I' for Inactive)
REMARK    1  A    between atoms: N_6  and  C_30
REMARK    2  A    between atoms: N_7  and  C_23
REMARK    3  A    between atoms: C_9  and  C_13
REMARK    4  A    between atoms: C_10  and  C_14
REMARK    5  A    between atoms: C_13  and  C_16
REMARK    6  A    between atoms: C_14  and  C_17
REMARK    7  A    between atoms: C_23  and  C_24
REMARK                            x       y       z     vdW  Elec       q    Type
REMARK                         _______ _______ _______ _____ _____    ______ ____
ROOT
ATOM      4  N   UNL     1      -1.610   5.583  25.394  0.00  0.00    -0.316 NA
ATOM      9  C   UNL     1      -3.170   3.621  23.838  0.00  0.00    +0.004 C 
ATOM     10  C   UNL     1      -3.825   4.621  24.818  0.00  0.00    +0.012 C 
ATOM     11  C   UNL     1      -1.823   4.192  23.364  0.00  0.00    +0.019 C 
ATOM     12  C   UNL     1      -2.856   5.040  25.936  0.00  0.00    +0.085 C 
ATOM     15  C   UNL     1      -0.930   4.623  24.526  0.00  0.00    +0.081 C 
ATOM     36  H   UNL     1      -0.991   5.840  26.162  0.00  0.00    +0.122 HD
ENDROOT
BRANCH   9  13
ATOM     13  C   UNL     1      -2.992   2.210  24.411  0.00  0.00    +0.100 C 
BRANCH  13  16
ATOM      2  O   UNL     1      -3.236   0.862  22.471  0.00  0.00    -0.276 OA
ATOM      5  N   UNL     1      -1.119   0.944  23.425  0.00  0.00    -0.298 N 
ATOM      6  N   UNL     1       1.715   0.354  23.371  0.00  0.00    -0.327 N 
ATOM     16  C   UNL     1      -2.471   1.279  23.344  0.00  0.00    +0.216 C 
ATOM     18  C   UNL     1      -0.540   0.044  22.431  0.00  0.00    +0.126 C 
ATOM     19  C   UNL     1      -0.208   1.449  24.456  0.00  0.00    +0.126 C 
ATOM     20  C   UNL     1       0.922   0.380  22.138  0.00  0.00    +0.124 C 
ATOM     21  C   UNL     1       1.022   0.561  24.645  0.00  0.00    +0.124 C 
BRANCH   6  30
ATOM      1  F   UNL     1       7.145  -0.638  23.205  0.00  0.00    -0.205 F 
ATOM     30  C   UNL     1       3.085   0.104  23.329  0.00  0.00    +0.030 A 
ATOM     31  C   UNL     1       3.581  -1.130  23.750  0.00  0.00    +0.026 A 
ATOM     32  C   UNL     1       3.959   1.087  22.868  0.00  0.00    +0.026 A 
ATOM     33  C   UNL     1       4.953  -1.380  23.707  0.00  0.00    +0.040 A 
ATOM     34  C   UNL     1       5.331   0.836  22.825  0.00  0.00    +0.040 A 
ATOM     35  C   UNL     1       5.828  -0.397  23.246  0.00  0.00    +0.124 A 
ENDBRANCH   6  30
ENDBRANCH  13  16
ENDBRANCH   9  13
BRANCH  10  14
ATOM     14  C   UNL     1      -5.138   4.107  25.411  0.00  0.00    +0.064 C 
BRANCH  14  17
ATOM      3  O   UNL     1      -6.032   0.691  24.706  0.00  0.00    -0.358 OA
ATOM      8  N   UNL     1      -6.237   2.062  24.606  0.00  0.00    -0.083 NA
ATOM     17  C   UNL     1      -5.238   2.612  25.302  0.00  0.00    +0.084 A 
ATOM     22  C   UNL     1      -4.379   1.648  25.857  0.00  0.00    +0.072 A 
ATOM     24  C   UNL     1      -4.923   0.456  25.452  0.00  0.00    +0.151 A 
BRANCH  24  23
ATOM     23  C   UNL     1      -4.557  -0.950  25.660  0.00  0.00    +0.161 C 
BRANCH  23   7
ATOM      7  N   UNL     1      -3.213  -1.272  25.183  0.00  0.00    -0.295 NA
ATOM     25  C   UNL     1      -3.191  -2.608  24.571  0.00  0.00    +0.085 C 
ATOM     26  C   UNL     1      -2.241  -1.175  26.282  0.00  0.00    +0.085 C 
ATOM     27  C   UNL     1      -1.802  -2.941  24.023  0.00  0.00    +0.015 C 
ATOM     28  C   UNL     1      -0.821  -1.461  25.789  0.00  0.00    +0.015 C 
ATOM     29  C   UNL     1      -0.735  -2.822  25.105  0.00  0.00    +0.002 C 
ENDBRANCH  23   7
ENDBRANCH  24  23
ENDBRANCH  14  17
ENDBRANCH  10  14
TORSDOF 7
ENDMDL
MODEL 3
REMARK VINA RESULT:       6.8      3.224      6.011
REMARK  Name = 25313885
REMARK  7 active torsions:
REMARK  status: ('A' for Active; 'I' for Inactive)
REMARK    1  A    between atoms: N_6  and  C_30
REMARK    2  A    between atoms: N_7  and  C_23
REMARK    3  A    between atoms: C_9  and  C_13
REMARK    4  A    between atoms: C_10  and  C_14
REMARK    5  A    between atoms: C_13  and  C_16
REMARK    6  A    between atoms: C_14  and  C_17
REMARK    7  A    between atoms: C_23  and  C_24
REMARK                            x       y       z     vdW  Elec       q    Type
REMARK                         _______ _______ _______ _____ _____    ______ ____
ROOT
ATOM      4  N   UNL     1      -3.270   3.590  22.743  0.00  0.00    -0.316 NA
ATOM      9  C   UNL     1      -2.473   4.978  25.221  0.00  0.00    +0.004 C 
ATOM     10  C   UNL     1      -1.501   4.089  24.412  0.00  0.00    +0.012 C 
ATOM     11  C   UNL     1      -3.578   5.494  24.285  0.00  0.00    +0.019 C 
ATOM     12  C   UNL     1      -2.249   3.007  23.614  0.00  0.00    +0.085 C 
ATOM     15  C   UNL     1      -4.249   4.370  23.498  0.00  0.00    +0.081 C 
ATOM     36  H   UNL     1      -3.749   2.844  22.239  0.00  0.00    +0.122 HD
ENDROOT
BRANCH   9  13
ATOM     13  C   UNL     1      -3.078   4.285  26.449  0.00  0.00    +0.100 C 
BRANCH  13  16
ATOM      2  O   UNL     1      -5.410   4.072  26.060  0.00  0.00    -0.276 OA
ATOM      5  N   UNL     1      -4.115   2.178  25.696  0.00  0.00    -0.298 N 
ATOM      6  N   UNL     1      -3.795  -0.534  24.734  0.00  0.00    -0.327 N 
ATOM     16  C   UNL     1      -4.311   3.512  26.052  0.00  0.00    +0.216 C 
ATOM     18  C   UNL     1      -5.260   1.361  25.304  0.00  0.00    +0.126 C 
ATOM     19  C   UNL     1      -2.807   1.518  25.676  0.00  0.00    +0.126 C 
ATOM     20  C   UNL     1      -4.886   0.319  24.251  0.00  0.00    +0.124 C 
ATOM     21  C   UNL     1      -2.911  -0.004  25.774  0.00  0.00    +0.124 C 
BRANCH   6  30
ATOM      1  F   UNL     1      -3.141  -5.653  22.767  0.00  0.00    -0.205 F 
ATOM     30  C   UNL     1      -3.630  -1.825  24.237  0.00  0.00    +0.030 A 
ATOM     31  C   UNL     1      -2.384  -2.448  24.314  0.00  0.00    +0.026 A 
ATOM     32  C   UNL     1      -4.710  -2.494  23.663  0.00  0.00    +0.026 A 
ATOM     33  C   UNL     1      -2.220  -3.741  23.818  0.00  0.00    +0.040 A 
ATOM     34  C   UNL     1      -4.545  -3.788  23.167  0.00  0.00    +0.040 A 
ATOM     35  C   UNL     1      -3.299  -4.411  23.244  0.00  0.00    +0.124 A 
ENDBRANCH   6  30
ENDBRANCH  13  16
ENDBRANCH   9  13
BRANCH  10  14
ATOM     14  C   UNL     1      -0.406   3.459  25.274  0.00  0.00    +0.064 C 
BRANCH  14  17
ATOM      3  O   UNL     1       0.457   0.054  24.483  0.00  0.00    -0.358 OA
ATOM      8  N   UNL     1      -0.126   1.018  25.297  0.00  0.00    -0.083 NA
ATOM     17  C   UNL     1       0.095   2.178  24.672  0.00  0.00    +0.084 A 
ATOM     22  C   UNL     1       0.804   2.010  23.469  0.00  0.00    +0.072 A 
ATOM     24  C   UNL     1       1.007   0.656  23.398  0.00  0.00    +0.151 A 
BRANCH  24  23
ATOM     23  C   UNL     1       1.669  -0.222  22.426  0.00  0.00    +0.161 C 
BRANCH  23   7
ATOM      7  N   UNL     1       3.108  -0.353  22.653  0.00  0.00    -0.295 NA
ATOM     25  C   UNL     1       3.376  -1.378  23.670  0.00  0.00    +0.085 C 
ATOM     26  C   UNL     1       3.687   0.943  23.037  0.00  0.00    +0.085 C 
ATOM     27  C   UNL     1       4.880  -1.561  23.885  0.00  0.00    +0.015 C 
ATOM     28  C   UNL     1       5.200   0.834  23.230  0.00  0.00    +0.015 C 
ATOM     29  C   UNL     1       5.554  -0.243  24.249  0.00  0.00    +0.002 C 
ENDBRANCH  23   7
ENDBRANCH  24  23
ENDBRANCH  14  17
ENDBRANCH  10  14
TORSDOF 7
ENDMDL
MODEL 4
REMARK VINA RESULT:       6.9      2.354      3.529
REMARK  Name = 25313885
REMARK  7 active torsions:
REMARK  status: ('A' for Active; 'I' for Inactive)
REMARK    1  A    between atoms: N_6  and  C_30
REMARK    2  A    between atoms: N_7  and  C_23
REMARK    3  A    between atoms: C_9  and  C_13
REMARK    4  A    between atoms: C_10  and  C_14
REMARK    5  A    between atoms: C_13  and  C_16
REMARK    6  A    between atoms: C_14  and  C_17
REMARK    7  A    between atoms: C_23  and  C_24
REMARK                            x       y       z     vdW  Elec       q    Type
REMARK                         _______ _______ _______ _____ _____    ______ ____
ROOT
ATOM      4  N   UNL     1      -3.507   1.192  22.444  0.00  0.00    -0.316 NA
ATOM      9  C   UNL     1      -4.949  -0.522  24.365  0.00  0.00    +0.004 C 
ATOM     10  C   UNL     1      -5.393   0.923  24.036  0.00  0.00    +0.012 C 
ATOM     11  C   UNL     1      -4.139  -1.078  23.181  0.00  0.00    +0.019 C 
ATOM     12  C   UNL     1      -4.209   1.792  23.579  0.00  0.00    +0.085 C 
ATOM     15  C   UNL     1      -3.007  -0.144  22.758  0.00  0.00    +0.081 C 
ATOM     36  H   UNL     1      -2.726   1.791  22.176  0.00  0.00    +0.122 HD
ENDROOT
BRANCH   9  13
ATOM     13  C   UNL     1      -4.161  -0.651  25.674  0.00  0.00    +0.100 C 
BRANCH  13  16
ATOM      2  O   UNL     1      -3.516  -2.933  25.795  0.00  0.00    -0.276 OA
ATOM      5  N   UNL     1      -1.862  -1.412  25.207  0.00  0.00    -0.298 N 
ATOM      6  N   UNL     1       0.806  -0.800  24.263  0.00  0.00    -0.327 N 
ATOM     16  C   UNL     1      -3.160  -1.775  25.566  0.00  0.00    +0.216 C 
ATOM     18  C   UNL     1      -0.833  -2.442  25.087  0.00  0.00    +0.126 C 
ATOM     19  C   UNL     1      -1.442  -0.037  24.925  0.00  0.00    +0.126 C 
ATOM     20  C   UNL     1       0.190  -2.105  24.004  0.00  0.00    +0.124 C 
ATOM     21  C   UNL     1       0.065   0.165  25.079  0.00  0.00    +0.124 C 
BRANCH   6  30
ATOM      1  F   UNL     1       5.841   0.374  22.321  0.00  0.00    -0.205 F 
ATOM     30  C   UNL     1       2.076  -0.504  23.773  0.00  0.00    +0.030 A 
ATOM     31  C   UNL     1       2.301   0.696  23.099  0.00  0.00    +0.026 A 
ATOM     32  C   UNL     1       3.121  -1.408  23.956  0.00  0.00    +0.026 A 
ATOM     33  C   UNL     1       3.573   0.993  22.609  0.00  0.00    +0.040 A 
ATOM     34  C   UNL     1       4.394  -1.111  23.466  0.00  0.00    +0.040 A 
ATOM     35  C   UNL     1       4.619   0.089  22.791  0.00  0.00    +0.124 A 
ENDBRANCH   6  30
ENDBRANCH  13  16
ENDBRANCH   9  13
BRANCH  10  14
ATOM     14  C   UNL     1      -6.140   1.596  25.188  0.00  0.00    +0.064 C 
BRANCH  14  17
ATOM      3  O   UNL     1      -5.292   4.952  26.178  0.00  0.00    -0.358 OA
ATOM      8  N   UNL     1      -6.207   3.970  25.820  0.00  0.00    -0.083 NA
ATOM     17  C   UNL     1      -5.472   2.877  25.600  0.00  0.00    +0.084 A 
ATOM     22  C   UNL     1      -4.099   3.106  25.803  0.00  0.00    +0.072 A 
ATOM     24  C   UNL     1      -4.040   4.427  26.165  0.00  0.00    +0.151 A 
BRANCH  24  23
ATOM     23  C   UNL     1      -2.944   5.334  26.522  0.00  0.00    +0.161 C 
BRANCH  23   7
ATOM      7  N   UNL     1      -1.659   4.944  25.942  0.00  0.00    -0.295 NA
ATOM     25  C   UNL     1      -1.624   5.268  24.509  0.00  0.00    +0.085 C 
ATOM     26  C   UNL     1      -1.406   3.513  26.169  0.00  0.00    +0.085 C 
ATOM     27  C   UNL     1      -0.268   4.910  23.896  0.00  0.00    +0.015 C 
ATOM     28  C   UNL     1      -0.044   3.099  25.611  0.00  0.00    +0.015 C 
ATOM     29  C   UNL     1       0.077   3.444  24.130  0.00  0.00    +0.002 C 
ENDBRANCH  23   7
ENDBRANCH  24  23
ENDBRANCH  14  17
ENDBRANCH  10  14
TORSDOF 7
ENDMDL
MODEL 5
REMARK VINA RESULT:       7.1      2.118      3.560
REMARK  Name = 25313885
REMARK  7 active torsions:
REMARK  status: ('A' for Active; 'I' for Inactive)
REMARK    1  A    between atoms: N_6  and  C_30
REMARK    2  A    between atoms: N_7  and  C_23
REMARK    3  A    between atoms: C_9  and  C_13
REMARK    4  A    between atoms: C_10  and  C_14
REMARK    5  A    between atoms: C_13  and  C_16
REMARK    6  A    between atoms: C_14  and  C_17
REMARK    7  A    between atoms: C_23  and  C_24
REMARK                            x       y       z     vdW  Elec       q    Type
REMARK                         _______ _______ _______ _____ _____    ______ ____
ROOT
ATOM      4  N   UNL     1      -5.837   4.758  25.282  0.00  0.00    -0.316 NA
ATOM      9  C   UNL     1      -3.927   2.543  24.901  0.00  0.00    +0.004 C 
ATOM     10  C   UNL     1      -3.654   3.727  25.859  0.00  0.00    +0.012 C 
ATOM     11  C   UNL     1      -5.445   2.387  24.717  0.00  0.00    +0.019 C 
ATOM     12  C   UNL     1      -4.400   4.997  25.419  0.00  0.00    +0.085 C 
ATOM     15  C   UNL     1      -6.123   3.697  24.320  0.00  0.00    +0.081 C 
ATOM     36  H   UNL     1      -6.295   5.619  24.982  0.00  0.00    +0.122 HD
ENDROOT
BRANCH   9  13
ATOM     13  C   UNL     1      -3.222   2.662  23.545  0.00  0.00    +0.100 C 
BRANCH  13  16
ATOM      2  O   UNL     1      -3.562   0.489  22.650  0.00  0.00    -0.276 OA
ATOM      5  N   UNL     1      -1.378   1.063  23.195  0.00  0.00    -0.298 N 
ATOM      6  N   UNL     1       1.468   0.530  23.176  0.00  0.00    -0.327 N 
ATOM     16  C   UNL     1      -2.747   1.305  23.087  0.00  0.00    +0.216 C 
ATOM     18  C   UNL     1      -0.840  -0.230  22.777  0.00  0.00    +0.126 C 
ATOM     19  C   UNL     1      -0.409   2.038  23.703  0.00  0.00    +0.126 C 
ATOM     20  C   UNL     1       0.571  -0.103  22.204  0.00  0.00    +0.124 C 
ATOM     21  C   UNL     1       0.877   1.385  24.208  0.00  0.00    +0.124 C 
BRANCH   6  30
ATOM      1  F   UNL     1       6.908  -0.406  23.013  0.00  0.00    -0.205 F 
ATOM     30  C   UNL     1       2.840   0.294  23.134  0.00  0.00    +0.030 A 
ATOM     31  C   UNL     1       3.705   1.288  22.676  0.00  0.00    +0.026 A 
ATOM     32  C   UNL     1       3.348  -0.936  23.550  0.00  0.00    +0.026 A 
ATOM     33  C   UNL     1       5.079   1.051  22.636  0.00  0.00    +0.040 A 
ATOM     34  C   UNL     1       4.723  -1.172  23.509  0.00  0.00    +0.040 A 
ATOM     35  C   UNL     1       5.588  -0.179  23.051  0.00  0.00    +0.124 A 
ENDBRANCH   6  30
ENDBRANCH  13  16
ENDBRANCH   9  13
BRANCH  10  14
ATOM     14  C   UNL     1      -2.164   4.016  26.045  0.00  0.00    +0.064 C 
BRANCH  14  17
ATOM      3  O   UNL     1       0.237   1.530  27.053  0.00  0.00    -0.358 OA
ATOM      8  N   UNL     1      -0.173   2.847  26.886  0.00  0.00    -0.083 NA
ATOM     17  C   UNL     1      -1.399   2.763  26.362  0.00  0.00    +0.084 A 
ATOM     22  C   UNL     1      -1.812   1.432  26.179  0.00  0.00    +0.072 A 
ATOM     24  C   UNL     1      -0.747   0.696  26.630  0.00  0.00    +0.151 A 
BRANCH  24  23
ATOM     23  C   UNL     1      -0.479  -0.743  26.737  0.00  0.00    +0.161 C 
BRANCH  23   7
ATOM      7  N   UNL     1      -1.557  -1.572  26.200  0.00  0.00    -0.295 NA
ATOM     25  C   UNL     1      -1.116  -2.265  24.982  0.00  0.00    +0.085 C 
ATOM     26  C   UNL     1      -2.754  -0.756  25.944  0.00  0.00    +0.085 C 
ATOM     27  C   UNL     1      -2.217  -3.175  24.435  0.00  0.00    +0.015 C 
ATOM     28  C   UNL     1      -3.908  -1.618  25.428  0.00  0.00    +0.015 C 
ATOM     29  C   UNL     1      -3.504  -2.399  24.182  0.00  0.00    +0.002 C 
ENDBRANCH  23   7
ENDBRANCH  24  23
ENDBRANCH  14  17
ENDBRANCH  10  14
TORSDOF 7
ENDMDL
MODEL 6
REMARK VINA RESULT:       7.5      2.715      5.542
REMARK  Name = 25313885
REMARK  7 active torsions:
REMARK  status: ('A' for Active; 'I' for Inactive)
REMARK    1  A    between atoms: N_6  and  C_30
REMARK    2  A    between atoms: N_7  and  C_23
REMARK    3  A    between atoms: C_9  and  C_13
REMARK    4  A    between atoms: C_10  and  C_14
REMARK    5  A    between atoms: C_13  and  C_16
REMARK    6  A    between atoms: C_14  and  C_17
REMARK    7  A    between atoms: C_23  and  C_24
REMARK                            x       y       z     vdW  Elec       q    Type
REMARK                         _______ _______ _______ _____ _____    ______ ____
ROOT
ATOM      4  N   UNL     1      -4.204   4.123  25.970  0.00  0.00    -0.316 NA
ATOM      9  C   UNL     1      -4.759   2.817  23.384  0.00  0.00    +0.004 C 
ATOM     10  C   UNL     1      -5.597   2.544  24.655  0.00  0.00    +0.012 C 
ATOM     11  C   UNL     1      -4.102   4.203  23.504  0.00  0.00    +0.019 C 
ATOM     12  C   UNL     1      -4.779   2.778  25.936  0.00  0.00    +0.085 C 
ATOM     15  C   UNL     1      -3.342   4.376  24.818  0.00  0.00    +0.081 C 
ATOM     36  H   UNL     1      -3.664   4.237  26.828  0.00  0.00    +0.122 HD
ENDROOT
BRANCH   9  13
ATOM     13  C   UNL     1      -3.710   1.740  23.084  0.00  0.00    +0.100 C 
BRANCH  13  16
ATOM      2  O   UNL     1      -1.995   2.896  21.918  0.00  0.00    -0.276 OA
ATOM      5  N   UNL     1      -1.540   2.296  24.116  0.00  0.00    -0.298 N 
ATOM      6  N   UNL     1       0.123   2.397  26.483  0.00  0.00    -0.327 N 
ATOM     16  C   UNL     1      -2.341   2.366  22.976  0.00  0.00    +0.216 C 
ATOM     18  C   UNL     1      -0.199   2.875  24.089  0.00  0.00    +0.126 C 
ATOM     19  C   UNL     1      -1.957   1.676  25.376  0.00  0.00    +0.126 C 
ATOM     20  C   UNL     1       0.208   3.435  25.451  0.00  0.00    +0.124 C 
ATOM     21  C   UNL     1      -0.774   1.263  26.252  0.00  0.00    +0.124 C 
BRANCH   6  30
ATOM      1  F   UNL     1       3.214   2.705  31.049  0.00  0.00    -0.205 F 
ATOM     30  C   UNL     1       0.903   2.475  27.635  0.00  0.00    +0.030 A 
ATOM     31  C   UNL     1       0.358   2.127  28.871  0.00  0.00    +0.026 A 
ATOM     32  C   UNL     1       2.228   2.901  27.552  0.00  0.00    +0.026 A 
ATOM     33  C   UNL     1       1.138   2.204  30.024  0.00  0.00    +0.040 A 
ATOM     34  C   UNL     1       3.009   2.979  28.706  0.00  0.00    +0.040 A 
ATOM     35  C   UNL     1       2.464   2.630  29.942  0.00  0.00    +0.124 A 
ENDBRANCH   6  30
ENDBRANCH  13  16
ENDBRANCH   9  13
BRANCH  10  14
ATOM     14  C   UNL     1      -6.230   1.152  24.668  0.00  0.00    +0.064 C 
BRANCH  14  17
ATOM      3  O   UNL     1      -3.745  -1.045  26.068  0.00  0.00    -0.358 OA
ATOM      8  N   UNL     1      -4.614   0.036  26.146  0.00  0.00    -0.083 NA
ATOM     17  C   UNL     1      -5.207   0.089  24.949  0.00  0.00    +0.084 A 
ATOM     22  C   UNL     1      -4.756  -0.923  24.084  0.00  0.00    +0.072 A 
ATOM     24  C   UNL     1      -3.837  -1.608  24.836  0.00  0.00    +0.151 A 
BRANCH  24  23
ATOM     23  C   UNL     1      -2.980  -2.772  24.581  0.00  0.00    +0.161 C 
BRANCH  23   7
ATOM      7  N   UNL     1      -1.612  -2.410  24.212  0.00  0.00    -0.295 NA
ATOM     25  C   UNL     1      -0.771  -2.291  25.411  0.00  0.00    +0.085 C 
ATOM     26  C   UNL     1      -1.602  -1.165  23.431  0.00  0.00    +0.085 C 
ATOM     27  C   UNL     1       0.676  -1.961  25.040  0.00  0.00    +0.015 C 
ATOM     28  C   UNL     1      -0.182  -0.799  22.995  0.00  0.00    +0.015 C 
ATOM     29  C   UNL     1       0.757  -0.697  24.192  0.00  0.00    +0.002 C 
ENDBRANCH  23   7
ENDBRANCH  24  23
ENDBRANCH  14  17
ENDBRANCH  10  14
TORSDOF 7
ENDMDL
