MODEL 1
REMARK VINA RESULT:       1.2      0.000      0.000
REMARK  Name = 51137141
REMARK  6 active torsions:
REMARK  status: ('A' for Active; 'I' for Inactive)
REMARK    1  A    between atoms: S_1  and  C_18
REMARK    2  A    between atoms: S_1  and  C_23
REMARK    3  A    between atoms: N_5  and  C_13
REMARK    4  A    between atoms: C_8  and  C_12
REMARK    5  A    between atoms: C_13  and  C_14
REMARK    6  A    between atoms: C_23  and  C_26
REMARK                            x       y       z     vdW  Elec       q    Type
REMARK                         _______ _______ _______ _____ _____    ______ ____
ROOT
ATOM      2  O   UNL     1      -1.319   0.708  24.221  0.00  0.00    -0.439 OA
ATOM      6  N   UNL     1      -0.520  -1.364  23.766  0.00  0.00    -0.213 NA
ATOM     12  C   UNL     1      -1.555  -0.630  24.110  0.00  0.00    +0.201 A 
ATOM     15  C   UNL     1       0.491  -0.444  23.635  0.00  0.00    +0.111 A 
ATOM     16  C   UNL     1       0.006   0.826  23.913  0.00  0.00    +0.155 A 
ATOM     17  C   UNL     1       1.842  -0.592  23.287  0.00  0.00    +0.058 A 
ATOM     18  C   UNL     1       2.640   0.562  23.237  0.00  0.00    +0.090 A 
ATOM     19  C   UNL     1       0.765   1.989  23.874  0.00  0.00    +0.050 A 
ATOM     22  C   UNL     1       2.109   1.824  23.526  0.00  0.00    +0.030 A 
ENDROOT
BRANCH  12   8
ATOM      5  N   UNL     1      -5.129  -0.271  24.830  0.00  0.00    -0.297 NA
ATOM      8  C   UNL     1      -2.970  -1.076  24.399  0.00  0.00    +0.090 C 
ATOM      9  C   UNL     1      -3.298  -1.256  25.892  0.00  0.00    +0.029 C 
ATOM     10  C   UNL     1      -4.025  -0.087  23.886  0.00  0.00    +0.097 C 
ATOM     11  C   UNL     1      -4.493  -0.346  26.146  0.00  0.00    +0.085 C 
BRANCH   5  13
ATOM     13  C   UNL     1      -6.112   0.800  24.750  0.00  0.00    +0.119 C 
BRANCH  13  14
ATOM      7  N   UNL     1      -4.268   4.681  24.954  0.00  0.00    -0.263 NA
ATOM     14  C   UNL     1      -5.466   2.159  24.822  0.00  0.00    -0.031 A 
ATOM     20  C   UNL     1      -5.916   3.098  25.743  0.00  0.00    +0.024 A 
ATOM     21  C   UNL     1      -4.418   2.479  23.966  0.00  0.00    +0.024 A 
ATOM     24  C   UNL     1      -5.289   4.333  25.768  0.00  0.00    +0.111 A 
ATOM     25  C   UNL     1      -3.857   3.742  24.072  0.00  0.00    +0.111 A 
ENDBRANCH  13  14
ENDBRANCH   5  13
ENDBRANCH  12   8
BRANCH  18   1
ATOM      1  S   UNL     1       4.329   0.414  22.810  0.00  0.00    -0.003 S 
ATOM      3  O   UNL     1       4.437   0.305  21.362  0.00  0.00    -0.169 OA
ATOM      4  O   UNL     1       5.060   1.455  23.515  0.00  0.00    -0.169 OA
BRANCH   1  23
ATOM     23  C   UNL     1       4.818  -1.156  23.488  0.00  0.00    +0.168 C 
ATOM     26  C   UNL     1       5.829  -0.988  24.600  0.00  0.00    +0.028 C 
ENDBRANCH   1  23
ENDBRANCH  18   1
TORSDOF 5
ENDMDL
MODEL 2
REMARK VINA RESULT:       1.5      1.704      3.494
REMARK  Name = 51137141
REMARK  6 active torsions:
REMARK  status: ('A' for Active; 'I' for Inactive)
REMARK    1  A    between atoms: S_1  and  C_18
REMARK    2  A    between atoms: S_1  and  C_23
REMARK    3  A    between atoms: N_5  and  C_13
REMARK    4  A    between atoms: C_8  and  C_12
REMARK    5  A    between atoms: C_13  and  C_14
REMARK    6  A    between atoms: C_23  and  C_26
REMARK                            x       y       z     vdW  Elec       q    Type
REMARK                         _______ _______ _______ _____ _____    ______ ____
ROOT
ATOM      2  O   UNL     1      -0.571   1.020  23.206  0.00  0.00    -0.439 OA
ATOM      6  N   UNL     1       0.605   2.359  24.607  0.00  0.00    -0.213 NA
ATOM     12  C   UNL     1      -0.575   2.006  24.146  0.00  0.00    +0.201 A 
ATOM     15  C   UNL     1       1.469   1.542  23.919  0.00  0.00    +0.111 A 
ATOM     16  C   UNL     1       0.754   0.721  23.060  0.00  0.00    +0.155 A 
ATOM     17  C   UNL     1       2.867   1.428  23.957  0.00  0.00    +0.058 A 
ATOM     18  C   UNL     1       3.474   0.481  23.118  0.00  0.00    +0.090 A 
ATOM     19  C   UNL     1       1.319  -0.226  22.215  0.00  0.00    +0.050 A 
ATOM     22  C   UNL     1       2.713  -0.327  22.266  0.00  0.00    +0.030 A 
ENDROOT
BRANCH  12   8
ATOM      5  N   UNL     1      -4.168   1.928  24.858  0.00  0.00    -0.297 NA
ATOM      8  C   UNL     1      -1.933   2.552  24.524  0.00  0.00    +0.090 C 
ATOM      9  C   UNL     1      -2.786   3.038  23.338  0.00  0.00    +0.029 C 
ATOM     10  C   UNL     1      -2.815   1.520  25.239  0.00  0.00    +0.097 C 
ATOM     11  C   UNL     1      -4.081   2.241  23.431  0.00  0.00    +0.085 C 
BRANCH   5  13
ATOM     13  C   UNL     1      -5.158   0.899  25.140  0.00  0.00    +0.119 C 
BRANCH  13  14
ATOM      7  N   UNL     1      -3.525  -3.056  24.696  0.00  0.00    -0.263 NA
ATOM     14  C   UNL     1      -4.587  -0.486  24.985  0.00  0.00    -0.031 A 
ATOM     20  C   UNL     1      -3.846  -1.055  26.015  0.00  0.00    +0.024 A 
ATOM     21  C   UNL     1      -4.797  -1.200  23.810  0.00  0.00    +0.024 A 
ATOM     24  C   UNL     1      -3.342  -2.331  25.822  0.00  0.00    +0.111 A 
ATOM     25  C   UNL     1      -4.250  -2.471  23.717  0.00  0.00    +0.111 A 
ENDBRANCH  13  14
ENDBRANCH   5  13
ENDBRANCH  12   8
BRANCH  18   1
ATOM      1  S   UNL     1       5.214   0.314  23.137  0.00  0.00    -0.003 S 
ATOM      3  O   UNL     1       5.656  -0.132  21.824  0.00  0.00    -0.169 OA
ATOM      4  O   UNL     1       5.773   1.524  23.719  0.00  0.00    -0.169 OA
BRANCH   1  23
ATOM     23  C   UNL     1       5.513  -1.026  24.268  0.00  0.00    +0.168 C 
ATOM     26  C   UNL     1       4.633  -2.218  23.962  0.00  0.00    +0.028 C 
ENDBRANCH   1  23
ENDBRANCH  18   1
TORSDOF 5
ENDMDL
MODEL 3
REMARK VINA RESULT:       2.7      1.201      1.555
REMARK  Name = 51137141
REMARK  6 active torsions:
REMARK  status: ('A' for Active; 'I' for Inactive)
REMARK    1  A    between atoms: S_1  and  C_18
REMARK    2  A    between atoms: S_1  and  C_23
REMARK    3  A    between atoms: N_5  and  C_13
REMARK    4  A    between atoms: C_8  and  C_12
REMARK    5  A    between atoms: C_13  and  C_14
REMARK    6  A    between atoms: C_23  and  C_26
REMARK                            x       y       z     vdW  Elec       q    Type
REMARK                         _______ _______ _______ _____ _____    ______ ____
ROOT
ATOM      2  O   UNL     1      -0.962   0.730  23.674  0.00  0.00    -0.439 OA
ATOM      6  N   UNL     1      -0.468  -1.469  23.922  0.00  0.00    -0.213 NA
ATOM     12  C   UNL     1      -1.401  -0.543  23.887  0.00  0.00    +0.201 A 
ATOM     15  C   UNL     1       0.690  -0.759  23.716  0.00  0.00    +0.111 A 
ATOM     16  C   UNL     1       0.392   0.588  23.564  0.00  0.00    +0.155 A 
ATOM     17  C   UNL     1       2.029  -1.168  23.642  0.00  0.00    +0.058 A 
ATOM     18  C   UNL     1       3.007  -0.188  23.416  0.00  0.00    +0.090 A 
ATOM     19  C   UNL     1       1.332   1.586  23.340  0.00  0.00    +0.050 A 
ATOM     22  C   UNL     1       2.662   1.161  23.269  0.00  0.00    +0.030 A 
ENDROOT
BRANCH  12   8
ATOM      5  N   UNL     1      -4.836   0.435  24.705  0.00  0.00    -0.297 NA
ATOM      8  C   UNL     1      -2.894  -0.706  24.053  0.00  0.00    +0.090 C 
ATOM      9  C   UNL     1      -3.339  -1.200  25.441  0.00  0.00    +0.029 C 
ATOM     10  C   UNL     1      -3.666   0.602  23.840  0.00  0.00    +0.097 C 
ATOM     11  C   UNL     1      -4.310  -0.139  25.944  0.00  0.00    +0.085 C 
BRANCH   5  13
ATOM     13  C   UNL     1      -5.543   1.687  24.930  0.00  0.00    +0.119 C 
BRANCH  13  14
ATOM      7  N   UNL     1      -2.838   5.015  25.263  0.00  0.00    -0.263 NA
ATOM     14  C   UNL     1      -4.596   2.852  25.046  0.00  0.00    -0.031 A 
ATOM     20  C   UNL     1      -4.082   3.452  23.902  0.00  0.00    +0.024 A 
ATOM     21  C   UNL     1      -4.232   3.333  26.299  0.00  0.00    +0.024 A 
ATOM     24  C   UNL     1      -3.215   4.519  24.063  0.00  0.00    +0.111 A 
ATOM     25  C   UNL     1      -3.358   4.408  26.353  0.00  0.00    +0.111 A 
ENDBRANCH  13  14
ENDBRANCH   5  13
ENDBRANCH  12   8
BRANCH  18   1
ATOM      1  S   UNL     1       4.688  -0.662  23.321  0.00  0.00    -0.003 S 
ATOM      3  O   UNL     1       4.787  -2.089  23.593  0.00  0.00    -0.169 OA
ATOM      4  O   UNL     1       5.236  -0.118  22.089  0.00  0.00    -0.169 OA
BRANCH   1  23
ATOM     23  C   UNL     1       5.459   0.182  24.684  0.00  0.00    +0.168 C 
ATOM     26  C   UNL     1       6.322   1.329  24.209  0.00  0.00    +0.028 C 
ENDBRANCH   1  23
ENDBRANCH  18   1
TORSDOF 5
ENDMDL
MODEL 4
REMARK VINA RESULT:       4.0      1.642      3.417
REMARK  Name = 51137141
REMARK  6 active torsions:
REMARK  status: ('A' for Active; 'I' for Inactive)
REMARK    1  A    between atoms: S_1  and  C_18
REMARK    2  A    between atoms: S_1  and  C_23
REMARK    3  A    between atoms: N_5  and  C_13
REMARK    4  A    between atoms: C_8  and  C_12
REMARK    5  A    between atoms: C_13  and  C_14
REMARK    6  A    between atoms: C_23  and  C_26
REMARK                            x       y       z     vdW  Elec       q    Type
REMARK                         _______ _______ _______ _____ _____    ______ ____
ROOT
ATOM      2  O   UNL     1      -1.288   1.795  24.720  0.00  0.00    -0.439 OA
ATOM      6  N   UNL     1       0.429   3.276  24.683  0.00  0.00    -0.213 NA
ATOM     12  C   UNL     1      -0.829   3.050  24.991  0.00  0.00    +0.201 A 
ATOM     15  C   UNL     1       0.847   2.076  24.163  0.00  0.00    +0.111 A 
ATOM     16  C   UNL     1      -0.200   1.166  24.183  0.00  0.00    +0.155 A 
ATOM     17  C   UNL     1       2.088   1.667  23.653  0.00  0.00    +0.058 A 
ATOM     18  C   UNL     1       2.207   0.350  23.185  0.00  0.00    +0.090 A 
ATOM     19  C   UNL     1      -0.120  -0.144  23.729  0.00  0.00    +0.050 A 
ATOM     22  C   UNL     1       1.124  -0.535  23.224  0.00  0.00    +0.030 A 
ENDROOT
BRANCH  12   8
ATOM      5  N   UNL     1      -4.131   4.357  25.895  0.00  0.00    -0.297 NA
ATOM      8  C   UNL     1      -1.832   3.999  25.606  0.00  0.00    +0.090 C 
ATOM      9  C   UNL     1      -2.296   5.137  24.680  0.00  0.00    +0.029 C 
ATOM     10  C   UNL     1      -3.126   3.302  26.043  0.00  0.00    +0.097 C 
ATOM     11  C   UNL     1      -3.812   5.005  24.622  0.00  0.00    +0.085 C 
BRANCH   5  13
ATOM     13  C   UNL     1      -5.490   3.837  25.927  0.00  0.00    +0.119 C 
BRANCH  13  14
ATOM      7  N   UNL     1      -5.711  -0.163  24.361  0.00  0.00    -0.263 NA
ATOM     14  C   UNL     1      -5.568   2.437  25.378  0.00  0.00    -0.031 A 
ATOM     20  C   UNL     1      -6.738   1.984  24.780  0.00  0.00    +0.024 A 
ATOM     21  C   UNL     1      -4.468   1.590  25.469  0.00  0.00    +0.024 A 
ATOM     24  C   UNL     1      -6.758   0.688  24.292  0.00  0.00    +0.111 A 
ATOM     25  C   UNL     1      -4.589   0.311  24.949  0.00  0.00    +0.111 A 
ENDBRANCH  13  14
ENDBRANCH   5  13
ENDBRANCH  12   8
BRANCH  18   1
ATOM      1  S   UNL     1       3.740  -0.193  22.539  0.00  0.00    -0.003 S 
ATOM      3  O   UNL     1       3.995  -1.545  23.015  0.00  0.00    -0.169 OA
ATOM      4  O   UNL     1       3.747   0.087  21.112  0.00  0.00    -0.169 OA
BRANCH   1  23
ATOM     23  C   UNL     1       4.941   0.866  23.312  0.00  0.00    +0.168 C 
ATOM     26  C   UNL     1       5.752   0.122  24.349  0.00  0.00    +0.028 C 
ENDBRANCH   1  23
ENDBRANCH  18   1
TORSDOF 5
ENDMDL
MODEL 5
REMARK VINA RESULT:       5.1      3.515      8.701
REMARK  Name = 51137141
REMARK  6 active torsions:
REMARK  status: ('A' for Active; 'I' for Inactive)
REMARK    1  A    between atoms: S_1  and  C_18
REMARK    2  A    between atoms: S_1  and  C_23
REMARK    3  A    between atoms: N_5  and  C_13
REMARK    4  A    between atoms: C_8  and  C_12
REMARK    5  A    between atoms: C_13  and  C_14
REMARK    6  A    between atoms: C_23  and  C_26
REMARK                            x       y       z     vdW  Elec       q    Type
REMARK                         _______ _______ _______ _____ _____    ______ ____
ROOT
ATOM      2  O   UNL     1      -0.619   1.644  24.353  0.00  0.00    -0.439 OA
ATOM      6  N   UNL     1      -2.231   0.075  24.072  0.00  0.00    -0.213 NA
ATOM     12  C   UNL     1      -0.960   0.387  23.949  0.00  0.00    +0.201 A 
ATOM     15  C   UNL     1      -2.788   1.214  24.600  0.00  0.00    +0.111 A 
ATOM     16  C   UNL     1      -1.804   2.177  24.773  0.00  0.00    +0.155 A 
ATOM     17  C   UNL     1      -4.107   1.521  24.962  0.00  0.00    +0.058 A 
ATOM     18  C   UNL     1      -4.367   2.797  25.485  0.00  0.00    +0.090 A 
ATOM     19  C   UNL     1      -2.023   3.449  25.287  0.00  0.00    +0.050 A 
ATOM     22  C   UNL     1      -3.345   3.739  25.643  0.00  0.00    +0.030 A 
ENDROOT
BRANCH  12   8
ATOM      5  N   UNL     1       2.271  -0.346  22.386  0.00  0.00    -0.297 NA
ATOM      8  C   UNL     1       0.171  -0.465  23.420  0.00  0.00    +0.090 C 
ATOM      9  C   UNL     1       0.039  -0.865  21.940  0.00  0.00    +0.029 C 
ATOM     10  C   UNL     1       1.536   0.228  23.515  0.00  0.00    +0.097 C 
ATOM     11  C   UNL     1       1.314  -0.357  21.279  0.00  0.00    +0.085 C 
BRANCH   5  13
ATOM     13  C   UNL     1       3.476   0.407  22.069  0.00  0.00    +0.119 C 
BRANCH  13  14
ATOM      7  N   UNL     1       6.689  -0.498  24.782  0.00  0.00    -0.263 NA
ATOM     14  C   UNL     1       4.601   0.091  23.019  0.00  0.00    -0.031 A 
ATOM     20  C   UNL     1       5.514   1.077  23.375  0.00  0.00    +0.024 A 
ATOM     21  C   UNL     1       4.731  -1.191  23.544  0.00  0.00    +0.024 A 
ATOM     24  C   UNL     1       6.530   0.735  24.251  0.00  0.00    +0.111 A 
ATOM     25  C   UNL     1       5.783  -1.431  24.414  0.00  0.00    +0.111 A 
ENDBRANCH  13  14
ENDBRANCH   5  13
ENDBRANCH  12   8
BRANCH  18   1
ATOM      1  S   UNL     1      -6.002   3.216  25.945  0.00  0.00    -0.003 S 
ATOM      3  O   UNL     1      -6.304   2.587  27.223  0.00  0.00    -0.169 OA
ATOM      4  O   UNL     1      -6.155   4.654  25.789  0.00  0.00    -0.169 OA
BRANCH   1  23
ATOM     23  C   UNL     1      -7.019   2.420  24.721  0.00  0.00    +0.168 C 
ATOM     26  C   UNL     1      -6.621   0.975  24.523  0.00  0.00    +0.028 C 
ENDBRANCH   1  23
ENDBRANCH  18   1
TORSDOF 5
ENDMDL
