MODEL 1
REMARK VINA RESULT:      -1.6      0.000      0.000
REMARK  Name = 26743644
REMARK  6 active torsions:
REMARK  status: ('A' for Active; 'I' for Inactive)
REMARK    1  A    between atoms: O_4  and  C_13
REMARK    2  A    between atoms: N_6  and  C_15
REMARK    3  A    between atoms: C_11  and  C_16
REMARK    4  A    between atoms: C_15  and  C_17
REMARK    5  A    between atoms: C_18  and  C_19
REMARK    6  A    between atoms: C_26  and  C_27
REMARK                            x       y       z     vdW  Elec       q    Type
REMARK                         _______ _______ _______ _____ _____    ______ ____
ROOT
ATOM      5  O   UNL     1      -2.903   2.015  22.100  0.00  0.00    -0.336 OA
ATOM      7  N   UNL     1      -1.886   1.286  23.959  0.00  0.00    -0.190 NA
ATOM     10  N   UNL     1      -1.564   1.795  21.752  0.00  0.00    -0.056 NA
ATOM     16  C   UNL     1      -3.007   1.691  23.417  0.00  0.00    +0.245 A 
ATOM     18  C   UNL     1      -1.030   1.367  22.900  0.00  0.00    +0.202 A 
ENDROOT
BRANCH  18  19
ATOM     19  C   UNL     1       0.355   1.015  23.021  0.00  0.00    +0.022 A 
ATOM     22  C   UNL     1       0.794  -0.243  22.604  0.00  0.00    +0.012 A 
ATOM     23  C   UNL     1       1.263   1.928  23.555  0.00  0.00    +0.012 A 
ATOM     24  C   UNL     1       2.140  -0.585  22.720  0.00  0.00    +0.013 A 
ATOM     25  C   UNL     1       2.610   1.585  23.674  0.00  0.00    +0.013 A 
ATOM     26  C   UNL     1       3.049   0.328  23.256  0.00  0.00    +0.055 A 
BRANCH  26  27
ATOM      1  F   UNL     1       5.208   0.173  22.239  0.00  0.00    -0.166 F 
ATOM      2  F   UNL     1       4.670  -1.356  23.688  0.00  0.00    -0.166 F 
ATOM      3  F   UNL     1       5.149   0.658  24.353  0.00  0.00    -0.166 F 
ATOM     27  C   UNL     1       4.489  -0.039  23.381  0.00  0.00    +0.417 C 
ENDBRANCH  26  27
ENDBRANCH  18  19
BRANCH  16  11
ATOM      6  N   UNL     1      -4.453   1.254  25.395  0.00  0.00    -0.282 NA
ATOM     11  C   UNL     1      -4.377   1.842  24.043  0.00  0.00    +0.149 C 
ATOM     12  C   UNL     1      -4.787   3.314  24.230  0.00  0.00    +0.061 C 
ATOM     13  C   UNL     1      -5.117   3.447  25.711  0.00  0.00    +0.130 C 
ATOM     14  C   UNL     1      -5.453   2.028  26.128  0.00  0.00    +0.117 C 
BRANCH  13   4
ATOM      4  O   UNL     1      -6.210   4.323  25.906  0.00  0.00    -0.390 OA
ATOM     28  H   UNL     1      -6.760   4.284  25.105  0.00  0.00    +0.210 HD
ENDBRANCH  13   4
BRANCH   6  15
ATOM     15  C   UNL     1      -4.759  -0.170  25.387  0.00  0.00    +0.159 C 
BRANCH  15  17
ATOM      8  N   UNL     1      -2.389  -0.808  25.896  0.00  0.00    -0.347 N 
ATOM      9  N   UNL     1      -3.383  -1.982  24.294  0.00  0.00    -0.239 NA
ATOM     17  C   UNL     1      -3.527  -1.008  25.164  0.00  0.00    +0.121 A 
ATOM     20  C   UNL     1      -1.461  -1.712  25.464  0.00  0.00    +0.104 A 
ATOM     21  C   UNL     1      -2.097  -2.425  24.475  0.00  0.00    +0.130 A 
ATOM     29  H   UNL     1      -2.257  -0.116  26.622  0.00  0.00    +0.167 HD
ENDBRANCH  15  17
ENDBRANCH   6  15
ENDBRANCH  16  11
TORSDOF 6
ENDMDL
MODEL 2
REMARK VINA RESULT:      -1.1      1.958      3.432
REMARK  Name = 26743644
REMARK  6 active torsions:
REMARK  status: ('A' for Active; 'I' for Inactive)
REMARK    1  A    between atoms: O_4  and  C_13
REMARK    2  A    between atoms: N_6  and  C_15
REMARK    3  A    between atoms: C_11  and  C_16
REMARK    4  A    between atoms: C_15  and  C_17
REMARK    5  A    between atoms: C_18  and  C_19
REMARK    6  A    between atoms: C_26  and  C_27
REMARK                            x       y       z     vdW  Elec       q    Type
REMARK                         _______ _______ _______ _____ _____    ______ ____
ROOT
ATOM      5  O   UNL     1      -2.873   1.166  23.120  0.00  0.00    -0.336 OA
ATOM      7  N   UNL     1      -1.381   1.176  24.792  0.00  0.00    -0.190 NA
ATOM     10  N   UNL     1      -1.629   0.898  22.534  0.00  0.00    -0.056 NA
ATOM     16  C   UNL     1      -2.637   1.316  24.450  0.00  0.00    +0.245 A 
ATOM     18  C   UNL     1      -0.801   0.920  23.583  0.00  0.00    +0.202 A 
ENDROOT
BRANCH  18  19
ATOM     19  C   UNL     1       0.610   0.694  23.457  0.00  0.00    +0.022 A 
ATOM     22  C   UNL     1       1.495   1.771  23.498  0.00  0.00    +0.012 A 
ATOM     23  C   UNL     1       1.096  -0.603  23.295  0.00  0.00    +0.012 A 
ATOM     24  C   UNL     1       2.867   1.551  23.377  0.00  0.00    +0.013 A 
ATOM     25  C   UNL     1       2.468  -0.823  23.172  0.00  0.00    +0.013 A 
ATOM     26  C   UNL     1       3.354   0.254  23.214  0.00  0.00    +0.055 A 
BRANCH  26  27
ATOM      1  F   UNL     1       5.223  -1.199  23.553  0.00  0.00    -0.166 F 
ATOM      2  F   UNL     1       5.562   0.938  23.768  0.00  0.00    -0.166 F 
ATOM      3  F   UNL     1       5.271   0.072  21.795  0.00  0.00    -0.166 F 
ATOM     27  C   UNL     1       4.821   0.020  23.084  0.00  0.00    +0.417 C 
ENDBRANCH  26  27
ENDBRANCH  18  19
BRANCH  16  11
ATOM      6  N   UNL     1      -4.214   3.045  25.300  0.00  0.00    -0.282 NA
ATOM     11  C   UNL     1      -3.841   1.616  25.319  0.00  0.00    +0.149 C 
ATOM     12  C   UNL     1      -5.107   0.871  24.859  0.00  0.00    +0.061 C 
ATOM     13  C   UNL     1      -6.152   1.961  24.648  0.00  0.00    +0.130 C 
ATOM     14  C   UNL     1      -5.658   3.099  25.522  0.00  0.00    +0.117 C 
BRANCH  13   4
ATOM      4  O   UNL     1      -7.432   1.512  25.045  0.00  0.00    -0.390 OA
ATOM     28  H   UNL     1      -7.927   2.287  25.364  0.00  0.00    +0.210 HD
ENDBRANCH  13   4
BRANCH   6  15
ATOM     15  C   UNL     1      -3.480   3.845  26.270  0.00  0.00    +0.159 C 
BRANCH  15  17
ATOM      8  N   UNL     1      -1.045   3.792  25.678  0.00  0.00    -0.347 N 
ATOM      9  N   UNL     1      -2.141   5.633  25.095  0.00  0.00    -0.239 NA
ATOM     17  C   UNL     1      -2.240   4.456  25.670  0.00  0.00    +0.121 A 
ATOM     20  C   UNL     1      -0.126   4.598  25.069  0.00  0.00    +0.104 A 
ATOM     21  C   UNL     1      -0.825   5.728  24.717  0.00  0.00    +0.130 A 
ATOM     29  H   UNL     1      -0.871   2.874  26.066  0.00  0.00    +0.167 HD
ENDBRANCH  15  17
ENDBRANCH   6  15
ENDBRANCH  16  11
TORSDOF 6
ENDMDL
MODEL 3
REMARK VINA RESULT:      -1.0      1.539      2.178
REMARK  Name = 26743644
REMARK  6 active torsions:
REMARK  status: ('A' for Active; 'I' for Inactive)
REMARK    1  A    between atoms: O_4  and  C_13
REMARK    2  A    between atoms: N_6  and  C_15
REMARK    3  A    between atoms: C_11  and  C_16
REMARK    4  A    between atoms: C_15  and  C_17
REMARK    5  A    between atoms: C_18  and  C_19
REMARK    6  A    between atoms: C_26  and  C_27
REMARK                            x       y       z     vdW  Elec       q    Type
REMARK                         _______ _______ _______ _____ _____    ______ ____
ROOT
ATOM      5  O   UNL     1      -1.864   0.746  22.889  0.00  0.00    -0.336 OA
ATOM      7  N   UNL     1      -0.277   1.880  23.992  0.00  0.00    -0.190 NA
ATOM     10  N   UNL     1      -0.656   0.092  22.616  0.00  0.00    -0.056 NA
ATOM     16  C   UNL     1      -1.551   1.787  23.706  0.00  0.00    +0.245 A 
ATOM     18  C   UNL     1       0.232   0.819  23.301  0.00  0.00    +0.202 A 
ENDROOT
BRANCH  18  19
ATOM     19  C   UNL     1       1.633   0.513  23.314  0.00  0.00    +0.022 A 
ATOM     22  C   UNL     1       2.568   1.515  23.048  0.00  0.00    +0.012 A 
ATOM     23  C   UNL     1       2.062  -0.783  23.593  0.00  0.00    +0.012 A 
ATOM     24  C   UNL     1       3.930   1.219  23.062  0.00  0.00    +0.013 A 
ATOM     25  C   UNL     1       3.425  -1.081  23.605  0.00  0.00    +0.013 A 
ATOM     26  C   UNL     1       4.359  -0.079  23.340  0.00  0.00    +0.055 A 
BRANCH  26  27
ATOM      1  F   UNL     1       6.109  -1.599  23.932  0.00  0.00    -0.166 F 
ATOM      2  F   UNL     1       6.548   0.528  24.042  0.00  0.00    -0.166 F 
ATOM      3  F   UNL     1       6.376  -0.452  22.109  0.00  0.00    -0.166 F 
ATOM     27  C   UNL     1       5.816  -0.395  23.354  0.00  0.00    +0.417 C 
ENDBRANCH  26  27
ENDBRANCH  18  19
BRANCH  16  11
ATOM      6  N   UNL     1      -3.505   2.043  25.226  0.00  0.00    -0.282 NA
ATOM     11  C   UNL     1      -2.703   2.663  24.153  0.00  0.00    +0.149 C 
ATOM     12  C   UNL     1      -2.235   4.008  24.737  0.00  0.00    +0.061 C 
ATOM     13  C   UNL     1      -2.862   4.075  26.124  0.00  0.00    +0.130 C 
ATOM     14  C   UNL     1      -4.052   3.141  26.021  0.00  0.00    +0.117 C 
BRANCH  13   4
ATOM      4  O   UNL     1      -3.257   5.397  26.433  0.00  0.00    -0.390 OA
ATOM     28  H   UNL     1      -3.403   5.862  25.591  0.00  0.00    +0.210 HD
ENDBRANCH  13   4
BRANCH   6  15
ATOM     15  C   UNL     1      -4.547   1.156  24.727  0.00  0.00    +0.159 C 
BRANCH  15  17
ATOM      8  N   UNL     1      -4.245  -1.112  23.702  0.00  0.00    -0.347 N 
ATOM      9  N   UNL     1      -3.629  -0.922  25.827  0.00  0.00    -0.239 NA
ATOM     17  C   UNL     1      -4.130  -0.290  24.789  0.00  0.00    +0.121 A 
ATOM     20  C   UNL     1      -3.790  -2.345  24.071  0.00  0.00    +0.104 A 
ATOM     21  C   UNL     1      -3.416  -2.204  25.387  0.00  0.00    +0.130 A 
ATOM     29  H   UNL     1      -4.605  -0.855  22.792  0.00  0.00    +0.167 HD
ENDBRANCH  15  17
ENDBRANCH   6  15
ENDBRANCH  16  11
TORSDOF 6
ENDMDL
MODEL 4
REMARK VINA RESULT:       1.3      2.057      3.780
REMARK  Name = 26743644
REMARK  6 active torsions:
REMARK  status: ('A' for Active; 'I' for Inactive)
REMARK    1  A    between atoms: O_4  and  C_13
REMARK    2  A    between atoms: N_6  and  C_15
REMARK    3  A    between atoms: C_11  and  C_16
REMARK    4  A    between atoms: C_15  and  C_17
REMARK    5  A    between atoms: C_18  and  C_19
REMARK    6  A    between atoms: C_26  and  C_27
REMARK                            x       y       z     vdW  Elec       q    Type
REMARK                         _______ _______ _______ _____ _____    ______ ____
ROOT
ATOM      5  O   UNL     1      -1.434   0.719  23.519  0.00  0.00    -0.336 OA
ATOM      7  N   UNL     1      -0.117  -0.886  24.362  0.00  0.00    -0.190 NA
ATOM     10  N   UNL     1      -0.124   1.061  23.159  0.00  0.00    -0.056 NA
ATOM     16  C   UNL     1      -1.340  -0.439  24.224  0.00  0.00    +0.245 A 
ATOM     18  C   UNL     1       0.594   0.068  23.692  0.00  0.00    +0.202 A 
ENDROOT
BRANCH  18  19
ATOM     19  C   UNL     1       2.022  -0.000  23.575  0.00  0.00    +0.022 A 
ATOM     22  C   UNL     1       2.694  -1.176  23.911  0.00  0.00    +0.012 A 
ATOM     23  C   UNL     1       2.739   1.108  23.125  0.00  0.00    +0.012 A 
ATOM     24  C   UNL     1       4.082  -1.243  23.796  0.00  0.00    +0.013 A 
ATOM     25  C   UNL     1       4.127   1.042  23.012  0.00  0.00    +0.013 A 
ATOM     26  C   UNL     1       4.799  -0.134  23.347  0.00  0.00    +0.055 A 
BRANCH  26  27
ATOM      1  F   UNL     1       6.858  -1.109  24.075  0.00  0.00    -0.166 F 
ATOM      2  F   UNL     1       6.891   0.985  23.493  0.00  0.00    -0.166 F 
ATOM      3  F   UNL     1       6.714  -0.566  21.979  0.00  0.00    -0.166 F 
ATOM     27  C   UNL     1       6.283  -0.206  23.225  0.00  0.00    +0.417 C 
ENDBRANCH  26  27
ENDBRANCH  18  19
BRANCH  16  11
ATOM      6  N   UNL     1      -3.807  -0.178  24.424  0.00  0.00    -0.282 NA
ATOM     11  C   UNL     1      -2.640  -1.027  24.733  0.00  0.00    +0.149 C 
ATOM     12  C   UNL     1      -2.965  -2.391  24.097  0.00  0.00    +0.061 C 
ATOM     13  C   UNL     1      -4.354  -2.224  23.494  0.00  0.00    +0.130 C 
ATOM     14  C   UNL     1      -4.951  -1.078  24.290  0.00  0.00    +0.117 C 
BRANCH  13   4
ATOM      4  O   UNL     1      -5.110  -3.411  23.636  0.00  0.00    -0.390 OA
ATOM     28  H   UNL     1      -5.981  -3.161  23.988  0.00  0.00    +0.210 HD
ENDBRANCH  13   4
BRANCH   6  15
ATOM     15  C   UNL     1      -4.042   0.862  25.418  0.00  0.00    +0.159 C 
BRANCH  15  17
ATOM      8  N   UNL     1      -2.526   2.858  25.401  0.00  0.00    -0.347 N 
ATOM      9  N   UNL     1      -4.244   2.938  23.997  0.00  0.00    -0.239 NA
ATOM     17  C   UNL     1      -3.634   2.221  24.914  0.00  0.00    +0.121 A 
ATOM     20  C   UNL     1      -2.425   4.056  24.754  0.00  0.00    +0.104 A 
ATOM     21  C   UNL     1      -3.496   4.084  23.893  0.00  0.00    +0.130 A 
ATOM     29  H   UNL     1      -1.898   2.508  26.113  0.00  0.00    +0.167 HD
ENDBRANCH  15  17
ENDBRANCH   6  15
ENDBRANCH  16  11
TORSDOF 6
ENDMDL
MODEL 5
REMARK VINA RESULT:       1.3      2.052      3.834
REMARK  Name = 26743644
REMARK  6 active torsions:
REMARK  status: ('A' for Active; 'I' for Inactive)
REMARK    1  A    between atoms: O_4  and  C_13
REMARK    2  A    between atoms: N_6  and  C_15
REMARK    3  A    between atoms: C_11  and  C_16
REMARK    4  A    between atoms: C_15  and  C_17
REMARK    5  A    between atoms: C_18  and  C_19
REMARK    6  A    between atoms: C_26  and  C_27
REMARK                            x       y       z     vdW  Elec       q    Type
REMARK                         _______ _______ _______ _____ _____    ______ ____
ROOT
ATOM      5  O   UNL     1      -1.430   0.631  23.484  0.00  0.00    -0.336 OA
ATOM      7  N   UNL     1      -0.101  -0.947  24.358  0.00  0.00    -0.190 NA
ATOM     10  N   UNL     1      -0.122   0.979  23.124  0.00  0.00    -0.056 NA
ATOM     16  C   UNL     1      -1.328  -0.515  24.209  0.00  0.00    +0.245 A 
ATOM     18  C   UNL     1       0.603   0.001  23.675  0.00  0.00    +0.202 A 
ENDROOT
BRANCH  18  19
ATOM     19  C   UNL     1       2.032  -0.055  23.564  0.00  0.00    +0.022 A 
ATOM     22  C   UNL     1       2.742   1.061  23.118  0.00  0.00    +0.012 A 
ATOM     23  C   UNL     1       2.713  -1.224  23.903  0.00  0.00    +0.012 A 
ATOM     24  C   UNL     1       4.131   1.007  23.011  0.00  0.00    +0.013 A 
ATOM     25  C   UNL     1       4.102  -1.279  23.794  0.00  0.00    +0.013 A 
ATOM     26  C   UNL     1       4.812  -0.163  23.349  0.00  0.00    +0.055 A 
BRANCH  26  27
ATOM      1  F   UNL     1       6.913   0.967  23.514  0.00  0.00    -0.166 F 
ATOM      2  F   UNL     1       6.714  -0.562  21.981  0.00  0.00    -0.166 F 
ATOM      3  F   UNL     1       6.877  -1.129  24.073  0.00  0.00    -0.166 F 
ATOM     27  C   UNL     1       6.297  -0.220  23.234  0.00  0.00    +0.417 C 
ENDBRANCH  26  27
ENDBRANCH  18  19
BRANCH  16  11
ATOM      6  N   UNL     1      -3.791  -0.244  24.448  0.00  0.00    -0.282 NA
ATOM     11  C   UNL     1      -2.624  -1.107  24.723  0.00  0.00    +0.149 C 
ATOM     12  C   UNL     1      -2.965  -2.454  24.063  0.00  0.00    +0.061 C 
ATOM     13  C   UNL     1      -4.362  -2.267  23.482  0.00  0.00    +0.130 C 
ATOM     14  C   UNL     1      -4.941  -1.136  24.310  0.00  0.00    +0.117 C 
BRANCH  13   4
ATOM      4  O   UNL     1      -5.122  -3.453  23.610  0.00  0.00    -0.390 OA
ATOM     28  H   UNL     1      -5.528  -3.632  22.744  0.00  0.00    +0.210 HD
ENDBRANCH  13   4
BRANCH   6  15
ATOM     15  C   UNL     1      -4.006   0.775  25.466  0.00  0.00    +0.159 C 
BRANCH  15  17
ATOM      8  N   UNL     1      -2.406   2.682  25.171  0.00  0.00    -0.347 N 
ATOM      9  N   UNL     1      -4.432   2.978  24.309  0.00  0.00    -0.239 NA
ATOM     17  C   UNL     1      -3.650   2.151  24.967  0.00  0.00    +0.121 A 
ATOM     20  C   UNL     1      -2.396   3.927  24.608  0.00  0.00    +0.104 A 
ATOM     21  C   UNL     1      -3.656   4.087  24.083  0.00  0.00    +0.130 A 
ATOM     29  H   UNL     1      -1.636   2.238  25.653  0.00  0.00    +0.167 HD
ENDBRANCH  15  17
ENDBRANCH   6  15
ENDBRANCH  16  11
TORSDOF 6
ENDMDL
