MODEL 1
REMARK VINA RESULT:      -3.3      0.000      0.000
REMARK  Name = 7144121
REMARK  3 active torsions:
REMARK  status: ('A' for Active; 'I' for Inactive)
REMARK    1  A    between atoms: O_2  and  C_21
REMARK    2  A    between atoms: O_2  and  C_22
REMARK    3  A    between atoms: C_12  and  C_16
REMARK                            x       y       z     vdW  Elec       q    Type
REMARK                         _______ _______ _______ _____ _____    ______ ____
ROOT
ATOM      1  O   UNL     1      -5.094   2.107  24.482  0.00  0.00    -0.268 OA
ATOM      3  N   UNL     1      -3.366   0.528  24.409  0.00  0.00    -0.311 N 
ATOM      4  N   UNL     1      -2.066  -1.104  26.825  0.00  0.00    -0.315 NA
ATOM      5  C   UNL     1      -3.731  -1.906  25.137  0.00  0.00    +0.023 C 
ATOM      6  C   UNL     1      -1.520  -1.176  24.383  0.00  0.00    +0.051 C 
ATOM      7  C   UNL     1      -2.620  -2.208  24.145  0.00  0.00    +0.017 C 
ATOM      8  C   UNL     1      -4.309  -0.526  24.813  0.00  0.00    +0.130 C 
ATOM      9  C   UNL     1      -2.020   0.243  24.103  0.00  0.00    +0.034 A 
ATOM     10  C   UNL     1      -3.198  -1.996  26.579  0.00  0.00    +0.086 C 
ATOM     11  C   UNL     1      -1.005  -1.301  25.835  0.00  0.00    +0.090 C 
ATOM     12  C   UNL     1      -1.221   1.218  23.597  0.00  0.00    +0.002 A 
ATOM     13  C   UNL     1      -3.924   1.807  24.241  0.00  0.00    +0.252 A 
ATOM     14  C   UNL     1      -1.760   2.553  23.414  0.00  0.00    +0.015 A 
ATOM     15  C   UNL     1      -3.021   2.858  23.721  0.00  0.00    +0.071 A 
ATOM     23  H   UNL     1      -1.697  -1.267  27.760  0.00  0.00    +0.122 HD
ENDROOT
BRANCH  12  16
ATOM     16  C   UNL     1       0.178   0.944  23.277  0.00  0.00    -0.016 A 
ATOM     17  C   UNL     1       0.497  -0.103  22.418  0.00  0.00    +0.012 A 
ATOM     18  C   UNL     1       1.180   1.733  23.834  0.00  0.00    +0.012 A 
ATOM     19  C   UNL     1       1.833  -0.364  22.112  0.00  0.00    +0.046 A 
ATOM     20  C   UNL     1       2.515   1.473  23.526  0.00  0.00    +0.046 A 
ATOM     21  C   UNL     1       2.842   0.424  22.666  0.00  0.00    +0.120 A 
BRANCH  21   2
ATOM      2  O   UNL     1       4.146   0.171  22.368  0.00  0.00    -0.495 OA
ATOM     22  C   UNL     1       5.091   0.296  23.430  0.00  0.00    +0.277 C 
ENDBRANCH  21   2
ENDBRANCH  12  16
TORSDOF 2
ENDMDL
MODEL 2
REMARK VINA RESULT:      -3.2      2.142      5.866
REMARK  Name = 7144121
REMARK  3 active torsions:
REMARK  status: ('A' for Active; 'I' for Inactive)
REMARK    1  A    between atoms: O_2  and  C_21
REMARK    2  A    between atoms: O_2  and  C_22
REMARK    3  A    between atoms: C_12  and  C_16
REMARK                            x       y       z     vdW  Elec       q    Type
REMARK                         _______ _______ _______ _____ _____    ______ ____
ROOT
ATOM      1  O   UNL     1       1.004  -1.011  23.463  0.00  0.00    -0.268 OA
ATOM      3  N   UNL     1      -1.129  -0.794  24.406  0.00  0.00    -0.311 N 
ATOM      4  N   UNL     1      -3.885  -2.045  23.391  0.00  0.00    -0.315 NA
ATOM      5  C   UNL     1      -2.434  -2.826  25.274  0.00  0.00    +0.023 C 
ATOM      6  C   UNL     1      -3.436  -0.595  25.382  0.00  0.00    +0.051 C 
ATOM      7  C   UNL     1      -3.073  -1.820  26.218  0.00  0.00    +0.017 C 
ATOM      8  C   UNL     1      -1.133  -2.227  24.734  0.00  0.00    +0.130 C 
ATOM      9  C   UNL     1      -2.189   0.057  24.780  0.00  0.00    +0.034 A 
ATOM     10  C   UNL     1      -3.419  -3.203  24.152  0.00  0.00    +0.086 C 
ATOM     11  C   UNL     1      -4.429  -1.009  24.272  0.00  0.00    +0.090 C 
ATOM     12  C   UNL     1      -2.081   1.397  24.585  0.00  0.00    +0.002 A 
ATOM     13  C   UNL     1       0.045  -0.315  23.800  0.00  0.00    +0.252 A 
ATOM     14  C   UNL     1      -0.885   1.928  23.957  0.00  0.00    +0.015 A 
ATOM     15  C   UNL     1       0.120   1.145  23.568  0.00  0.00    +0.071 A 
ATOM     23  H   UNL     1      -4.597  -2.336  22.723  0.00  0.00    +0.122 HD
ENDROOT
BRANCH  12  16
ATOM     16  C   UNL     1      -3.170   2.295  24.962  0.00  0.00    -0.016 A 
ATOM     17  C   UNL     1      -4.468   2.019  24.546  0.00  0.00    +0.012 A 
ATOM     18  C   UNL     1      -2.900   3.420  25.736  0.00  0.00    +0.012 A 
ATOM     19  C   UNL     1      -5.509   2.876  24.908  0.00  0.00    +0.046 A 
ATOM     20  C   UNL     1      -3.940   4.276  26.098  0.00  0.00    +0.046 A 
ATOM     21  C   UNL     1      -5.244   4.004  25.683  0.00  0.00    +0.120 A 
BRANCH  21   2
ATOM      2  O   UNL     1      -6.258   4.841  26.037  0.00  0.00    -0.495 OA
ATOM     22  C   UNL     1      -6.595   5.878  25.115  0.00  0.00    +0.277 C 
ENDBRANCH  21   2
ENDBRANCH  12  16
TORSDOF 2
ENDMDL
MODEL 3
REMARK VINA RESULT:      -2.9      3.546      5.609
REMARK  Name = 7144121
REMARK  3 active torsions:
REMARK  status: ('A' for Active; 'I' for Inactive)
REMARK    1  A    between atoms: O_2  and  C_21
REMARK    2  A    between atoms: O_2  and  C_22
REMARK    3  A    between atoms: C_12  and  C_16
REMARK                            x       y       z     vdW  Elec       q    Type
REMARK                         _______ _______ _______ _____ _____    ______ ____
ROOT
ATOM      1  O   UNL     1      -5.539   5.166  25.881  0.00  0.00    -0.268 OA
ATOM      3  N   UNL     1      -3.840   3.583  25.575  0.00  0.00    -0.311 N 
ATOM      4  N   UNL     1      -1.623   3.469  23.280  0.00  0.00    -0.315 NA
ATOM      5  C   UNL     1      -1.359   4.234  25.649  0.00  0.00    +0.023 C 
ATOM      6  C   UNL     1      -1.998   1.913  25.205  0.00  0.00    +0.051 C 
ATOM      7  C   UNL     1      -1.155   2.801  26.116  0.00  0.00    +0.017 C 
ATOM      8  C   UNL     1      -2.827   4.609  25.861  0.00  0.00    +0.130 C 
ATOM      9  C   UNL     1      -3.489   2.239  25.337  0.00  0.00    +0.034 A 
ATOM     10  C   UNL     1      -0.920   4.383  24.180  0.00  0.00    +0.086 C 
ATOM     11  C   UNL     1      -1.527   2.083  23.743  0.00  0.00    +0.090 C 
ATOM     12  C   UNL     1      -4.460   1.296  25.218  0.00  0.00    +0.002 A 
ATOM     13  C   UNL     1      -5.177   4.009  25.665  0.00  0.00    +0.252 A 
ATOM     14  C   UNL     1      -5.852   1.699  25.301  0.00  0.00    +0.015 A 
ATOM     15  C   UNL     1      -6.214   2.966  25.497  0.00  0.00    +0.071 A 
ATOM     23  H   UNL     1      -1.234   3.546  22.342  0.00  0.00    +0.122 HD
ENDROOT
BRANCH  12  16
ATOM     16  C   UNL     1      -4.117  -0.101  24.968  0.00  0.00    -0.016 A 
ATOM     17  C   UNL     1      -3.521  -0.856  25.973  0.00  0.00    +0.012 A 
ATOM     18  C   UNL     1      -4.389  -0.667  23.726  0.00  0.00    +0.012 A 
ATOM     19  C   UNL     1      -3.194  -2.192  25.735  0.00  0.00    +0.046 A 
ATOM     20  C   UNL     1      -4.063  -2.002  23.489  0.00  0.00    +0.046 A 
ATOM     21  C   UNL     1      -3.465  -2.764  24.492  0.00  0.00    +0.120 A 
BRANCH  21   2
ATOM      2  O   UNL     1      -3.147  -4.067  24.259  0.00  0.00    -0.495 OA
ATOM     22  C   UNL     1      -2.307  -4.339  23.136  0.00  0.00    +0.277 C 
ENDBRANCH  21   2
ENDBRANCH  12  16
TORSDOF 2
ENDMDL
MODEL 4
REMARK VINA RESULT:      -2.8      1.271      3.541
REMARK  Name = 7144121
REMARK  3 active torsions:
REMARK  status: ('A' for Active; 'I' for Inactive)
REMARK    1  A    between atoms: O_2  and  C_21
REMARK    2  A    between atoms: O_2  and  C_22
REMARK    3  A    between atoms: C_12  and  C_16
REMARK                            x       y       z     vdW  Elec       q    Type
REMARK                         _______ _______ _______ _____ _____    ______ ____
ROOT
ATOM      1  O   UNL     1      -5.027  -0.516  25.794  0.00  0.00    -0.268 OA
ATOM      3  N   UNL     1      -3.392   0.983  25.043  0.00  0.00    -0.311 N 
ATOM      4  N   UNL     1      -3.540   3.015  22.585  0.00  0.00    -0.315 NA
ATOM      5  C   UNL     1      -3.792   3.518  25.024  0.00  0.00    +0.023 C 
ATOM      6  C   UNL     1      -1.672   2.611  24.201  0.00  0.00    +0.051 C 
ATOM      7  C   UNL     1      -2.282   3.603  25.188  0.00  0.00    +0.017 C 
ATOM      8  C   UNL     1      -4.246   2.115  25.432  0.00  0.00    +0.130 C 
ATOM      9  C   UNL     1      -2.096   1.175  24.522  0.00  0.00    +0.034 A 
ATOM     10  C   UNL     1      -4.190   3.869  23.578  0.00  0.00    +0.086 C 
ATOM     11  C   UNL     1      -2.087   2.997  22.763  0.00  0.00    +0.090 C 
ATOM     12  C   UNL     1      -1.287   0.105  24.310  0.00  0.00    +0.002 A 
ATOM     13  C   UNL     1      -3.909  -0.292  25.329  0.00  0.00    +0.252 A 
ATOM     14  C   UNL     1      -1.787  -1.228  24.590  0.00  0.00    +0.015 A 
ATOM     15  C   UNL     1      -3.017  -1.442  25.056  0.00  0.00    +0.071 A 
ATOM     23  H   UNL     1      -3.768   3.345  21.648  0.00  0.00    +0.122 HD
ENDROOT
BRANCH  12  16
ATOM     16  C   UNL     1       0.058   0.283  23.768  0.00  0.00    -0.016 A 
ATOM     17  C   UNL     1       0.861   1.317  24.238  0.00  0.00    +0.012 A 
ATOM     18  C   UNL     1       0.526  -0.585  22.786  0.00  0.00    +0.012 A 
ATOM     19  C   UNL     1       2.146   1.486  23.721  0.00  0.00    +0.046 A 
ATOM     20  C   UNL     1       1.811  -0.416  22.270  0.00  0.00    +0.046 A 
ATOM     21  C   UNL     1       2.620   0.619  22.737  0.00  0.00    +0.120 A 
BRANCH  21   2
ATOM      2  O   UNL     1       3.874   0.783  22.232  0.00  0.00    -0.495 OA
ATOM     22  C   UNL     1       4.965   0.374  23.058  0.00  0.00    +0.277 C 
ENDBRANCH  21   2
ENDBRANCH  12  16
TORSDOF 2
ENDMDL
MODEL 5
REMARK VINA RESULT:      -2.5      1.269      1.751
REMARK  Name = 7144121
REMARK  3 active torsions:
REMARK  status: ('A' for Active; 'I' for Inactive)
REMARK    1  A    between atoms: O_2  and  C_21
REMARK    2  A    between atoms: O_2  and  C_22
REMARK    3  A    between atoms: C_12  and  C_16
REMARK                            x       y       z     vdW  Elec       q    Type
REMARK                         _______ _______ _______ _____ _____    ______ ____
ROOT
ATOM      1  O   UNL     1      -3.978   3.818  26.047  0.00  0.00    -0.268 OA
ATOM      3  N   UNL     1      -3.007   1.930  25.057  0.00  0.00    -0.311 N 
ATOM      4  N   UNL     1      -2.663  -0.998  26.282  0.00  0.00    -0.315 NA
ATOM      5  C   UNL     1      -4.356  -0.208  24.617  0.00  0.00    +0.023 C 
ATOM      6  C   UNL     1      -1.979  -0.124  24.038  0.00  0.00    +0.051 C 
ATOM      7  C   UNL     1      -3.370  -0.412  23.478  0.00  0.00    +0.017 C 
ATOM      8  C   UNL     1      -4.318   1.264  25.034  0.00  0.00    +0.130 C 
ATOM      9  C   UNL     1      -1.858   1.329  24.504  0.00  0.00    +0.034 A 
ATOM     10  C   UNL     1      -4.028  -1.158  25.783  0.00  0.00    +0.086 C 
ATOM     11  C   UNL     1      -1.682  -1.099  25.200  0.00  0.00    +0.090 C 
ATOM     12  C   UNL     1      -0.701   2.035  24.418  0.00  0.00    +0.002 A 
ATOM     13  C   UNL     1      -3.003   3.242  25.564  0.00  0.00    +0.252 A 
ATOM     14  C   UNL     1      -0.657   3.391  24.934  0.00  0.00    +0.015 A 
ATOM     15  C   UNL     1      -1.719   3.975  25.488  0.00  0.00    +0.071 A 
ATOM     23  H   UNL     1      -2.470  -1.706  26.988  0.00  0.00    +0.122 HD
ENDROOT
BRANCH  12  16
ATOM     16  C   UNL     1       0.501   1.429  23.851  0.00  0.00    -0.016 A 
ATOM     17  C   UNL     1       1.688   2.156  23.812  0.00  0.00    +0.012 A 
ATOM     18  C   UNL     1       0.452   0.130  23.356  0.00  0.00    +0.012 A 
ATOM     19  C   UNL     1       2.837   1.576  23.271  0.00  0.00    +0.046 A 
ATOM     20  C   UNL     1       1.601  -0.449  22.817  0.00  0.00    +0.046 A 
ATOM     21  C   UNL     1       2.792   0.274  22.774  0.00  0.00    +0.120 A 
BRANCH  21   2
ATOM      2  O   UNL     1       3.913  -0.292  22.247  0.00  0.00    -0.495 OA
ATOM     22  C   UNL     1       5.160   0.057  22.848  0.00  0.00    +0.277 C 
ENDBRANCH  21   2
ENDBRANCH  12  16
TORSDOF 2
ENDMDL
MODEL 6
REMARK VINA RESULT:      -2.2      2.496      6.452
REMARK  Name = 7144121
REMARK  3 active torsions:
REMARK  status: ('A' for Active; 'I' for Inactive)
REMARK    1  A    between atoms: O_2  and  C_21
REMARK    2  A    between atoms: O_2  and  C_22
REMARK    3  A    between atoms: C_12  and  C_16
REMARK                            x       y       z     vdW  Elec       q    Type
REMARK                         _______ _______ _______ _____ _____    ______ ____
ROOT
ATOM      1  O   UNL     1      -0.786  -3.083  24.769  0.00  0.00    -0.268 OA
ATOM      3  N   UNL     1      -1.167  -0.809  24.356  0.00  0.00    -0.311 N 
ATOM      4  N   UNL     1       0.552   1.700  25.326  0.00  0.00    -0.315 NA
ATOM      5  C   UNL     1       0.521   0.629  23.064  0.00  0.00    +0.023 C 
ATOM      6  C   UNL     1      -1.529   1.642  23.937  0.00  0.00    +0.051 C 
ATOM      7  C   UNL     1      -0.704   1.439  22.669  0.00  0.00    +0.017 C 
ATOM      8  C   UNL     1       0.058  -0.749  23.544  0.00  0.00    +0.130 C 
ATOM      9  C   UNL     1      -2.017   0.305  24.502  0.00  0.00    +0.034 A 
ATOM     10  C   UNL     1       1.335   1.381  24.132  0.00  0.00    +0.086 C 
ATOM     11  C   UNL     1      -0.684   2.405  24.982  0.00  0.00    +0.090 C 
ATOM     12  C   UNL     1      -3.208   0.168  25.141  0.00  0.00    +0.002 A 
ATOM     13  C   UNL     1      -1.486  -2.076  24.877  0.00  0.00    +0.252 A 
ATOM     14  C   UNL     1      -3.570  -1.123  25.696  0.00  0.00    +0.015 A 
ATOM     15  C   UNL     1      -2.774  -2.187  25.598  0.00  0.00    +0.071 A 
ATOM     23  H   UNL     1       1.109   2.271  25.959  0.00  0.00    +0.122 HD
ENDROOT
BRANCH  12  16
ATOM     16  C   UNL     1      -4.102   1.312  25.306  0.00  0.00    -0.016 A 
ATOM     17  C   UNL     1      -5.475   1.143  25.151  0.00  0.00    +0.012 A 
ATOM     18  C   UNL     1      -3.574   2.560  25.618  0.00  0.00    +0.012 A 
ATOM     19  C   UNL     1      -6.328   2.235  25.310  0.00  0.00    +0.046 A 
ATOM     20  C   UNL     1      -4.428   3.652  25.778  0.00  0.00    +0.046 A 
ATOM     21  C   UNL     1      -5.804   3.490  25.624  0.00  0.00    +0.120 A 
BRANCH  21   2
ATOM      2  O   UNL     1      -6.636   4.556  25.779  0.00  0.00    -0.495 OA
ATOM     22  C   UNL     1      -6.266   5.769  25.125  0.00  0.00    +0.277 C 
ENDBRANCH  21   2
ENDBRANCH  12  16
TORSDOF 2
ENDMDL
MODEL 7
REMARK VINA RESULT:      -1.3      3.299      5.588
REMARK  Name = 7144121
REMARK  3 active torsions:
REMARK  status: ('A' for Active; 'I' for Inactive)
REMARK    1  A    between atoms: O_2  and  C_21
REMARK    2  A    between atoms: O_2  and  C_22
REMARK    3  A    between atoms: C_12  and  C_16
REMARK                            x       y       z     vdW  Elec       q    Type
REMARK                         _______ _______ _______ _____ _____    ______ ____
ROOT
ATOM      1  O   UNL     1      -0.256   4.992  25.377  0.00  0.00    -0.268 OA
ATOM      3  N   UNL     1      -2.060   3.615  24.795  0.00  0.00    -0.311 N 
ATOM      4  N   UNL     1      -4.912   3.376  26.210  0.00  0.00    -0.315 NA
ATOM      5  C   UNL     1      -4.331   4.589  24.099  0.00  0.00    +0.023 C 
ATOM      6  C   UNL     1      -4.025   2.162  24.209  0.00  0.00    +0.051 C 
ATOM      7  C   UNL     1      -4.462   3.305  23.295  0.00  0.00    +0.017 C 
ATOM      8  C   UNL     1      -2.853   4.801  24.437  0.00  0.00    +0.130 C 
ATOM      9  C   UNL     1      -2.557   2.308  24.617  0.00  0.00    +0.034 A 
ATOM     10  C   UNL     1      -5.218   4.523  25.356  0.00  0.00    +0.086 C 
ATOM     11  C   UNL     1      -4.940   2.123  25.454  0.00  0.00    +0.090 C 
ATOM     12  C   UNL     1      -1.742   1.241  24.825  0.00  0.00    +0.002 A 
ATOM     13  C   UNL     1      -0.744   3.872  25.216  0.00  0.00    +0.252 A 
ATOM     14  C   UNL     1      -0.378   1.467  25.265  0.00  0.00    +0.015 A 
ATOM     15  C   UNL     1       0.111   2.690  25.468  0.00  0.00    +0.071 A 
ATOM     23  H   UNL     1      -5.582   3.330  26.976  0.00  0.00    +0.122 HD
ENDROOT
BRANCH  12  16
ATOM     16  C   UNL     1      -2.239  -0.121  24.650  0.00  0.00    -0.016 A 
ATOM     17  C   UNL     1      -1.387  -1.200  24.869  0.00  0.00    +0.012 A 
ATOM     18  C   UNL     1      -3.560  -0.331  24.267  0.00  0.00    +0.012 A 
ATOM     19  C   UNL     1      -1.861  -2.502  24.703  0.00  0.00    +0.046 A 
ATOM     20  C   UNL     1      -4.034  -1.632  24.102  0.00  0.00    +0.046 A 
ATOM     21  C   UNL     1      -3.185  -2.717  24.319  0.00  0.00    +0.120 A 
BRANCH  21   2
ATOM      2  O   UNL     1      -3.649  -3.986  24.158  0.00  0.00    -0.495 OA
ATOM     22  C   UNL     1      -4.756  -4.165  23.273  0.00  0.00    +0.277 C 
ENDBRANCH  21   2
ENDBRANCH  12  16
TORSDOF 2
ENDMDL
