MODEL 1
REMARK VINA RESULT:      -5.7      0.000      0.000
REMARK  Name = 86769002
REMARK  11 active torsions:
REMARK  status: ('A' for Active; 'I' for Inactive)
REMARK    1  A    between atoms: O_3  and  C_8
REMARK    2  A    between atoms: N_5  and  C_7
REMARK    3  A    between atoms: N_5  and  C_14
REMARK    4  A    between atoms: N_6  and  C_11
REMARK    5  A    between atoms: C_9  and  C_11
REMARK    6  A    between atoms: C_12  and  C_13
REMARK    7  A    between atoms: C_12  and  C_16
REMARK    8  A    between atoms: C_12  and  C_17
REMARK    9  A    between atoms: C_12  and  C_18
REMARK   10  A    between atoms: C_13  and  C_15
REMARK   11  A    between atoms: C_14  and  C_19
REMARK                            x       y       z     vdW  Elec       q    Type
REMARK                         _______ _______ _______ _____ _____    ______ ____
ROOT
ATOM      2  O   UNL     1      -0.583   2.088  23.223  0.00  0.00    -0.371 OA
ATOM      7  C   UNL     1      -0.997   3.273  25.240  0.00  0.00    +0.111 C 
ATOM      8  C   UNL     1      -0.140   2.060  25.546  0.00  0.00    +0.164 C 
ATOM      9  C   UNL     1       0.444   1.757  24.173  0.00  0.00    +0.165 C 
ATOM     10  C   UNL     1      -1.569   2.902  23.881  0.00  0.00    +0.181 C 
ENDROOT
BRANCH   8   3
ATOM      3  O   UNL     1       0.868   2.329  26.501  0.00  0.00    -0.388 OA
ATOM     25  H   UNL     1       0.486   2.216  27.388  0.00  0.00    +0.210 HD
ENDBRANCH   8   3
BRANCH   7   5
ATOM      5  N   UNL     1      -2.024   3.531  26.236  0.00  0.00    -0.304 NA
ATOM     23  H   UNL     1      -1.630   4.116  26.973  0.00  0.00    +0.123 HD
BRANCH   5  14
ATOM     14  C   UNL     1      -3.168   4.215  25.645  0.00  0.00    +0.124 C 
BRANCH  14  19
ATOM      1  S   UNL     1      -4.805   2.624  24.057  0.00  0.00    -0.100 S 
ATOM     19  C   UNL     1      -4.375   3.318  25.562  0.00  0.00    +0.004 A 
ATOM     20  C   UNL     1      -5.239   2.947  26.568  0.00  0.00    +0.012 A 
ATOM     21  C   UNL     1      -6.268   2.082  26.098  0.00  0.00    +0.008 A 
ATOM     22  C   UNL     1      -6.152   1.824  24.749  0.00  0.00    +0.045 A 
ENDBRANCH  14  19
ENDBRANCH   5  14
ENDBRANCH   7   5
BRANCH   9  11
ATOM     11  C   UNL     1       0.854   0.305  24.002  0.00  0.00    +0.138 C 
BRANCH  11   6
ATOM      4  O   UNL     1      -0.186  -1.723  25.789  0.00  0.00    -0.276 OA
ATOM      6  N   UNL     1      -0.293  -0.547  23.787  0.00  0.00    -0.313 N 
ATOM     15  C   UNL     1      -0.718  -1.493  24.704  0.00  0.00    +0.214 C 
ATOM     24  H   UNL     1      -0.809  -0.427  22.921  0.00  0.00    +0.149 HD
BRANCH  15  13
ATOM     13  C   UNL     1      -1.942  -2.264  24.240  0.00  0.00    +0.102 C 
BRANCH  13  12
ATOM     12  C   UNL     1      -3.287  -1.529  24.448  0.00  0.00    -0.029 C 
ATOM     16  C   UNL     1      -3.338  -0.227  23.628  0.00  0.00    +0.011 C 
ATOM     17  C   UNL     1      -4.418  -2.455  23.962  0.00  0.00    +0.011 C 
ATOM     18  C   UNL     1      -3.528  -1.204  25.931  0.00  0.00    +0.011 C 
ENDBRANCH  13  12
ENDBRANCH  15  13
ENDBRANCH  11   6
ENDBRANCH   9  11
TORSDOF 8
ENDMDL
MODEL 2
REMARK VINA RESULT:      -5.3      2.116      4.295
REMARK  Name = 86769002
REMARK  11 active torsions:
REMARK  status: ('A' for Active; 'I' for Inactive)
REMARK    1  A    between atoms: O_3  and  C_8
REMARK    2  A    between atoms: N_5  and  C_7
REMARK    3  A    between atoms: N_5  and  C_14
REMARK    4  A    between atoms: N_6  and  C_11
REMARK    5  A    between atoms: C_9  and  C_11
REMARK    6  A    between atoms: C_12  and  C_13
REMARK    7  A    between atoms: C_12  and  C_16
REMARK    8  A    between atoms: C_12  and  C_17
REMARK    9  A    between atoms: C_12  and  C_18
REMARK   10  A    between atoms: C_13  and  C_15
REMARK   11  A    between atoms: C_14  and  C_19
REMARK                            x       y       z     vdW  Elec       q    Type
REMARK                         _______ _______ _______ _____ _____    ______ ____
ROOT
ATOM      2  O   UNL     1      -3.046   4.062  23.658  0.00  0.00    -0.371 OA
ATOM      7  C   UNL     1      -4.494   2.926  25.160  0.00  0.00    +0.111 C 
ATOM      8  C   UNL     1      -3.257   3.379  25.913  0.00  0.00    +0.164 C 
ATOM      9  C   UNL     1      -2.745   4.484  24.999  0.00  0.00    +0.165 C 
ATOM     10  C   UNL     1      -4.014   3.000  23.720  0.00  0.00    +0.181 C 
ENDROOT
BRANCH   8   3
ATOM      3  O   UNL     1      -3.552   3.860  27.210  0.00  0.00    -0.388 OA
ATOM     25  H   UNL     1      -4.174   4.603  27.125  0.00  0.00    +0.210 HD
ENDBRANCH   8   3
BRANCH   7   5
ATOM      5  N   UNL     1      -4.954   1.600  25.537  0.00  0.00    -0.304 NA
ATOM     23  H   UNL     1      -5.868   1.681  25.985  0.00  0.00    +0.123 HD
BRANCH   5  14
ATOM     14  C   UNL     1      -5.073   0.734  24.369  0.00  0.00    +0.124 C 
BRANCH  14  19
ATOM      1  S   UNL     1      -3.543  -0.876  26.044  0.00  0.00    -0.100 S 
ATOM     19  C   UNL     1      -4.397  -0.594  24.586  0.00  0.00    +0.004 A 
ATOM     20  C   UNL     1      -4.356  -1.683  23.744  0.00  0.00    +0.012 A 
ATOM     21  C   UNL     1      -3.614  -2.763  24.302  0.00  0.00    +0.008 A 
ATOM     22  C   UNL     1      -3.115  -2.459  25.550  0.00  0.00    +0.045 A 
ENDBRANCH  14  19
ENDBRANCH   5  14
ENDBRANCH   7   5
BRANCH   9  11
ATOM     11  C   UNL     1      -1.254   4.734  25.137  0.00  0.00    +0.138 C 
BRANCH  11   6
ATOM      4  O   UNL     1      -0.107   2.393  26.399  0.00  0.00    -0.276 OA
ATOM      6  N   UNL     1      -0.482   3.687  24.506  0.00  0.00    -0.313 N 
ATOM     15  C   UNL     1       0.028   2.600  25.194  0.00  0.00    +0.214 C 
ATOM     24  H   UNL     1      -0.323   3.762  23.506  0.00  0.00    +0.149 HD
BRANCH  15  13
ATOM     13  C   UNL     1       0.809   1.646  24.306  0.00  0.00    +0.102 C 
BRANCH  13  12
ATOM     12  C   UNL     1      -0.018   0.468  23.738  0.00  0.00    -0.029 C 
ATOM     16  C   UNL     1      -1.380   0.951  23.212  0.00  0.00    +0.011 C 
ATOM     17  C   UNL     1       0.768  -0.144  22.563  0.00  0.00    +0.011 C 
ATOM     18  C   UNL     1      -0.241  -0.624  24.796  0.00  0.00    +0.011 C 
ENDBRANCH  13  12
ENDBRANCH  15  13
ENDBRANCH  11   6
ENDBRANCH   9  11
TORSDOF 8
ENDMDL
MODEL 3
REMARK VINA RESULT:      -5.2      1.711      4.824
REMARK  Name = 86769002
REMARK  11 active torsions:
REMARK  status: ('A' for Active; 'I' for Inactive)
REMARK    1  A    between atoms: O_3  and  C_8
REMARK    2  A    between atoms: N_5  and  C_7
REMARK    3  A    between atoms: N_5  and  C_14
REMARK    4  A    between atoms: N_6  and  C_11
REMARK    5  A    between atoms: C_9  and  C_11
REMARK    6  A    between atoms: C_12  and  C_13
REMARK    7  A    between atoms: C_12  and  C_16
REMARK    8  A    between atoms: C_12  and  C_17
REMARK    9  A    between atoms: C_12  and  C_18
REMARK   10  A    between atoms: C_13  and  C_15
REMARK   11  A    between atoms: C_14  and  C_19
REMARK                            x       y       z     vdW  Elec       q    Type
REMARK                         _______ _______ _______ _____ _____    ______ ____
ROOT
ATOM      2  O   UNL     1      -1.077   2.752  26.426  0.00  0.00    -0.371 OA
ATOM      7  C   UNL     1      -0.069   1.541  24.648  0.00  0.00    +0.111 C 
ATOM      8  C   UNL     1      -0.604   2.855  24.111  0.00  0.00    +0.164 C 
ATOM      9  C   UNL     1      -0.705   3.677  25.390  0.00  0.00    +0.165 C 
ATOM     10  C   UNL     1      -0.837   1.415  25.954  0.00  0.00    +0.181 C 
ENDROOT
BRANCH   8   3
ATOM      3  O   UNL     1       0.263   3.454  23.167  0.00  0.00    -0.388 OA
ATOM     25  H   UNL     1       1.176   3.208  23.393  0.00  0.00    +0.210 HD
ENDBRANCH   8   3
BRANCH   7   5
ATOM      5  N   UNL     1      -0.283   0.415  23.755  0.00  0.00    -0.304 NA
ATOM     23  H   UNL     1       0.516   0.337  23.124  0.00  0.00    +0.123 HD
BRANCH   5  14
ATOM     14  C   UNL     1      -0.422  -0.830  24.503  0.00  0.00    +0.124 C 
BRANCH  14  19
ATOM      1  S   UNL     1      -3.011  -0.530  23.533  0.00  0.00    -0.100 S 
ATOM     19  C   UNL     1      -1.804  -1.412  24.369  0.00  0.00    +0.004 A 
ATOM     20  C   UNL     1      -2.278  -2.614  24.843  0.00  0.00    +0.012 A 
ATOM     21  C   UNL     1      -3.649  -2.816  24.516  0.00  0.00    +0.008 A 
ATOM     22  C   UNL     1      -4.173  -1.758  23.805  0.00  0.00    +0.045 A 
ENDBRANCH  14  19
ENDBRANCH   5  14
ENDBRANCH   7   5
BRANCH   9  11
ATOM     11  C   UNL     1      -1.730   4.794  25.306  0.00  0.00    +0.138 C 
BRANCH  11   6
ATOM      4  O   UNL     1      -3.965   3.818  23.743  0.00  0.00    -0.276 OA
ATOM      6  N   UNL     1      -3.021   4.365  25.795  0.00  0.00    -0.313 N 
ATOM     15  C   UNL     1      -4.033   3.911  24.968  0.00  0.00    +0.214 C 
ATOM     24  H   UNL     1      -3.174   4.394  26.798  0.00  0.00    +0.149 HD
BRANCH  15  13
ATOM     13  C   UNL     1      -5.294   3.528  25.725  0.00  0.00    +0.102 C 
BRANCH  13  12
ATOM     12  C   UNL     1      -5.669   2.030  25.641  0.00  0.00    -0.029 C 
ATOM     16  C   UNL     1      -4.412   1.152  25.510  0.00  0.00    +0.011 C 
ATOM     17  C   UNL     1      -6.397   1.646  26.943  0.00  0.00    +0.011 C 
ATOM     18  C   UNL     1      -6.609   1.750  24.457  0.00  0.00    +0.011 C 
ENDBRANCH  13  12
ENDBRANCH  15  13
ENDBRANCH  11   6
ENDBRANCH   9  11
TORSDOF 8
ENDMDL
MODEL 4
REMARK VINA RESULT:      -4.9      2.805      5.202
REMARK  Name = 86769002
REMARK  11 active torsions:
REMARK  status: ('A' for Active; 'I' for Inactive)
REMARK    1  A    between atoms: O_3  and  C_8
REMARK    2  A    between atoms: N_5  and  C_7
REMARK    3  A    between atoms: N_5  and  C_14
REMARK    4  A    between atoms: N_6  and  C_11
REMARK    5  A    between atoms: C_9  and  C_11
REMARK    6  A    between atoms: C_12  and  C_13
REMARK    7  A    between atoms: C_12  and  C_16
REMARK    8  A    between atoms: C_12  and  C_17
REMARK    9  A    between atoms: C_12  and  C_18
REMARK   10  A    between atoms: C_13  and  C_15
REMARK   11  A    between atoms: C_14  and  C_19
REMARK                            x       y       z     vdW  Elec       q    Type
REMARK                         _______ _______ _______ _____ _____    ______ ____
ROOT
ATOM      2  O   UNL     1      -0.356   0.505  25.291  0.00  0.00    -0.371 OA
ATOM      7  C   UNL     1      -2.255  -0.868  25.679  0.00  0.00    +0.111 C 
ATOM      8  C   UNL     1      -1.675  -1.201  24.318  0.00  0.00    +0.164 C 
ATOM      9  C   UNL     1      -0.256  -0.668  24.464  0.00  0.00    +0.165 C 
ATOM     10  C   UNL     1      -1.636   0.495  25.945  0.00  0.00    +0.181 C 
ENDROOT
BRANCH   8   3
ATOM      3  O   UNL     1      -1.691  -2.588  24.040  0.00  0.00    -0.388 OA
ATOM     25  H   UNL     1      -2.023  -2.713  23.135  0.00  0.00    +0.210 HD
ENDBRANCH   8   3
BRANCH   7   5
ATOM      5  N   UNL     1      -3.708  -0.845  25.705  0.00  0.00    -0.304 NA
ATOM     23  H   UNL     1      -4.016  -0.326  26.528  0.00  0.00    +0.123 HD
BRANCH   5  14
ATOM     14  C   UNL     1      -4.245  -0.205  24.510  0.00  0.00    +0.124 C 
BRANCH  14  19
ATOM      1  S   UNL     1      -3.592   2.431  23.911  0.00  0.00    -0.100 S 
ATOM     19  C   UNL     1      -4.527   1.256  24.735  0.00  0.00    +0.004 A 
ATOM     20  C   UNL     1      -5.476   1.831  25.551  0.00  0.00    +0.012 A 
ATOM     21  C   UNL     1      -5.436   3.254  25.499  0.00  0.00    +0.008 A 
ATOM     22  C   UNL     1      -4.456   3.713  24.646  0.00  0.00    +0.045 A 
ENDBRANCH  14  19
ENDBRANCH   5  14
ENDBRANCH   7   5
BRANCH   9  11
ATOM     11  C   UNL     1       0.391  -0.308  23.138  0.00  0.00    +0.138 C 
BRANCH  11   6
ATOM      4  O   UNL     1       2.545  -0.201  21.205  0.00  0.00    -0.276 OA
ATOM      6  N   UNL     1       1.712   0.247  23.328  0.00  0.00    -0.313 N 
ATOM     15  C   UNL     1       2.681   0.253  22.340  0.00  0.00    +0.214 C 
ATOM     24  H   UNL     1       1.921   0.658  24.232  0.00  0.00    +0.149 HD
BRANCH  15  13
ATOM     13  C   UNL     1       3.987   0.886  22.792  0.00  0.00    +0.102 C 
BRANCH  13  12
ATOM     12  C   UNL     1       4.972  -0.088  23.482  0.00  0.00    -0.029 C 
ATOM     16  C   UNL     1       4.295  -1.435  23.787  0.00  0.00    +0.011 C 
ATOM     17  C   UNL     1       6.147  -0.341  22.518  0.00  0.00    +0.011 C 
ATOM     18  C   UNL     1       5.530   0.506  24.785  0.00  0.00    +0.011 C 
ENDBRANCH  13  12
ENDBRANCH  15  13
ENDBRANCH  11   6
ENDBRANCH   9  11
TORSDOF 8
ENDMDL
MODEL 5
REMARK VINA RESULT:      -4.9      2.469      4.412
REMARK  Name = 86769002
REMARK  11 active torsions:
REMARK  status: ('A' for Active; 'I' for Inactive)
REMARK    1  A    between atoms: O_3  and  C_8
REMARK    2  A    between atoms: N_5  and  C_7
REMARK    3  A    between atoms: N_5  and  C_14
REMARK    4  A    between atoms: N_6  and  C_11
REMARK    5  A    between atoms: C_9  and  C_11
REMARK    6  A    between atoms: C_12  and  C_13
REMARK    7  A    between atoms: C_12  and  C_16
REMARK    8  A    between atoms: C_12  and  C_17
REMARK    9  A    between atoms: C_12  and  C_18
REMARK   10  A    between atoms: C_13  and  C_15
REMARK   11  A    between atoms: C_14  and  C_19
REMARK                            x       y       z     vdW  Elec       q    Type
REMARK                         _______ _______ _______ _____ _____    ______ ____
ROOT
ATOM      2  O   UNL     1      -4.599   3.588  26.490  0.00  0.00    -0.371 OA
ATOM      7  C   UNL     1      -2.779   4.245  25.111  0.00  0.00    +0.111 C 
ATOM      8  C   UNL     1      -3.588   3.183  24.391  0.00  0.00    +0.164 C 
ATOM      9  C   UNL     1      -4.920   3.279  25.123  0.00  0.00    +0.165 C 
ATOM     10  C   UNL     1      -3.238   4.049  26.548  0.00  0.00    +0.181 C 
ENDROOT
BRANCH   8   3
ATOM      3  O   UNL     1      -3.726   3.446  23.008  0.00  0.00    -0.388 OA
ATOM     25  H   UNL     1      -2.947   3.947  22.713  0.00  0.00    +0.210 HD
ENDBRANCH   8   3
BRANCH   7   5
ATOM      5  N   UNL     1      -1.343   4.095  24.950  0.00  0.00    -0.304 NA
ATOM     23  H   UNL     1      -0.897   5.002  25.097  0.00  0.00    +0.123 HD
BRANCH   5  14
ATOM     14  C   UNL     1      -0.803   3.139  25.910  0.00  0.00    +0.124 C 
BRANCH  14  19
ATOM      1  S   UNL     1       0.451   1.787  23.827  0.00  0.00    -0.100 S 
ATOM     19  C   UNL     1      -0.483   1.817  25.263  0.00  0.00    +0.004 A 
ATOM     20  C   UNL     1      -0.845   0.553  25.670  0.00  0.00    +0.012 A 
ATOM     21  C   UNL     1      -0.350  -0.454  24.793  0.00  0.00    +0.008 A 
ATOM     22  C   UNL     1       0.371   0.079  23.747  0.00  0.00    +0.045 A 
ENDBRANCH  14  19
ENDBRANCH   5  14
ENDBRANCH   7   5
BRANCH   9  11
ATOM     11  C   UNL     1      -5.732   1.998  25.063  0.00  0.00    +0.138 C 
BRANCH  11   6
ATOM      4  O   UNL     1      -4.154  -0.228  26.035  0.00  0.00    -0.276 OA
ATOM      6  N   UNL     1      -5.066   0.986  24.275  0.00  0.00    -0.313 N 
ATOM     15  C   UNL     1      -4.329  -0.046  24.831  0.00  0.00    +0.214 C 
ATOM     24  H   UNL     1      -5.159   1.042  23.266  0.00  0.00    +0.149 HD
BRANCH  15  13
ATOM     13  C   UNL     1      -3.722  -0.972  23.791  0.00  0.00    +0.102 C 
BRANCH  13  12
ATOM     12  C   UNL     1      -3.369  -2.386  24.311  0.00  0.00    -0.029 C 
ATOM     16  C   UNL     1      -3.348  -2.420  25.849  0.00  0.00    +0.011 C 
ATOM     17  C   UNL     1      -4.454  -3.361  23.816  0.00  0.00    +0.011 C 
ATOM     18  C   UNL     1      -2.008  -2.859  23.774  0.00  0.00    +0.011 C 
ENDBRANCH  13  12
ENDBRANCH  15  13
ENDBRANCH  11   6
ENDBRANCH   9  11
TORSDOF 8
ENDMDL
MODEL 6
REMARK VINA RESULT:      -4.6      2.929      6.558
REMARK  Name = 86769002
REMARK  11 active torsions:
REMARK  status: ('A' for Active; 'I' for Inactive)
REMARK    1  A    between atoms: O_3  and  C_8
REMARK    2  A    between atoms: N_5  and  C_7
REMARK    3  A    between atoms: N_5  and  C_14
REMARK    4  A    between atoms: N_6  and  C_11
REMARK    5  A    between atoms: C_9  and  C_11
REMARK    6  A    between atoms: C_12  and  C_13
REMARK    7  A    between atoms: C_12  and  C_16
REMARK    8  A    between atoms: C_12  and  C_17
REMARK    9  A    between atoms: C_12  and  C_18
REMARK   10  A    between atoms: C_13  and  C_15
REMARK   11  A    between atoms: C_14  and  C_19
REMARK                            x       y       z     vdW  Elec       q    Type
REMARK                         _______ _______ _______ _____ _____    ______ ____
ROOT
ATOM      2  O   UNL     1      -2.977  -2.024  24.317  0.00  0.00    -0.371 OA
ATOM      7  C   UNL     1      -0.769  -1.552  25.054  0.00  0.00    +0.111 C 
ATOM      8  C   UNL     1      -1.559  -0.258  24.997  0.00  0.00    +0.164 C 
ATOM      9  C   UNL     1      -2.988  -0.783  25.042  0.00  0.00    +0.165 C 
ATOM     10  C   UNL     1      -1.614  -2.459  24.174  0.00  0.00    +0.181 C 
ENDROOT
BRANCH   8   3
ATOM      3  O   UNL     1      -1.279   0.603  26.084  0.00  0.00    -0.388 OA
ATOM     25  H   UNL     1      -1.907   1.344  26.055  0.00  0.00    +0.210 HD
ENDBRANCH   8   3
BRANCH   7   5
ATOM      5  N   UNL     1       0.600  -1.422  24.584  0.00  0.00    -0.304 NA
ATOM     23  H   UNL     1       0.932  -2.336  24.275  0.00  0.00    +0.123 HD
BRANCH   5  14
ATOM     14  C   UNL     1       0.687  -0.482  23.472  0.00  0.00    +0.124 C 
BRANCH  14  19
ATOM      1  S   UNL     1       3.394  -1.121  23.487  0.00  0.00    -0.100 S 
ATOM     19  C   UNL     1       2.102  -0.025  23.234  0.00  0.00    +0.004 A 
ATOM     20  C   UNL     1       2.546   1.211  22.821  0.00  0.00    +0.012 A 
ATOM     21  C   UNL     1       3.965   1.261  22.710  0.00  0.00    +0.008 A 
ATOM     22  C   UNL     1       4.553   0.059  23.043  0.00  0.00    +0.045 A 
ENDBRANCH  14  19
ENDBRANCH   5  14
ENDBRANCH   7   5
BRANCH   9  11
ATOM     11  C   UNL     1      -3.997   0.167  24.420  0.00  0.00    +0.138 C 
BRANCH  11   6
ATOM      4  O   UNL     1      -4.945   2.757  25.303  0.00  0.00    -0.276 OA
ATOM      6  N   UNL     1      -3.407   1.457  24.143  0.00  0.00    -0.313 N 
ATOM     15  C   UNL     1      -3.934   2.648  24.611  0.00  0.00    +0.214 C 
ATOM     24  H   UNL     1      -2.560   1.473  23.585  0.00  0.00    +0.149 HD
BRANCH  15  13
ATOM     13  C   UNL     1      -3.135   3.865  24.174  0.00  0.00    +0.102 C 
BRANCH  13  12
ATOM     12  C   UNL     1      -1.845   4.117  24.990  0.00  0.00    -0.029 C 
ATOM     16  C   UNL     1      -1.998   3.614  26.436  0.00  0.00    +0.011 C 
ATOM     17  C   UNL     1      -0.697   3.337  24.322  0.00  0.00    +0.011 C 
ATOM     18  C   UNL     1      -1.474   5.609  25.009  0.00  0.00    +0.011 C 
ENDBRANCH  13  12
ENDBRANCH  15  13
ENDBRANCH  11   6
ENDBRANCH   9  11
TORSDOF 8
ENDMDL
MODEL 7
REMARK VINA RESULT:      -4.5      2.944      6.057
REMARK  Name = 86769002
REMARK  11 active torsions:
REMARK  status: ('A' for Active; 'I' for Inactive)
REMARK    1  A    between atoms: O_3  and  C_8
REMARK    2  A    between atoms: N_5  and  C_7
REMARK    3  A    between atoms: N_5  and  C_14
REMARK    4  A    between atoms: N_6  and  C_11
REMARK    5  A    between atoms: C_9  and  C_11
REMARK    6  A    between atoms: C_12  and  C_13
REMARK    7  A    between atoms: C_12  and  C_16
REMARK    8  A    between atoms: C_12  and  C_17
REMARK    9  A    between atoms: C_12  and  C_18
REMARK   10  A    between atoms: C_13  and  C_15
REMARK   11  A    between atoms: C_14  and  C_19
REMARK                            x       y       z     vdW  Elec       q    Type
REMARK                         _______ _______ _______ _____ _____    ______ ____
ROOT
ATOM      2  O   UNL     1      -0.248   3.125  25.664  0.00  0.00    -0.371 OA
ATOM      7  C   UNL     1       0.441   1.640  23.942  0.00  0.00    +0.111 C 
ATOM      8  C   UNL     1      -1.041   1.926  23.786  0.00  0.00    +0.164 C 
ATOM      9  C   UNL     1      -1.175   3.225  24.569  0.00  0.00    +0.165 C 
ATOM     10  C   UNL     1       0.677   2.060  25.384  0.00  0.00    +0.181 C 
ENDROOT
BRANCH   8   3
ATOM      3  O   UNL     1      -1.427   2.082  22.434  0.00  0.00    -0.388 OA
ATOM     25  H   UNL     1      -1.506   1.199  22.035  0.00  0.00    +0.210 HD
ENDBRANCH   8   3
BRANCH   7   5
ATOM      5  N   UNL     1       0.799   0.254  23.691  0.00  0.00    -0.304 NA
ATOM     23  H   UNL     1      -0.050  -0.275  23.487  0.00  0.00    +0.123 HD
BRANCH   5  14
ATOM     14  C   UNL     1       1.711   0.144  22.559  0.00  0.00    +0.124 C 
BRANCH  14  19
ATOM      1  S   UNL     1       3.740  -1.357  23.727  0.00  0.00    -0.100 S 
ATOM     19  C   UNL     1       3.149   0.077  23.002  0.00  0.00    +0.004 A 
ATOM     20  C   UNL     1       4.120   1.048  22.910  0.00  0.00    +0.012 A 
ATOM     21  C   UNL     1       5.367   0.610  23.442  0.00  0.00    +0.008 A 
ATOM     22  C   UNL     1       5.300  -0.680  23.921  0.00  0.00    +0.045 A 
ENDBRANCH  14  19
ENDBRANCH   5  14
ENDBRANCH   7   5
BRANCH   9  11
ATOM     11  C   UNL     1      -2.577   3.462  25.102  0.00  0.00    +0.138 C 
BRANCH  11   6
ATOM      4  O   UNL     1      -4.382   2.046  23.335  0.00  0.00    -0.276 OA
ATOM      6  N   UNL     1      -3.261   2.217  25.364  0.00  0.00    -0.313 N 
ATOM     15  C   UNL     1      -4.110   1.611  24.453  0.00  0.00    +0.214 C 
ATOM     24  H   UNL     1      -3.093   1.771  26.260  0.00  0.00    +0.149 HD
BRANCH  15  13
ATOM     13  C   UNL     1      -4.711   0.316  24.971  0.00  0.00    +0.102 C 
BRANCH  13  12
ATOM     12  C   UNL     1      -3.786  -0.919  24.853  0.00  0.00    -0.029 C 
ATOM     16  C   UNL     1      -3.532  -1.553  26.231  0.00  0.00    +0.011 C 
ATOM     17  C   UNL     1      -4.489  -1.959  23.960  0.00  0.00    +0.011 C 
ATOM     18  C   UNL     1      -2.439  -0.553  24.207  0.00  0.00    +0.011 C 
ENDBRANCH  13  12
ENDBRANCH  15  13
ENDBRANCH  11   6
ENDBRANCH   9  11
TORSDOF 8
ENDMDL
MODEL 8
REMARK VINA RESULT:      -4.5      2.272      4.339
REMARK  Name = 86769002
REMARK  11 active torsions:
REMARK  status: ('A' for Active; 'I' for Inactive)
REMARK    1  A    between atoms: O_3  and  C_8
REMARK    2  A    between atoms: N_5  and  C_7
REMARK    3  A    between atoms: N_5  and  C_14
REMARK    4  A    between atoms: N_6  and  C_11
REMARK    5  A    between atoms: C_9  and  C_11
REMARK    6  A    between atoms: C_12  and  C_13
REMARK    7  A    between atoms: C_12  and  C_16
REMARK    8  A    between atoms: C_12  and  C_17
REMARK    9  A    between atoms: C_12  and  C_18
REMARK   10  A    between atoms: C_13  and  C_15
REMARK   11  A    between atoms: C_14  and  C_19
REMARK                            x       y       z     vdW  Elec       q    Type
REMARK                         _______ _______ _______ _____ _____    ______ ____
ROOT
ATOM      2  O   UNL     1      -5.921   1.888  25.729  0.00  0.00    -0.371 OA
ATOM      7  C   UNL     1      -4.603   3.399  24.456  0.00  0.00    +0.111 C 
ATOM      8  C   UNL     1      -3.982   2.018  24.381  0.00  0.00    +0.164 C 
ATOM      9  C   UNL     1      -5.168   1.141  24.758  0.00  0.00    +0.165 C 
ATOM     10  C   UNL     1      -5.498   3.261  25.677  0.00  0.00    +0.181 C 
ENDROOT
BRANCH   8   3
ATOM      3  O   UNL     1      -3.486   1.709  23.092  0.00  0.00    -0.388 OA
ATOM     25  H   UNL     1      -2.908   2.437  22.807  0.00  0.00    +0.210 HD
ENDBRANCH   8   3
BRANCH   7   5
ATOM      5  N   UNL     1      -3.630   4.471  24.585  0.00  0.00    -0.304 NA
ATOM     23  H   UNL     1      -4.121   5.366  24.584  0.00  0.00    +0.123 HD
BRANCH   5  14
ATOM     14  C   UNL     1      -2.872   4.346  25.825  0.00  0.00    +0.124 C 
BRANCH  14  19
ATOM      1  S   UNL     1      -0.796   3.719  24.083  0.00  0.00    -0.100 S 
ATOM     19  C   UNL     1      -1.564   3.631  25.611  0.00  0.00    +0.004 A 
ATOM     20  C   UNL     1      -0.847   2.870  26.507  0.00  0.00    +0.012 A 
ATOM     21  C   UNL     1       0.350   2.353  25.933  0.00  0.00    +0.008 A 
ATOM     22  C   UNL     1       0.501   2.737  24.618  0.00  0.00    +0.045 A 
ENDBRANCH  14  19
ENDBRANCH   5  14
ENDBRANCH   7   5
BRANCH   9  11
ATOM     11  C   UNL     1      -4.762  -0.200  25.345  0.00  0.00    +0.138 C 
BRANCH  11   6
ATOM      4  O   UNL     1      -3.716  -2.900  25.409  0.00  0.00    -0.276 OA
ATOM      6  N   UNL     1      -3.522  -0.674  24.772  0.00  0.00    -0.313 N 
ATOM     15  C   UNL     1      -3.103  -1.990  24.853  0.00  0.00    +0.214 C 
ATOM     24  H   UNL     1      -2.946   0.002  24.281  0.00  0.00    +0.149 HD
BRANCH  15  13
ATOM     13  C   UNL     1      -1.762  -2.231  24.180  0.00  0.00    +0.102 C 
BRANCH  13  12
ATOM     12  C   UNL     1      -0.564  -1.523  24.856  0.00  0.00    -0.029 C 
ATOM     16  C   UNL     1      -1.026  -0.670  26.050  0.00  0.00    +0.011 C 
ATOM     17  C   UNL     1       0.399  -2.608  25.377  0.00  0.00    +0.011 C 
ATOM     18  C   UNL     1       0.199  -0.633  23.861  0.00  0.00    +0.011 C 
ENDBRANCH  13  12
ENDBRANCH  15  13
ENDBRANCH  11   6
ENDBRANCH   9  11
TORSDOF 8
ENDMDL
MODEL 9
REMARK VINA RESULT:      -4.3      1.755      4.427
REMARK  Name = 86769002
REMARK  11 active torsions:
REMARK  status: ('A' for Active; 'I' for Inactive)
REMARK    1  A    between atoms: O_3  and  C_8
REMARK    2  A    between atoms: N_5  and  C_7
REMARK    3  A    between atoms: N_5  and  C_14
REMARK    4  A    between atoms: N_6  and  C_11
REMARK    5  A    between atoms: C_9  and  C_11
REMARK    6  A    between atoms: C_12  and  C_13
REMARK    7  A    between atoms: C_12  and  C_16
REMARK    8  A    between atoms: C_12  and  C_17
REMARK    9  A    between atoms: C_12  and  C_18
REMARK   10  A    between atoms: C_13  and  C_15
REMARK   11  A    between atoms: C_14  and  C_19
REMARK                            x       y       z     vdW  Elec       q    Type
REMARK                         _______ _______ _______ _____ _____    ______ ____
ROOT
ATOM      2  O   UNL     1      -1.748  -2.520  24.721  0.00  0.00    -0.371 OA
ATOM      7  C   UNL     1      -3.609  -1.325  23.854  0.00  0.00    +0.111 C 
ATOM      8  C   UNL     1      -2.428  -0.380  23.977  0.00  0.00    +0.164 C 
ATOM      9  C   UNL     1      -1.266  -1.365  24.014  0.00  0.00    +0.165 C 
ATOM     10  C   UNL     1      -3.184  -2.459  24.773  0.00  0.00    +0.181 C 
ENDROOT
BRANCH   8   3
ATOM      3  O   UNL     1      -2.327   0.514  22.886  0.00  0.00    -0.388 OA
ATOM     25  H   UNL     1      -2.965   1.234  23.023  0.00  0.00    +0.210 HD
ENDBRANCH   8   3
BRANCH   7   5
ATOM      5  N   UNL     1      -4.877  -0.728  24.240  0.00  0.00    -0.304 NA
ATOM     23  H   UNL     1      -5.567  -1.470  24.364  0.00  0.00    +0.123 HD
BRANCH   5  14
ATOM     14  C   UNL     1      -4.749   0.018  25.486  0.00  0.00    +0.124 C 
BRANCH  14  19
ATOM      1  S   UNL     1      -6.042   2.277  26.466  0.00  0.00    -0.100 S 
ATOM     19  C   UNL     1      -5.074   1.476  25.302  0.00  0.00    +0.004 A 
ATOM     20  C   UNL     1      -4.691   2.318  24.282  0.00  0.00    +0.012 A 
ATOM     21  C   UNL     1      -5.198   3.637  24.457  0.00  0.00    +0.008 A 
ATOM     22  C   UNL     1      -5.951   3.754  25.605  0.00  0.00    +0.045 A 
ENDBRANCH  14  19
ENDBRANCH   5  14
ENDBRANCH   7   5
BRANCH   9  11
ATOM     11  C   UNL     1      -0.034  -0.814  24.710  0.00  0.00    +0.138 C 
BRANCH  11   6
ATOM      4  O   UNL     1       1.105   1.783  24.117  0.00  0.00    -0.276 OA
ATOM      6  N   UNL     1      -0.317   0.439  25.372  0.00  0.00    -0.313 N 
ATOM     15  C   UNL     1       0.280   1.637  25.017  0.00  0.00    +0.214 C 
ATOM     24  H   UNL     1      -0.996   0.426  26.127  0.00  0.00    +0.149 HD
BRANCH  15  13
ATOM     13  C   UNL     1      -0.179   2.806  25.872  0.00  0.00    +0.102 C 
BRANCH  13  12
ATOM     12  C   UNL     1      -1.172   3.766  25.175  0.00  0.00    -0.029 C 
ATOM     16  C   UNL     1      -1.695   3.161  23.860  0.00  0.00    +0.011 C 
ATOM     17  C   UNL     1      -2.369   3.984  26.120  0.00  0.00    +0.011 C 
ATOM     18  C   UNL     1      -0.527   5.131  24.884  0.00  0.00    +0.011 C 
ENDBRANCH  13  12
ENDBRANCH  15  13
ENDBRANCH  11   6
ENDBRANCH   9  11
TORSDOF 8
ENDMDL
MODEL 10
REMARK VINA RESULT:      -3.9      2.608      4.589
REMARK  Name = 86769002
REMARK  11 active torsions:
REMARK  status: ('A' for Active; 'I' for Inactive)
REMARK    1  A    between atoms: O_3  and  C_8
REMARK    2  A    between atoms: N_5  and  C_7
REMARK    3  A    between atoms: N_5  and  C_14
REMARK    4  A    between atoms: N_6  and  C_11
REMARK    5  A    between atoms: C_9  and  C_11
REMARK    6  A    between atoms: C_12  and  C_13
REMARK    7  A    between atoms: C_12  and  C_16
REMARK    8  A    between atoms: C_12  and  C_17
REMARK    9  A    between atoms: C_12  and  C_18
REMARK   10  A    between atoms: C_13  and  C_15
REMARK   11  A    between atoms: C_14  and  C_19
REMARK                            x       y       z     vdW  Elec       q    Type
REMARK                         _______ _______ _______ _____ _____    ______ ____
ROOT
ATOM      2  O   UNL     1      -0.131   3.650  23.707  0.00  0.00    -0.371 OA
ATOM      7  C   UNL     1      -1.246   3.900  25.789  0.00  0.00    +0.111 C 
ATOM      8  C   UNL     1      -0.644   2.509  25.714  0.00  0.00    +0.164 C 
ATOM      9  C   UNL     1       0.419   2.707  24.642  0.00  0.00    +0.165 C 
ATOM     10  C   UNL     1      -1.253   4.304  24.323  0.00  0.00    +0.181 C 
ENDROOT
BRANCH   8   3
ATOM      3  O   UNL     1      -0.083   2.089  26.943  0.00  0.00    -0.388 OA
ATOM     25  H   UNL     1      -0.411   2.677  27.644  0.00  0.00    +0.210 HD
ENDBRANCH   8   3
BRANCH   7   5
ATOM      5  N   UNL     1      -2.569   3.932  26.391  0.00  0.00    -0.304 NA
ATOM     23  H   UNL     1      -2.624   4.731  27.025  0.00  0.00    +0.123 HD
BRANCH   5  14
ATOM     14  C   UNL     1      -3.606   4.058  25.375  0.00  0.00    +0.124 C 
BRANCH  14  19
ATOM      1  S   UNL     1      -3.763   1.459  24.397  0.00  0.00    -0.100 S 
ATOM     19  C   UNL     1      -4.418   2.796  25.243  0.00  0.00    +0.004 A 
ATOM     20  C   UNL     1      -5.680   2.534  25.726  0.00  0.00    +0.012 A 
ATOM     21  C   UNL     1      -6.117   1.219  25.397  0.00  0.00    +0.008 A 
ATOM     22  C   UNL     1      -5.171   0.525  24.674  0.00  0.00    +0.045 A 
ENDBRANCH  14  19
ENDBRANCH   5  14
ENDBRANCH   7   5
BRANCH   9  11
ATOM     11  C   UNL     1       0.789   1.423  23.919  0.00  0.00    +0.138 C 
BRANCH  11   6
ATOM      4  O   UNL     1       2.102  -0.374  22.066  0.00  0.00    -0.276 OA
ATOM      6  N   UNL     1       2.189   1.403  23.561  0.00  0.00    -0.313 N 
ATOM     15  C   UNL     1       2.729   0.501  22.660  0.00  0.00    +0.214 C 
ATOM     24  H   UNL     1       2.792   2.096  23.992  0.00  0.00    +0.149 HD
BRANCH  15  13
ATOM     13  C   UNL     1       4.224   0.681  22.462  0.00  0.00    +0.102 C 
BRANCH  13  12
ATOM     12  C   UNL     1       5.108  -0.179  23.396  0.00  0.00    -0.029 C 
ATOM     16  C   UNL     1       6.437  -0.550  22.715  0.00  0.00    +0.011 C 
ATOM     17  C   UNL     1       5.422   0.653  24.655  0.00  0.00    +0.011 C 
ATOM     18  C   UNL     1       4.384  -1.464  23.830  0.00  0.00    +0.011 C 
ENDBRANCH  13  12
ENDBRANCH  15  13
ENDBRANCH  11   6
ENDBRANCH   9  11
TORSDOF 8
ENDMDL
