MODEL 1
REMARK VINA RESULT:      -0.1      0.000      0.000
REMARK  Name = 75536125
REMARK  7 active torsions:
REMARK  status: ('A' for Active; 'I' for Inactive)
REMARK    1  A    between atoms: O_2  and  C_10
REMARK    2  A    between atoms: O_3  and  C_12
REMARK    3  A    between atoms: N_5  and  C_9
REMARK    4  A    between atoms: N_5  and  C_14
REMARK    5  A    between atoms: N_7  and  C_18
REMARK    6  A    between atoms: C_8  and  C_13
REMARK    7  A    between atoms: C_14  and  C_19
REMARK                            x       y       z     vdW  Elec       q    Type
REMARK                         _______ _______ _______ _____ _____    ______ ____
ROOT
ATOM      8  C   UNL     1      -6.897 -10.778  17.074  0.00  0.00    +0.042 C 
ATOM      9  C   UNL     1      -8.145  -9.910  17.429  0.00  0.00    +0.093 C 
ATOM     10  C   UNL     1      -7.780  -9.205  18.745  0.00  0.00    +0.160 C 
ATOM     11  C   UNL     1      -5.883 -10.543  18.209  0.00  0.00    +0.043 C 
ATOM     12  C   UNL     1      -6.753 -10.131  19.389  0.00  0.00    +0.145 C 
ENDROOT
BRANCH   8  13
ATOM      6  N   UNL     1      -4.392 -10.355  14.258  0.00  0.00    -0.240 NA
ATOM     13  C   UNL     1      -6.327 -10.505  15.699  0.00  0.00    -0.024 A 
ATOM     15  C   UNL     1      -7.154 -10.162  14.634  0.00  0.00    +0.009 A 
ATOM     16  C   UNL     1      -4.964 -10.587  15.460  0.00  0.00    +0.116 A 
ATOM     17  C   UNL     1      -6.601  -9.915  13.383  0.00  0.00    +0.044 A 
ATOM     18  C   UNL     1      -5.227 -10.023  13.248  0.00  0.00    +0.121 A 
BRANCH  18   7
ATOM      4  O   UNL     1      -3.635  -9.533   9.387  0.00  0.00    -0.377 OA
ATOM      7  N   UNL     1      -4.685  -9.771  11.984  0.00  0.00    -0.311 N 
ATOM     20  C   UNL     1      -5.561  -9.914  10.812  0.00  0.00    +0.134 C 
ATOM     21  C   UNL     1      -3.262 -10.024  11.734  0.00  0.00    +0.134 C 
ATOM     24  C   UNL     1      -4.982  -9.133   9.639  0.00  0.00    +0.178 C 
ATOM     25  C   UNL     1      -2.806  -9.237  10.510  0.00  0.00    +0.178 C 
ENDBRANCH  18   7
ENDBRANCH   8  13
BRANCH  10   2
ATOM      2  O   UNL     1      -7.193  -7.943  18.430  0.00  0.00    -0.388 OA
ATOM     30  H   UNL     1      -7.357  -7.772  17.487  0.00  0.00    +0.210 HD
ENDBRANCH  10   2
BRANCH  12   3
ATOM      3  O   UNL     1      -5.992  -9.490  20.391  0.00  0.00    -0.389 OA
ATOM     31  H   UNL     1      -6.615  -9.079  21.015  0.00  0.00    +0.210 HD
ENDBRANCH  12   3
BRANCH   9   5
ATOM      5  N   UNL     1      -9.304 -10.780  17.635  0.00  0.00    -0.306 NA
ATOM     29  H   UNL     1      -9.375 -11.014  18.626  0.00  0.00    +0.123 HD
BRANCH   5  14
ATOM     14  C   UNL     1     -10.532 -10.114  17.225  0.00  0.00    +0.116 C 
BRANCH  14  19
ATOM      1 CL   UNL     1     -10.498  -8.750  11.366  0.00  0.00    -0.084 Cl
ATOM     19  C   UNL     1     -10.523  -9.773  15.760  0.00  0.00    -0.033 A 
ATOM     22  C   UNL     1     -10.720 -10.775  14.809  0.00  0.00    +0.006 A 
ATOM     23  C   UNL     1     -10.318  -8.455  15.351  0.00  0.00    +0.006 A 
ATOM     26  C   UNL     1     -10.711 -10.459  13.450  0.00  0.00    +0.020 A 
ATOM     27  C   UNL     1     -10.309  -8.138  13.992  0.00  0.00    +0.020 A 
ATOM     28  C   UNL     1     -10.505  -9.140  13.042  0.00  0.00    +0.041 A 
ENDBRANCH  14  19
ENDBRANCH   5  14
ENDBRANCH   9   5
TORSDOF 7
ENDMDL
MODEL 2
REMARK VINA RESULT:       0.2     14.225     16.206
REMARK  Name = 75536125
REMARK  7 active torsions:
REMARK  status: ('A' for Active; 'I' for Inactive)
REMARK    1  A    between atoms: O_2  and  C_10
REMARK    2  A    between atoms: O_3  and  C_12
REMARK    3  A    between atoms: N_5  and  C_9
REMARK    4  A    between atoms: N_5  and  C_14
REMARK    5  A    between atoms: N_7  and  C_18
REMARK    6  A    between atoms: C_8  and  C_13
REMARK    7  A    between atoms: C_14  and  C_19
REMARK                            x       y       z     vdW  Elec       q    Type
REMARK                         _______ _______ _______ _____ _____    ______ ____
ROOT
ATOM      8  C   UNL     1      -2.626   2.626  24.925  0.00  0.00    +0.042 C 
ATOM      9  C   UNL     1      -3.822   1.986  24.153  0.00  0.00    +0.093 C 
ATOM     10  C   UNL     1      -4.549   3.166  23.490  0.00  0.00    +0.160 C 
ATOM     11  C   UNL     1      -2.733   4.144  24.681  0.00  0.00    +0.043 C 
ATOM     12  C   UNL     1      -4.210   4.357  24.380  0.00  0.00    +0.145 C 
ENDROOT
BRANCH   8  13
ATOM      6  N   UNL     1       1.094   1.893  25.004  0.00  0.00    -0.240 NA
ATOM     13  C   UNL     1      -1.275   2.056  24.552  0.00  0.00    -0.024 A 
ATOM     15  C   UNL     1      -1.132   1.203  23.462  0.00  0.00    +0.009 A 
ATOM     16  C   UNL     1      -0.141   2.367  25.285  0.00  0.00    +0.116 A 
ATOM     17  C   UNL     1       0.122   0.696  23.143  0.00  0.00    +0.044 A 
ATOM     18  C   UNL     1       1.194   1.068  23.938  0.00  0.00    +0.121 A 
BRANCH  18   7
ATOM      4  O   UNL     1       4.895  -0.471  22.668  0.00  0.00    -0.377 OA
ATOM      7  N   UNL     1       2.449   0.552  23.604  0.00  0.00    -0.311 N 
ATOM     20  C   UNL     1       3.380   1.414  22.862  0.00  0.00    +0.134 C 
ATOM     21  C   UNL     1       2.610  -0.888  23.369  0.00  0.00    +0.134 C 
ATOM     24  C   UNL     1       4.806   0.904  23.039  0.00  0.00    +0.178 C 
ATOM     25  C   UNL     1       4.077  -1.274  23.518  0.00  0.00    +0.178 C 
ENDBRANCH  18   7
ENDBRANCH   8  13
BRANCH  10   2
ATOM      2  O   UNL     1      -4.012   3.346  22.180  0.00  0.00    -0.388 OA
ATOM     30  H   UNL     1      -3.647   2.490  21.894  0.00  0.00    +0.210 HD
ENDBRANCH  10   2
BRANCH  12   3
ATOM      3  O   UNL     1      -4.432   5.597  23.741  0.00  0.00    -0.389 OA
ATOM     31  H   UNL     1      -3.624   6.128  23.842  0.00  0.00    +0.210 HD
ENDBRANCH  12   3
BRANCH   9   5
ATOM      5  N   UNL     1      -4.717   1.320  25.102  0.00  0.00    -0.306 NA
ATOM     29  H   UNL     1      -5.649   1.728  25.026  0.00  0.00    +0.123 HD
BRANCH   5  14
ATOM     14  C   UNL     1      -4.808  -0.105  24.817  0.00  0.00    +0.116 C 
BRANCH  14  19
ATOM      1 CL   UNL     1       0.477  -2.883  25.554  0.00  0.00    -0.084 Cl
ATOM     19  C   UNL     1      -3.486  -0.800  25.001  0.00  0.00    -0.033 A 
ATOM     22  C   UNL     1      -2.684  -0.494  26.101  0.00  0.00    +0.006 A 
ATOM     23  C   UNL     1      -3.061  -1.750  24.071  0.00  0.00    +0.006 A 
ATOM     26  C   UNL     1      -1.458  -1.138  26.271  0.00  0.00    +0.020 A 
ATOM     27  C   UNL     1      -1.835  -2.394  24.242  0.00  0.00    +0.020 A 
ATOM     28  C   UNL     1      -1.034  -2.087  25.341  0.00  0.00    +0.041 A 
ENDBRANCH  14  19
ENDBRANCH   5  14
ENDBRANCH   9   5
TORSDOF 7
ENDMDL
MODEL 3
REMARK VINA RESULT:       1.0     14.225     16.184
REMARK  Name = 75536125
REMARK  7 active torsions:
REMARK  status: ('A' for Active; 'I' for Inactive)
REMARK    1  A    between atoms: O_2  and  C_10
REMARK    2  A    between atoms: O_3  and  C_12
REMARK    3  A    between atoms: N_5  and  C_9
REMARK    4  A    between atoms: N_5  and  C_14
REMARK    5  A    between atoms: N_7  and  C_18
REMARK    6  A    between atoms: C_8  and  C_13
REMARK    7  A    between atoms: C_14  and  C_19
REMARK                            x       y       z     vdW  Elec       q    Type
REMARK                         _______ _______ _______ _____ _____    ______ ____
ROOT
ATOM      8  C   UNL     1      -2.413   2.254  24.947  0.00  0.00    +0.042 C 
ATOM      9  C   UNL     1      -3.074   3.139  23.844  0.00  0.00    +0.093 C 
ATOM     10  C   UNL     1      -3.398   4.471  24.540  0.00  0.00    +0.160 C 
ATOM     11  C   UNL     1      -2.404   3.113  26.226  0.00  0.00    +0.043 C 
ATOM     12  C   UNL     1      -3.549   4.093  26.010  0.00  0.00    +0.145 C 
ENDROOT
BRANCH   8  13
ATOM      6  N   UNL     1       1.311   2.142  24.241  0.00  0.00    -0.240 NA
ATOM     13  C   UNL     1      -1.046   1.723  24.575  0.00  0.00    -0.024 A 
ATOM     15  C   UNL     1      -0.864   0.388  24.228  0.00  0.00    +0.009 A 
ATOM     16  C   UNL     1       0.065   2.552  24.565  0.00  0.00    +0.116 A 
ATOM     17  C   UNL     1       0.403  -0.070  23.889  0.00  0.00    +0.044 A 
ATOM     18  C   UNL     1       1.448   0.838  23.910  0.00  0.00    +0.121 A 
BRANCH  18   7
ATOM      4  O   UNL     1       5.180  -0.601  22.609  0.00  0.00    -0.377 OA
ATOM      7  N   UNL     1       2.717   0.363  23.565  0.00  0.00    -0.311 N 
ATOM     20  C   UNL     1       3.572   1.212  22.724  0.00  0.00    +0.134 C 
ATOM     21  C   UNL     1       2.947  -1.080  23.433  0.00  0.00    +0.134 C 
ATOM     24  C   UNL     1       5.028   0.793  22.879  0.00  0.00    +0.178 C 
ATOM     25  C   UNL     1       4.438  -1.377  23.550  0.00  0.00    +0.178 C 
ENDBRANCH  18   7
ENDBRANCH   8  13
BRANCH  10   2
ATOM      2  O   UNL     1      -2.292   5.354  24.357  0.00  0.00    -0.388 OA
ATOM     30  H   UNL     1      -1.482   4.814  24.371  0.00  0.00    +0.210 HD
ENDBRANCH  10   2
BRANCH  12   3
ATOM      3  O   UNL     1      -3.444   5.206  26.873  0.00  0.00    -0.389 OA
ATOM     31  H   UNL     1      -2.530   5.533  26.821  0.00  0.00    +0.210 HD
ENDBRANCH  12   3
BRANCH   9   5
ATOM      5  N   UNL     1      -4.311   2.505  23.383  0.00  0.00    -0.306 NA
ATOM     29  H   UNL     1      -4.087   1.822  22.658  0.00  0.00    +0.123 HD
BRANCH   5  14
ATOM     14  C   UNL     1      -4.982   1.818  24.478  0.00  0.00    +0.116 C 
BRANCH  14  19
ATOM      1 CL   UNL     1      -3.030  -3.837  25.112  0.00  0.00    -0.084 Cl
ATOM     19  C   UNL     1      -4.493   0.403  24.636  0.00  0.00    -0.033 A 
ATOM     22  C   UNL     1      -4.095  -0.061  25.890  0.00  0.00    +0.006 A 
ATOM     23  C   UNL     1      -4.436  -0.444  23.529  0.00  0.00    +0.006 A 
ATOM     26  C   UNL     1      -3.642  -1.373  26.037  0.00  0.00    +0.020 A 
ATOM     27  C   UNL     1      -3.983  -1.755  23.675  0.00  0.00    +0.020 A 
ATOM     28  C   UNL     1      -3.586  -2.219  24.929  0.00  0.00    +0.041 A 
ENDBRANCH  14  19
ENDBRANCH   5  14
ENDBRANCH   9   5
TORSDOF 7
ENDMDL
MODEL 4
REMARK VINA RESULT:       1.1     13.834     15.846
REMARK  Name = 75536125
REMARK  7 active torsions:
REMARK  status: ('A' for Active; 'I' for Inactive)
REMARK    1  A    between atoms: O_2  and  C_10
REMARK    2  A    between atoms: O_3  and  C_12
REMARK    3  A    between atoms: N_5  and  C_9
REMARK    4  A    between atoms: N_5  and  C_14
REMARK    5  A    between atoms: N_7  and  C_18
REMARK    6  A    between atoms: C_8  and  C_13
REMARK    7  A    between atoms: C_14  and  C_19
REMARK                            x       y       z     vdW  Elec       q    Type
REMARK                         _______ _______ _______ _____ _____    ______ ____
ROOT
ATOM      8  C   UNL     1      -2.793  -0.462  24.079  0.00  0.00    +0.042 C 
ATOM      9  C   UNL     1      -3.243  -0.918  25.502  0.00  0.00    +0.093 C 
ATOM     10  C   UNL     1      -4.120  -2.159  25.266  0.00  0.00    +0.160 C 
ATOM     11  C   UNL     1      -3.445  -1.452  23.094  0.00  0.00    +0.043 C 
ATOM     12  C   UNL     1      -4.661  -1.966  23.853  0.00  0.00    +0.145 C 
ENDROOT
BRANCH   8  13
ATOM      6  N   UNL     1       0.893  -1.344  24.204  0.00  0.00    -0.240 NA
ATOM     13  C   UNL     1      -1.293  -0.355  23.911  0.00  0.00    -0.024 A 
ATOM     15  C   UNL     1      -0.713   0.774  23.341  0.00  0.00    +0.009 A 
ATOM     16  C   UNL     1      -0.453  -1.377  24.323  0.00  0.00    +0.116 A 
ATOM     17  C   UNL     1       0.668   0.844  23.202  0.00  0.00    +0.044 A 
ATOM     18  C   UNL     1       1.420  -0.230  23.645  0.00  0.00    +0.121 A 
BRANCH  18   7
ATOM      4  O   UNL     1       5.564  -0.060  22.948  0.00  0.00    -0.377 OA
ATOM      7  N   UNL     1       2.808  -0.145  23.500  0.00  0.00    -0.311 N 
ATOM     20  C   UNL     1       3.348   0.848  22.561  0.00  0.00    +0.134 C 
ATOM     21  C   UNL     1       3.640  -1.338  23.693  0.00  0.00    +0.134 C 
ATOM     24  C   UNL     1       4.802   1.146  22.905  0.00  0.00    +0.178 C 
ATOM     25  C   UNL     1       5.079  -0.923  23.977  0.00  0.00    +0.178 C 
ENDBRANCH  18   7
ENDBRANCH   8  13
BRANCH  10   2
ATOM      2  O   UNL     1      -3.289  -3.316  25.336  0.00  0.00    -0.388 OA
ATOM     30  H   UNL     1      -3.742  -4.031  24.856  0.00  0.00    +0.210 HD
ENDBRANCH  10   2
BRANCH  12   3
ATOM      3  O   UNL     1      -5.151  -3.165  23.289  0.00  0.00    -0.389 OA
ATOM     31  H   UNL     1      -4.957  -3.141  22.336  0.00  0.00    +0.210 HD
ENDBRANCH  12   3
BRANCH   9   5
ATOM      5  N   UNL     1      -4.037   0.141  26.127  0.00  0.00    -0.306 NA
ATOM     29  H   UNL     1      -3.454   0.647  26.795  0.00  0.00    +0.123 HD
BRANCH   5  14
ATOM     14  C   UNL     1      -4.524   1.083  25.129  0.00  0.00    +0.116 C 
BRANCH  14  19
ATOM      1 CL   UNL     1      -1.123   6.039  24.879  0.00  0.00    -0.084 Cl
ATOM     19  C   UNL     1      -3.674   2.323  25.067  0.00  0.00    -0.033 A 
ATOM     22  C   UNL     1      -2.544   2.436  25.878  0.00  0.00    +0.006 A 
ATOM     23  C   UNL     1      -4.015   3.361  24.198  0.00  0.00    +0.006 A 
ATOM     26  C   UNL     1      -1.756   3.586  25.821  0.00  0.00    +0.020 A 
ATOM     27  C   UNL     1      -3.227   4.510  24.141  0.00  0.00    +0.020 A 
ATOM     28  C   UNL     1      -2.098   4.623  24.952  0.00  0.00    +0.041 A 
ENDBRANCH  14  19
ENDBRANCH   5  14
ENDBRANCH   9   5
TORSDOF 7
ENDMDL
MODEL 5
REMARK VINA RESULT:       1.8      1.676      2.394
REMARK  Name = 75536125
REMARK  7 active torsions:
REMARK  status: ('A' for Active; 'I' for Inactive)
REMARK    1  A    between atoms: O_2  and  C_10
REMARK    2  A    between atoms: O_3  and  C_12
REMARK    3  A    between atoms: N_5  and  C_9
REMARK    4  A    between atoms: N_5  and  C_14
REMARK    5  A    between atoms: N_7  and  C_18
REMARK    6  A    between atoms: C_8  and  C_13
REMARK    7  A    between atoms: C_14  and  C_19
REMARK                            x       y       z     vdW  Elec       q    Type
REMARK                         _______ _______ _______ _____ _____    ______ ____
ROOT
ATOM      8  C   UNL     1      -7.280 -10.738  16.854  0.00  0.00    +0.042 C 
ATOM      9  C   UNL     1      -8.365  -9.888  17.587  0.00  0.00    +0.093 C 
ATOM     10  C   UNL     1      -7.617  -9.184  18.730  0.00  0.00    +0.160 C 
ATOM     11  C   UNL     1      -5.966 -10.495  17.620  0.00  0.00    +0.043 C 
ATOM     12  C   UNL     1      -6.431 -10.100  19.015  0.00  0.00    +0.145 C 
ENDROOT
BRANCH   8  13
ATOM      6  N   UNL     1      -5.823  -9.708  13.508  0.00  0.00    -0.240 NA
ATOM     13  C   UNL     1      -7.170 -10.452  15.372  0.00  0.00    -0.024 A 
ATOM     15  C   UNL     1      -8.252 -10.646  14.520  0.00  0.00    +0.009 A 
ATOM     16  C   UNL     1      -5.987  -9.985  14.821  0.00  0.00    +0.116 A 
ATOM     17  C   UNL     1      -8.121 -10.373  13.164  0.00  0.00    +0.044 A 
ATOM     18  C   UNL     1      -6.896  -9.909  12.712  0.00  0.00    +0.121 A 
BRANCH  18   7
ATOM      4  O   UNL     1      -6.530  -8.820   8.667  0.00  0.00    -0.377 OA
ATOM      7  N   UNL     1      -6.780  -9.637  11.345  0.00  0.00    -0.311 N 
ATOM     20  C   UNL     1      -5.516  -9.066  10.857  0.00  0.00    +0.134 C 
ATOM     21  C   UNL     1      -7.970  -9.277  10.566  0.00  0.00    +0.134 C 
ATOM     24  C   UNL     1      -5.384  -9.314   9.359  0.00  0.00    +0.178 C 
ATOM     25  C   UNL     1      -7.706  -9.515   9.083  0.00  0.00    +0.178 C 
ENDBRANCH  18   7
ENDBRANCH   8  13
BRANCH  10   2
ATOM      2  O   UNL     1      -7.171  -7.913  18.259  0.00  0.00    -0.388 OA
ATOM     30  H   UNL     1      -7.081  -7.975  17.292  0.00  0.00    +0.210 HD
ENDBRANCH  10   2
BRANCH  12   3
ATOM      3  O   UNL     1      -5.403  -9.453  19.737  0.00  0.00    -0.389 OA
ATOM     31  H   UNL     1      -5.813  -9.012  20.499  0.00  0.00    +0.210 HD
ENDBRANCH  12   3
BRANCH   9   5
ATOM      5  N   UNL     1      -9.393 -10.775  18.136  0.00  0.00    -0.306 NA
ATOM     29  H   UNL     1      -9.211 -10.923  19.130  0.00  0.00    +0.123 HD
BRANCH   5  14
ATOM     14  C   UNL     1     -10.717 -10.188  17.989  0.00  0.00    +0.116 C 
BRANCH  14  19
ATOM      1 CL   UNL     1     -10.644  -5.373  14.383  0.00  0.00    -0.084 Cl
ATOM     19  C   UNL     1     -10.700  -8.984  17.086  0.00  0.00    -0.033 A 
ATOM     22  C   UNL     1     -10.665  -7.701  17.635  0.00  0.00    +0.006 A 
ATOM     23  C   UNL     1     -10.719  -9.149  15.701  0.00  0.00    +0.006 A 
ATOM     26  C   UNL     1     -10.649  -6.584  16.799  0.00  0.00    +0.020 A 
ATOM     27  C   UNL     1     -10.703  -8.032  14.865  0.00  0.00    +0.020 A 
ATOM     28  C   UNL     1     -10.668  -6.750  15.414  0.00  0.00    +0.041 A 
ENDBRANCH  14  19
ENDBRANCH   5  14
ENDBRANCH   9   5
TORSDOF 7
ENDMDL
MODEL 6
REMARK VINA RESULT:       2.1      2.069      2.848
REMARK  Name = 75536125
REMARK  7 active torsions:
REMARK  status: ('A' for Active; 'I' for Inactive)
REMARK    1  A    between atoms: O_2  and  C_10
REMARK    2  A    between atoms: O_3  and  C_12
REMARK    3  A    between atoms: N_5  and  C_9
REMARK    4  A    between atoms: N_5  and  C_14
REMARK    5  A    between atoms: N_7  and  C_18
REMARK    6  A    between atoms: C_8  and  C_13
REMARK    7  A    between atoms: C_14  and  C_19
REMARK                            x       y       z     vdW  Elec       q    Type
REMARK                         _______ _______ _______ _____ _____    ______ ____
ROOT
ATOM      8  C   UNL     1      -6.103 -10.781  15.903  0.00  0.00    +0.042 C 
ATOM      9  C   UNL     1      -7.382  -9.920  15.665  0.00  0.00    +0.093 C 
ATOM     10  C   UNL     1      -7.727  -9.327  17.041  0.00  0.00    +0.160 C 
ATOM     11  C   UNL     1      -5.783 -10.655  17.405  0.00  0.00    +0.043 C 
ATOM     12  C   UNL     1      -7.130 -10.321  18.032  0.00  0.00    +0.145 C 
ENDROOT
BRANCH   8  13
ATOM      6  N   UNL     1      -4.134  -9.740  12.833  0.00  0.00    -0.240 NA
ATOM     13  C   UNL     1      -4.936 -10.412  15.012  0.00  0.00    -0.024 A 
ATOM     15  C   UNL     1      -3.634 -10.401  15.502  0.00  0.00    +0.009 A 
ATOM     16  C   UNL     1      -5.131 -10.077  13.682  0.00  0.00    +0.116 A 
ATOM     17  C   UNL     1      -2.583 -10.060  14.659  0.00  0.00    +0.044 A 
ATOM     18  C   UNL     1      -2.883  -9.741  13.345  0.00  0.00    +0.121 A 
BRANCH  18   7
ATOM      4  O   UNL     1       0.397  -8.987  10.823  0.00  0.00    -0.377 OA
ATOM      7  N   UNL     1      -1.815  -9.401  12.508  0.00  0.00    -0.311 N 
ATOM     20  C   UNL     1      -1.830  -9.900  11.126  0.00  0.00    +0.134 C 
ATOM     21  C   UNL     1      -0.481  -9.179  13.078  0.00  0.00    +0.134 C 
ATOM     24  C   UNL     1      -0.913  -9.044  10.260  0.00  0.00    +0.178 C 
ATOM     25  C   UNL     1       0.364  -8.362  12.107  0.00  0.00    +0.178 C 
ENDBRANCH  18   7
ENDBRANCH   8  13
BRANCH  10   2
ATOM      2  O   UNL     1      -7.089  -8.056  17.154  0.00  0.00    -0.388 OA
ATOM     30  H   UNL     1      -7.787  -7.378  17.151  0.00  0.00    +0.210 HD
ENDBRANCH  10   2
BRANCH  12   3
ATOM      3  O   UNL     1      -6.975  -9.774  19.325  0.00  0.00    -0.389 OA
ATOM     31  H   UNL     1      -7.334 -10.417  19.960  0.00  0.00    +0.210 HD
ENDBRANCH  12   3
BRANCH   9   5
ATOM      5  N   UNL     1      -8.474 -10.781  15.206  0.00  0.00    -0.306 NA
ATOM     29  H   UNL     1      -8.813 -11.339  15.991  0.00  0.00    +0.123 HD
BRANCH   5  14
ATOM     14  C   UNL     1      -9.579  -9.987  14.689  0.00  0.00    +0.116 C 
BRANCH  14  19
ATOM      1 CL   UNL     1      -9.300  -9.382   8.709  0.00  0.00    -0.084 Cl
ATOM     19  C   UNL     1      -9.509  -9.837  13.193  0.00  0.00    -0.033 A 
ATOM     22  C   UNL     1     -10.570  -9.251  12.500  0.00  0.00    +0.006 A 
ATOM     23  C   UNL     1      -8.384 -10.283  12.498  0.00  0.00    +0.006 A 
ATOM     26  C   UNL     1     -10.506  -9.112  11.113  0.00  0.00    +0.020 A 
ATOM     27  C   UNL     1      -8.320 -10.143  11.111  0.00  0.00    +0.020 A 
ATOM     28  C   UNL     1      -9.381  -9.558  10.419  0.00  0.00    +0.041 A 
ENDBRANCH  14  19
ENDBRANCH   5  14
ENDBRANCH   9   5
TORSDOF 7
ENDMDL
