MODEL 1
REMARK VINA RESULT:      -4.2      0.000      0.000
REMARK  Name = 45784164
REMARK  12 active torsions:
REMARK  status: ('A' for Active; 'I' for Inactive)
REMARK    1  A    between atoms: N_3  and  C_16
REMARK    2  A    between atoms: N_5  and  C_25
REMARK    3  A    between atoms: N_7  and  C_29
REMARK    4  A    between atoms: C_9  and  C_13
REMARK    5  A    between atoms: C_10  and  C_16
REMARK    6  A    between atoms: C_12  and  C_17
REMARK    7  A    between atoms: C_13  and  C_18
REMARK    8  A    between atoms: C_13  and  C_19
REMARK    9  A    between atoms: C_14  and  C_20
REMARK   10  A    between atoms: C_17  and  C_21
REMARK   11  A    between atoms: C_23  and  C_24
REMARK   12  A    between atoms: C_25  and  C_27
REMARK                            x       y       z     vdW  Elec       q    Type
REMARK                         _______ _______ _______ _____ _____    ______ ____
ROOT
ATOM      9  C   UNL     1      -2.752   2.597  23.756  0.00  0.00    +0.000 C 
ATOM     10  C   UNL     1      -1.485   2.955  24.572  0.00  0.00    +0.032 C 
ATOM     11  C   UNL     1      -3.794   3.720  23.865  0.00  0.00    +0.012 C 
ATOM     12  C   UNL     1      -4.213   3.987  25.324  0.00  0.00    +0.024 C 
ATOM     14  C   UNL     1      -3.014   4.085  26.244  0.00  0.00    -0.073 C 
ATOM     15  C   UNL     1      -1.799   3.631  25.887  0.00  0.00    -0.022 C 
ATOM     20  C   UNL     1      -3.231   4.760  27.571  0.00  0.00    +0.039 C 
ENDROOT
BRANCH   9  13
ATOM     13  C   UNL     1      -2.424   2.335  22.283  0.00  0.00    -0.013 C 
ATOM     18  C   UNL     1      -3.478   2.973  21.382  0.00  0.00    +0.007 C 
ATOM     19  C   UNL     1      -2.323   0.837  22.019  0.00  0.00    +0.007 C 
ENDBRANCH   9  13
BRANCH  10  16
ATOM     16  C   UNL     1      -0.625   1.712  24.831  0.00  0.00    +0.113 C 
BRANCH  16   3
ATOM      2  O   UNL     1       0.937  -0.100  23.219  0.00  0.00    -0.253 OA
ATOM      3  N   UNL     1       0.709   1.911  24.360  0.00  0.00    -0.299 N 
ATOM      5  N   UNL     1       2.685   1.426  23.258  0.00  0.00    -0.300 N 
ATOM     22  C   UNL     1       1.405   0.980  23.578  0.00  0.00    +0.300 C 
ATOM     30  H   UNL     1       1.161   2.802  24.544  0.00  0.00    +0.150 HD
ATOM     31  H   UNL     1       2.989   2.329  23.613  0.00  0.00    +0.150 HD
BRANCH   5  25
ATOM     25  C   UNL     1       3.606   0.653  22.461  0.00  0.00    +0.102 C 
ATOM     27  C   UNL     1       4.882   0.353  23.222  0.00  0.00    +0.024 C 
ENDBRANCH   5  25
ENDBRANCH  16   3
ENDBRANCH  10  16
BRANCH  12  17
ATOM     17  C   UNL     1      -5.199   2.923  25.819  0.00  0.00    +0.105 C 
BRANCH  17  21
ATOM      1  O   UNL     1      -3.707   1.000  25.629  0.00  0.00    -0.419 OA
ATOM      4  N   UNL     1      -5.575   0.834  24.409  0.00  0.00    -0.112 NA
ATOM      6  N   UNL     1      -4.829  -0.312  24.207  0.00  0.00    -0.106 NA
ATOM     21  C   UNL     1      -4.881   1.571  25.245  0.00  0.00    +0.218 A 
ATOM     23  C   UNL     1      -3.749  -0.172  24.939  0.00  0.00    +0.266 A 
BRANCH  23  24
ATOM      7  N   UNL     1      -2.820  -2.417  24.511  0.00  0.00    -0.329 N 
ATOM      8  N   UNL     1      -0.782  -2.255  25.380  0.00  0.00    -0.243 NA
ATOM     24  C   UNL     1      -2.722  -1.145  25.003  0.00  0.00    +0.125 A 
ATOM     26  C   UNL     1      -1.456  -1.069  25.534  0.00  0.00    +0.143 A 
ATOM     28  C   UNL     1      -1.631  -3.045  24.762  0.00  0.00    +0.199 A 
ATOM     29  C   UNL     1      -3.956  -3.012  23.846  0.00  0.00    +0.150 C 
ENDBRANCH  23  24
ENDBRANCH  17  21
ENDBRANCH  12  17
TORSDOF 7
ENDMDL
MODEL 2
REMARK VINA RESULT:      -2.9      1.954      4.964
REMARK  Name = 45784164
REMARK  12 active torsions:
REMARK  status: ('A' for Active; 'I' for Inactive)
REMARK    1  A    between atoms: N_3  and  C_16
REMARK    2  A    between atoms: N_5  and  C_25
REMARK    3  A    between atoms: N_7  and  C_29
REMARK    4  A    between atoms: C_9  and  C_13
REMARK    5  A    between atoms: C_10  and  C_16
REMARK    6  A    between atoms: C_12  and  C_17
REMARK    7  A    between atoms: C_13  and  C_18
REMARK    8  A    between atoms: C_13  and  C_19
REMARK    9  A    between atoms: C_14  and  C_20
REMARK   10  A    between atoms: C_17  and  C_21
REMARK   11  A    between atoms: C_23  and  C_24
REMARK   12  A    between atoms: C_25  and  C_27
REMARK                            x       y       z     vdW  Elec       q    Type
REMARK                         _______ _______ _______ _____ _____    ______ ____
ROOT
ATOM      9  C   UNL     1      -1.158   0.290  24.609  0.00  0.00    +0.000 C 
ATOM     10  C   UNL     1      -0.342  -0.973  24.239  0.00  0.00    +0.032 C 
ATOM     11  C   UNL     1      -2.181  -0.035  25.708  0.00  0.00    +0.012 C 
ATOM     12  C   UNL     1      -3.163  -1.143  25.281  0.00  0.00    +0.024 C 
ATOM     14  C   UNL     1      -2.445  -2.320  24.655  0.00  0.00    -0.073 C 
ATOM     15  C   UNL     1      -1.180  -2.231  24.207  0.00  0.00    -0.022 C 
ATOM     20  C   UNL     1      -3.200  -3.620  24.595  0.00  0.00    +0.039 C 
ENDROOT
BRANCH   9  13
ATOM     13  C   UNL     1      -0.253   1.438  25.066  0.00  0.00    -0.013 C 
ATOM     18  C   UNL     1      -0.577   1.831  26.504  0.00  0.00    +0.007 C 
ATOM     19  C   UNL     1      -0.400   2.635  24.133  0.00  0.00    +0.007 C 
ENDBRANCH   9  13
BRANCH  10  16
ATOM     16  C   UNL     1       0.367  -0.799  22.891  0.00  0.00    +0.113 C 
BRANCH  16   3
ATOM      2  O   UNL     1       3.178  -1.427  23.061  0.00  0.00    -0.253 OA
ATOM      3  N   UNL     1       1.450   0.126  23.003  0.00  0.00    -0.299 N 
ATOM      5  N   UNL     1       3.642   0.844  23.184  0.00  0.00    -0.300 N 
ATOM     22  C   UNL     1       2.795  -0.257  23.081  0.00  0.00    +0.300 C 
ATOM     30  H   UNL     1       1.246   1.120  22.959  0.00  0.00    +0.150 HD
ATOM     31  H   UNL     1       3.232   1.773  23.207  0.00  0.00    +0.150 HD
BRANCH   5  25
ATOM     25  C   UNL     1       5.077   0.721  23.279  0.00  0.00    +0.102 C 
ATOM     27  C   UNL     1       5.479  -0.290  24.333  0.00  0.00    +0.024 C 
ENDBRANCH   5  25
ENDBRANCH  16   3
ENDBRANCH  10  16
BRANCH  12  17
ATOM     17  C   UNL     1      -4.240  -0.593  24.339  0.00  0.00    +0.105 C 
BRANCH  17  21
ATOM      1  O   UNL     1      -3.517   1.738  24.387  0.00  0.00    -0.419 OA
ATOM      4  N   UNL     1      -5.624   1.419  25.064  0.00  0.00    -0.112 NA
ATOM      6  N   UNL     1      -5.350   2.772  25.143  0.00  0.00    -0.106 NA
ATOM     21  C   UNL     1      -4.526   0.856  24.619  0.00  0.00    +0.218 A 
ATOM     23  C   UNL     1      -4.110   2.912  24.737  0.00  0.00    +0.266 A 
BRANCH  23  24
ATOM      7  N   UNL     1      -2.769   4.741  25.708  0.00  0.00    -0.329 N 
ATOM      8  N   UNL     1      -2.594   6.152  24.002  0.00  0.00    -0.243 NA
ATOM     24  C   UNL     1      -3.449   4.162  24.672  0.00  0.00    +0.125 A 
ATOM     26  C   UNL     1      -3.326   5.052  23.631  0.00  0.00    +0.143 A 
ATOM     28  C   UNL     1      -2.275   5.933  25.258  0.00  0.00    +0.199 A 
ATOM     29  C   UNL     1      -2.592   4.211  27.041  0.00  0.00    +0.150 C 
ENDBRANCH  23  24
ENDBRANCH  17  21
ENDBRANCH  12  17
TORSDOF 7
ENDMDL
MODEL 3
REMARK VINA RESULT:      -2.6      1.991      4.845
REMARK  Name = 45784164
REMARK  12 active torsions:
REMARK  status: ('A' for Active; 'I' for Inactive)
REMARK    1  A    between atoms: N_3  and  C_16
REMARK    2  A    between atoms: N_5  and  C_25
REMARK    3  A    between atoms: N_7  and  C_29
REMARK    4  A    between atoms: C_9  and  C_13
REMARK    5  A    between atoms: C_10  and  C_16
REMARK    6  A    between atoms: C_12  and  C_17
REMARK    7  A    between atoms: C_13  and  C_18
REMARK    8  A    between atoms: C_13  and  C_19
REMARK    9  A    between atoms: C_14  and  C_20
REMARK   10  A    between atoms: C_17  and  C_21
REMARK   11  A    between atoms: C_23  and  C_24
REMARK   12  A    between atoms: C_25  and  C_27
REMARK                            x       y       z     vdW  Elec       q    Type
REMARK                         _______ _______ _______ _____ _____    ______ ____
ROOT
ATOM      9  C   UNL     1      -1.340   0.870  25.224  0.00  0.00    +0.000 C 
ATOM     10  C   UNL     1      -0.015   0.322  24.638  0.00  0.00    +0.032 C 
ATOM     11  C   UNL     1      -2.021  -0.196  26.095  0.00  0.00    +0.012 C 
ATOM     12  C   UNL     1      -2.331  -1.483  25.307  0.00  0.00    +0.024 C 
ATOM     14  C   UNL     1      -1.143  -1.939  24.485  0.00  0.00    -0.073 C 
ATOM     15  C   UNL     1      -0.111  -1.123  24.207  0.00  0.00    -0.022 C 
ATOM     20  C   UNL     1      -1.146  -3.372  24.027  0.00  0.00    +0.039 C 
ENDROOT
BRANCH   9  13
ATOM     13  C   UNL     1      -1.117   2.144  26.043  0.00  0.00    -0.013 C 
ATOM     18  C   UNL     1      -1.293   3.379  25.165  0.00  0.00    +0.007 C 
ATOM     19  C   UNL     1       0.267   2.129  26.683  0.00  0.00    +0.007 C 
ENDBRANCH   9  13
BRANCH  10  16
ATOM     16  C   UNL     1       0.461   1.176  23.456  0.00  0.00    +0.113 C 
BRANCH  16   3
ATOM      2  O   UNL     1       2.601  -0.589  22.662  0.00  0.00    -0.253 OA
ATOM      3  N   UNL     1       1.864   1.430  23.546  0.00  0.00    -0.299 N 
ATOM      5  N   UNL     1       4.131   1.020  23.337  0.00  0.00    -0.300 N 
ATOM     22  C   UNL     1       2.847   0.519  23.138  0.00  0.00    +0.300 C 
ATOM     30  H   UNL     1       2.172   2.344  23.863  0.00  0.00    +0.150 HD
ATOM     31  H   UNL     1       4.236   1.942  23.751  0.00  0.00    +0.150 HD
BRANCH   5  25
ATOM     25  C   UNL     1       5.322   0.277  22.998  0.00  0.00    +0.102 C 
ATOM     27  C   UNL     1       5.714  -0.678  24.108  0.00  0.00    +0.024 C 
ENDBRANCH   5  25
ENDBRANCH  16   3
ENDBRANCH  10  16
BRANCH  12  17
ATOM     17  C   UNL     1      -3.572  -1.305  24.425  0.00  0.00    +0.105 C 
BRANCH  17  21
ATOM      1  O   UNL     1      -4.441   0.922  24.915  0.00  0.00    -0.419 OA
ATOM      4  N   UNL     1      -3.380   0.764  22.952  0.00  0.00    -0.112 NA
ATOM      6  N   UNL     1      -3.817   2.068  23.098  0.00  0.00    -0.106 NA
ATOM     21  C   UNL     1      -3.767   0.132  24.035  0.00  0.00    +0.218 A 
ATOM     23  C   UNL     1      -4.430   2.114  24.258  0.00  0.00    +0.266 A 
BRANCH  23  24
ATOM      7  N   UNL     1      -5.979   3.314  25.756  0.00  0.00    -0.329 N 
ATOM      8  N   UNL     1      -5.613   5.435  25.208  0.00  0.00    -0.243 NA
ATOM     24  C   UNL     1      -5.026   3.289  24.776  0.00  0.00    +0.125 A 
ATOM     26  C   UNL     1      -4.816   4.609  24.454  0.00  0.00    +0.143 A 
ATOM     28  C   UNL     1      -6.301   4.624  25.981  0.00  0.00    +0.199 A 
ATOM     29  C   UNL     1      -6.557   2.182  26.442  0.00  0.00    +0.150 C 
ENDBRANCH  23  24
ENDBRANCH  17  21
ENDBRANCH  12  17
TORSDOF 7
ENDMDL
MODEL 4
REMARK VINA RESULT:      -2.4      1.633      2.584
REMARK  Name = 45784164
REMARK  12 active torsions:
REMARK  status: ('A' for Active; 'I' for Inactive)
REMARK    1  A    between atoms: N_3  and  C_16
REMARK    2  A    between atoms: N_5  and  C_25
REMARK    3  A    between atoms: N_7  and  C_29
REMARK    4  A    between atoms: C_9  and  C_13
REMARK    5  A    between atoms: C_10  and  C_16
REMARK    6  A    between atoms: C_12  and  C_17
REMARK    7  A    between atoms: C_13  and  C_18
REMARK    8  A    between atoms: C_13  and  C_19
REMARK    9  A    between atoms: C_14  and  C_20
REMARK   10  A    between atoms: C_17  and  C_21
REMARK   11  A    between atoms: C_23  and  C_24
REMARK   12  A    between atoms: C_25  and  C_27
REMARK                            x       y       z     vdW  Elec       q    Type
REMARK                         _______ _______ _______ _____ _____    ______ ____
ROOT
ATOM      9  C   UNL     1      -1.638   4.036  24.690  0.00  0.00    +0.000 C 
ATOM     10  C   UNL     1      -1.756   3.344  26.070  0.00  0.00    +0.032 C 
ATOM     11  C   UNL     1      -2.832   4.974  24.457  0.00  0.00    +0.012 C 
ATOM     12  C   UNL     1      -4.179   4.230  24.516  0.00  0.00    +0.024 C 
ATOM     14  C   UNL     1      -4.263   3.314  25.720  0.00  0.00    -0.073 C 
ATOM     15  C   UNL     1      -3.172   2.939  26.411  0.00  0.00    -0.022 C 
ATOM     20  C   UNL     1      -5.639   2.874  26.141  0.00  0.00    +0.039 C 
ENDROOT
BRANCH   9  13
ATOM     13  C   UNL     1      -0.329   4.819  24.556  0.00  0.00    -0.013 C 
ATOM     18  C   UNL     1      -0.540   6.279  24.945  0.00  0.00    +0.007 C 
ATOM     19  C   UNL     1       0.212   4.712  23.134  0.00  0.00    +0.007 C 
ENDBRANCH   9  13
BRANCH  10  16
ATOM     16  C   UNL     1      -0.841   2.117  26.154  0.00  0.00    +0.113 C 
BRANCH  16   3
ATOM      2  O   UNL     1       0.222  -0.022  24.536  0.00  0.00    -0.253 OA
ATOM      3  N   UNL     1       0.216   2.205  25.197  0.00  0.00    -0.299 N 
ATOM      5  N   UNL     1       1.715   1.482  23.591  0.00  0.00    -0.300 N 
ATOM     22  C   UNL     1       0.679   1.117  24.447  0.00  0.00    +0.300 C 
ATOM     30  H   UNL     1       0.615   3.118  24.998  0.00  0.00    +0.150 HD
ATOM     31  H   UNL     1       2.036   2.446  23.597  0.00  0.00    +0.150 HD
BRANCH   5  25
ATOM     25  C   UNL     1       2.368   0.544  22.709  0.00  0.00    +0.102 C 
ATOM     27  C   UNL     1       3.871   0.729  22.716  0.00  0.00    +0.024 C 
ENDBRANCH   5  25
ENDBRANCH  16   3
ENDBRANCH  10  16
BRANCH  12  17
ATOM     17  C   UNL     1      -4.440   3.457  23.219  0.00  0.00    +0.105 C 
BRANCH  17  21
ATOM      1  O   UNL     1      -4.261   1.102  23.835  0.00  0.00    -0.419 OA
ATOM      4  N   UNL     1      -2.534   1.869  22.639  0.00  0.00    -0.112 NA
ATOM      6  N   UNL     1      -2.302   0.535  22.917  0.00  0.00    -0.106 NA
ATOM     21  C   UNL     1      -3.688   2.157  23.195  0.00  0.00    +0.218 A 
ATOM     23  C   UNL     1      -3.336   0.128  23.616  0.00  0.00    +0.266 A 
BRANCH  23  24
ATOM      7  N   UNL     1      -2.939  -1.661  25.267  0.00  0.00    -0.329 N 
ATOM      8  N   UNL     1      -4.021  -3.379  24.367  0.00  0.00    -0.243 NA
ATOM     24  C   UNL     1      -3.476  -1.195  24.099  0.00  0.00    +0.125 A 
ATOM     26  C   UNL     1      -4.139  -2.273  23.562  0.00  0.00    +0.143 A 
ATOM     28  C   UNL     1      -3.292  -2.977  25.384  0.00  0.00    +0.199 A 
ATOM     29  C   UNL     1      -2.142  -0.922  26.218  0.00  0.00    +0.150 C 
ENDBRANCH  23  24
ENDBRANCH  17  21
ENDBRANCH  12  17
TORSDOF 7
ENDMDL
MODEL 5
REMARK VINA RESULT:      -1.9      2.292      6.445
REMARK  Name = 45784164
REMARK  12 active torsions:
REMARK  status: ('A' for Active; 'I' for Inactive)
REMARK    1  A    between atoms: N_3  and  C_16
REMARK    2  A    between atoms: N_5  and  C_25
REMARK    3  A    between atoms: N_7  and  C_29
REMARK    4  A    between atoms: C_9  and  C_13
REMARK    5  A    between atoms: C_10  and  C_16
REMARK    6  A    between atoms: C_12  and  C_17
REMARK    7  A    between atoms: C_13  and  C_18
REMARK    8  A    between atoms: C_13  and  C_19
REMARK    9  A    between atoms: C_14  and  C_20
REMARK   10  A    between atoms: C_17  and  C_21
REMARK   11  A    between atoms: C_23  and  C_24
REMARK   12  A    between atoms: C_25  and  C_27
REMARK                            x       y       z     vdW  Elec       q    Type
REMARK                         _______ _______ _______ _____ _____    ______ ____
ROOT
ATOM      9  C   UNL     1      -3.165  -1.115  24.398  0.00  0.00    +0.000 C 
ATOM     10  C   UNL     1      -3.551  -0.155  25.551  0.00  0.00    +0.032 C 
ATOM     11  C   UNL     1      -1.686  -1.514  24.506  0.00  0.00    +0.012 C 
ATOM     12  C   UNL     1      -0.747  -0.293  24.459  0.00  0.00    +0.024 C 
ATOM     14  C   UNL     1      -1.219   0.814  25.380  0.00  0.00    -0.073 C 
ATOM     15  C   UNL     1      -2.471   0.853  25.869  0.00  0.00    -0.022 C 
ATOM     20  C   UNL     1      -0.203   1.855  25.764  0.00  0.00    +0.039 C 
ENDROOT
BRANCH   9  13
ATOM     13  C   UNL     1      -4.041  -2.371  24.386  0.00  0.00    -0.013 C 
ATOM     18  C   UNL     1      -3.222  -3.595  24.782  0.00  0.00    +0.007 C 
ATOM     19  C   UNL     1      -4.673  -2.566  23.012  0.00  0.00    +0.007 C 
ENDBRANCH   9  13
BRANCH  10  16
ATOM     16  C   UNL     1      -4.861   0.581  25.242  0.00  0.00    +0.113 C 
BRANCH  16   3
ATOM      2  O   UNL     1      -3.435   2.456  23.578  0.00  0.00    -0.253 OA
ATOM      3  N   UNL     1      -4.716   1.985  25.458  0.00  0.00    -0.299 N 
ATOM      5  N   UNL     1      -4.023   4.154  25.047  0.00  0.00    -0.300 N 
ATOM     22  C   UNL     1      -4.005   2.835  24.601  0.00  0.00    +0.300 C 
ATOM     30  H   UNL     1      -5.208   2.409  26.239  0.00  0.00    +0.150 HD
ATOM     31  H   UNL     1      -4.509   4.369  25.912  0.00  0.00    +0.150 HD
BRANCH   5  25
ATOM     25  C   UNL     1      -3.364   5.227  24.342  0.00  0.00    +0.102 C 
ATOM     27  C   UNL     1      -1.918   5.369  24.774  0.00  0.00    +0.024 C 
ENDBRANCH   5  25
ENDBRANCH  16   3
ENDBRANCH  10  16
BRANCH  12  17
ATOM     17  C   UNL     1      -0.581   0.221  23.025  0.00  0.00    +0.105 C 
BRANCH  17  21
ATOM      1  O   UNL     1       1.821   0.226  23.461  0.00  0.00    -0.419 OA
ATOM      4  N   UNL     1       1.276  -0.243  21.343  0.00  0.00    -0.112 NA
ATOM      6  N   UNL     1       2.654  -0.273  21.447  0.00  0.00    -0.106 NA
ATOM     21  C   UNL     1       0.832   0.052  22.543  0.00  0.00    +0.218 A 
ATOM     23  C   UNL     1       2.927   0.006  22.700  0.00  0.00    +0.266 A 
BRANCH  23  24
ATOM      7  N   UNL     1       4.915  -0.969  23.787  0.00  0.00    -0.329 N 
ATOM      8  N   UNL     1       6.312   0.756  23.845  0.00  0.00    -0.243 NA
ATOM     24  C   UNL     1       4.245   0.075  23.212  0.00  0.00    +0.125 A 
ATOM     26  C   UNL     1       5.128   1.129  23.259  0.00  0.00    +0.143 A 
ATOM     28  C   UNL     1       6.151  -0.511  24.151  0.00  0.00    +0.199 A 
ATOM     29  C   UNL     1       4.431  -2.315  23.985  0.00  0.00    +0.150 C 
ENDBRANCH  23  24
ENDBRANCH  17  21
ENDBRANCH  12  17
TORSDOF 7
ENDMDL
MODEL 6
REMARK VINA RESULT:      -1.6      1.923      2.356
REMARK  Name = 45784164
REMARK  12 active torsions:
REMARK  status: ('A' for Active; 'I' for Inactive)
REMARK    1  A    between atoms: N_3  and  C_16
REMARK    2  A    between atoms: N_5  and  C_25
REMARK    3  A    between atoms: N_7  and  C_29
REMARK    4  A    between atoms: C_9  and  C_13
REMARK    5  A    between atoms: C_10  and  C_16
REMARK    6  A    between atoms: C_12  and  C_17
REMARK    7  A    between atoms: C_13  and  C_18
REMARK    8  A    between atoms: C_13  and  C_19
REMARK    9  A    between atoms: C_14  and  C_20
REMARK   10  A    between atoms: C_17  and  C_21
REMARK   11  A    between atoms: C_23  and  C_24
REMARK   12  A    between atoms: C_25  and  C_27
REMARK                            x       y       z     vdW  Elec       q    Type
REMARK                         _______ _______ _______ _____ _____    ______ ____
ROOT
ATOM      9  C   UNL     1      -2.941   2.889  23.499  0.00  0.00    +0.000 C 
ATOM     10  C   UNL     1      -1.697   3.493  24.197  0.00  0.00    +0.032 C 
ATOM     11  C   UNL     1      -4.183   3.746  23.783  0.00  0.00    +0.012 C 
ATOM     12  C   UNL     1      -4.479   3.865  25.290  0.00  0.00    +0.024 C 
ATOM     14  C   UNL     1      -3.231   4.198  26.083  0.00  0.00    -0.073 C 
ATOM     15  C   UNL     1      -1.997   4.038  25.574  0.00  0.00    -0.022 C 
ATOM     20  C   UNL     1      -3.436   4.764  27.462  0.00  0.00    +0.039 C 
ENDROOT
BRANCH   9  13
ATOM     13  C   UNL     1      -2.737   2.755  21.988  0.00  0.00    -0.013 C 
ATOM     18  C   UNL     1      -3.948   3.300  21.237  0.00  0.00    +0.007 C 
ATOM     19  C   UNL     1      -2.479   1.300  21.612  0.00  0.00    +0.007 C 
ENDBRANCH   9  13
BRANCH  10  16
ATOM     16  C   UNL     1      -0.562   2.465  24.292  0.00  0.00    +0.113 C 
BRANCH  16   3
ATOM      2  O   UNL     1      -0.592   1.476  27.001  0.00  0.00    -0.253 OA
ATOM      3  N   UNL     1       0.344   2.806  25.341  0.00  0.00    -0.299 N 
ATOM      5  N   UNL     1       1.272   2.781  27.461  0.00  0.00    -0.300 N 
ATOM     22  C   UNL     1       0.265   2.281  26.638  0.00  0.00    +0.300 C 
ATOM     30  H   UNL     1       1.131   3.411  25.126  0.00  0.00    +0.150 HD
ATOM     31  H   UNL     1       1.927   3.454  27.075  0.00  0.00    +0.150 HD
BRANCH   5  25
ATOM     25  C   UNL     1       1.412   2.398  28.845  0.00  0.00    +0.102 C 
ATOM     27  C   UNL     1       2.756   2.819  29.404  0.00  0.00    +0.024 C 
ENDBRANCH   5  25
ENDBRANCH  16   3
ENDBRANCH  10  16
BRANCH  12  17
ATOM     17  C   UNL     1      -5.145   2.593  25.824  0.00  0.00    +0.105 C 
BRANCH  17  21
ATOM      1  O   UNL     1      -3.428   0.875  25.582  0.00  0.00    -0.419 OA
ATOM      4  N   UNL     1      -5.132   0.675  24.147  0.00  0.00    -0.112 NA
ATOM      6  N   UNL     1      -4.241  -0.353  23.898  0.00  0.00    -0.106 NA
ATOM     21  C   UNL     1      -4.616   1.366  25.136  0.00  0.00    +0.218 A 
ATOM     23  C   UNL     1      -3.263  -0.197  24.760  0.00  0.00    +0.266 A 
BRANCH  23  24
ATOM      7  N   UNL     1      -2.199  -2.422  24.752  0.00  0.00    -0.329 N 
ATOM      8  N   UNL     1      -0.049  -1.915  24.986  0.00  0.00    -0.243 NA
ATOM     24  C   UNL     1      -2.141  -1.058  24.826  0.00  0.00    +0.125 A 
ATOM     26  C   UNL     1      -0.804  -0.769  24.970  0.00  0.00    +0.143 A 
ATOM     28  C   UNL     1      -0.918  -2.892  24.853  0.00  0.00    +0.199 A 
ATOM     29  C   UNL     1      -3.379  -3.240  24.595  0.00  0.00    +0.150 C 
ENDBRANCH  23  24
ENDBRANCH  17  21
ENDBRANCH  12  17
TORSDOF 7
ENDMDL
MODEL 7
REMARK VINA RESULT:      -0.4      2.089      4.968
REMARK  Name = 45784164
REMARK  12 active torsions:
REMARK  status: ('A' for Active; 'I' for Inactive)
REMARK    1  A    between atoms: N_3  and  C_16
REMARK    2  A    between atoms: N_5  and  C_25
REMARK    3  A    between atoms: N_7  and  C_29
REMARK    4  A    between atoms: C_9  and  C_13
REMARK    5  A    between atoms: C_10  and  C_16
REMARK    6  A    between atoms: C_12  and  C_17
REMARK    7  A    between atoms: C_13  and  C_18
REMARK    8  A    between atoms: C_13  and  C_19
REMARK    9  A    between atoms: C_14  and  C_20
REMARK   10  A    between atoms: C_17  and  C_21
REMARK   11  A    between atoms: C_23  and  C_24
REMARK   12  A    between atoms: C_25  and  C_27
REMARK                            x       y       z     vdW  Elec       q    Type
REMARK                         _______ _______ _______ _____ _____    ______ ____
ROOT
ATOM      9  C   UNL     1       0.305   1.551  24.062  0.00  0.00    +0.000 C 
ATOM     10  C   UNL     1       0.083   1.830  25.569  0.00  0.00    +0.032 C 
ATOM     11  C   UNL     1       0.716   2.839  23.334  0.00  0.00    +0.012 C 
ATOM     12  C   UNL     1      -0.341   3.951  23.473  0.00  0.00    +0.024 C 
ATOM     14  C   UNL     1      -0.811   4.104  24.905  0.00  0.00    -0.073 C 
ATOM     15  C   UNL     1      -0.601   3.152  25.832  0.00  0.00    -0.022 C 
ATOM     20  C   UNL     1      -1.489   5.398  25.262  0.00  0.00    +0.039 C 
ENDROOT
BRANCH   9  13
ATOM     13  C   UNL     1       1.362   0.466  23.834  0.00  0.00    -0.013 C 
ATOM     18  C   UNL     1       2.644   1.080  23.280  0.00  0.00    +0.007 C 
ATOM     19  C   UNL     1       0.828  -0.608  22.893  0.00  0.00    +0.007 C 
ENDBRANCH   9  13
BRANCH  10  16
ATOM     16  C   UNL     1      -0.719   0.701  26.229  0.00  0.00    +0.113 C 
BRANCH  16   3
ATOM      2  O   UNL     1      -2.871  -1.202  26.488  0.00  0.00    -0.253 OA
ATOM      3  N   UNL     1      -1.143  -0.255  25.257  0.00  0.00    -0.299 N 
ATOM      5  N   UNL     1      -2.401  -1.971  24.349  0.00  0.00    -0.300 N 
ATOM     22  C   UNL     1      -2.201  -1.151  25.456  0.00  0.00    +0.300 C 
ATOM     30  H   UNL     1      -0.698  -0.248  24.343  0.00  0.00    +0.150 HD
ATOM     31  H   UNL     1      -1.788  -1.865  23.547  0.00  0.00    +0.150 HD
BRANCH   5  25
ATOM     25  C   UNL     1      -3.431  -2.981  24.300  0.00  0.00    +0.102 C 
ATOM     27  C   UNL     1      -4.686  -2.462  23.628  0.00  0.00    +0.024 C 
ENDBRANCH   5  25
ENDBRANCH  16   3
ENDBRANCH  10  16
BRANCH  12  17
ATOM     17  C   UNL     1      -1.525   3.708  22.531  0.00  0.00    +0.105 C 
BRANCH  17  21
ATOM      1  O   UNL     1      -3.339   3.091  24.043  0.00  0.00    -0.419 OA
ATOM      4  N   UNL     1      -2.581   1.403  22.786  0.00  0.00    -0.112 NA
ATOM      6  N   UNL     1      -3.596   0.916  23.589  0.00  0.00    -0.106 NA
ATOM     21  C   UNL     1      -2.466   2.676  23.086  0.00  0.00    +0.218 A 
ATOM     23  C   UNL     1      -4.009   1.936  24.304  0.00  0.00    +0.266 A 
BRANCH  23  24
ATOM      7  N   UNL     1      -5.699   2.913  25.813  0.00  0.00    -0.329 N 
ATOM      8  N   UNL     1      -6.620   1.107  26.719  0.00  0.00    -0.243 NA
ATOM     24  C   UNL     1      -5.050   1.844  25.260  0.00  0.00    +0.125 A 
ATOM     26  C   UNL     1      -5.637   0.741  25.834  0.00  0.00    +0.143 A 
ATOM     28  C   UNL     1      -6.631   2.421  26.683  0.00  0.00    +0.199 A 
ATOM     29  C   UNL     1      -5.461   4.313  25.546  0.00  0.00    +0.150 C 
ENDBRANCH  23  24
ENDBRANCH  17  21
ENDBRANCH  12  17
TORSDOF 7
ENDMDL
