MODEL 1
REMARK VINA RESULT:       1.3      0.000      0.000
REMARK  Name = 75368618
REMARK  7 active torsions:
REMARK  status: ('A' for Active; 'I' for Inactive)
REMARK    1  A    between atoms: O_2  and  C_25
REMARK    2  A    between atoms: O_2  and  C_28
REMARK    3  A    between atoms: N_4  and  C_13
REMARK    4  A    between atoms: N_5  and  C_14
REMARK    5  A    between atoms: C_13  and  C_15
REMARK    6  A    between atoms: C_14  and  C_16
REMARK    7  A    between atoms: C_21  and  C_27
REMARK                            x       y       z     vdW  Elec       q    Type
REMARK                         _______ _______ _______ _____ _____    ______ ____
ROOT
ATOM      1  O   UNL     1      -0.261  -2.704  22.906  0.00  0.00    -0.252 OA
ATOM      3  N   UNL     1      -1.440  -1.230  24.304  0.00  0.00    -0.278 N 
ATOM      4  N   UNL     1      -3.627  -0.026  25.601  0.00  0.00    -0.295 NA
ATOM      5  N   UNL     1       0.181  -0.389  22.996  0.00  0.00    -0.279 N 
ATOM      7  C   UNL     1      -1.348   0.162  24.690  0.00  0.00    +0.109 C 
ATOM      8  C   UNL     1      -2.740   0.791  24.749  0.00  0.00    +0.109 C 
ATOM      9  C   UNL     1      -0.415   0.767  23.644  0.00  0.00    +0.133 C 
ATOM     10  C   UNL     1      -2.391  -2.091  24.976  0.00  0.00    +0.125 C 
ATOM     11  C   UNL     1      -3.752  -1.398  25.066  0.00  0.00    +0.104 C 
ATOM     12  C   UNL     1      -0.477  -1.584  23.349  0.00  0.00    +0.305 C 
ENDROOT
BRANCH   4  13
ATOM     13  C   UNL     1      -4.944   0.599  25.713  0.00  0.00    +0.119 C 
BRANCH  13  15
ATOM     15  C   UNL     1      -4.868   2.094  25.594  0.00  0.00    -0.032 A 
ATOM     17  C   UNL     1      -3.629   2.722  25.472  0.00  0.00    +0.023 A 
ATOM     18  C   UNL     1      -6.037   2.853  25.605  0.00  0.00    +0.005 A 
ATOM     21  C   UNL     1      -3.559   4.111  25.361  0.00  0.00    +0.052 A 
ATOM     22  C   UNL     1      -5.968   4.242  25.494  0.00  0.00    +0.002 A 
ATOM     26  C   UNL     1      -4.729   4.871  25.372  0.00  0.00    +0.019 A 
BRANCH  21  27
ATOM      6  N   UNL     1      -1.260   5.281  25.135  0.00  0.00    -0.191 NA
ATOM     27  C   UNL     1      -2.291   4.757  25.236  0.00  0.00    +0.099 C 
ENDBRANCH  21  27
ENDBRANCH  13  15
ENDBRANCH   4  13
BRANCH   5  14
ATOM     14  C   UNL     1       1.221  -0.259  22.001  0.00  0.00    +0.144 C 
BRANCH  14  16
ATOM     16  C   UNL     1       2.590  -0.250  22.619  0.00  0.00    -0.030 A 
ATOM     19  C   UNL     1       3.051  -1.371  23.309  0.00  0.00    +0.009 A 
ATOM     20  C   UNL     1       3.401   0.879  22.501  0.00  0.00    +0.009 A 
ATOM     23  C   UNL     1       4.323  -1.364  23.882  0.00  0.00    +0.046 A 
ATOM     24  C   UNL     1       4.673   0.887  23.074  0.00  0.00    +0.046 A 
ATOM     25  C   UNL     1       5.134  -0.235  23.765  0.00  0.00    +0.120 A 
BRANCH  25   2
ATOM      2  O   UNL     1       6.375  -0.227  24.323  0.00  0.00    -0.495 OA
ATOM     28  C   UNL     1       7.487  -0.267  23.429  0.00  0.00    +0.277 C 
ENDBRANCH  25   2
ENDBRANCH  14  16
ENDBRANCH   5  14
TORSDOF 6
ENDMDL
MODEL 2
REMARK VINA RESULT:       1.5      1.716      3.382
REMARK  Name = 75368618
REMARK  7 active torsions:
REMARK  status: ('A' for Active; 'I' for Inactive)
REMARK    1  A    between atoms: O_2  and  C_25
REMARK    2  A    between atoms: O_2  and  C_28
REMARK    3  A    between atoms: N_4  and  C_13
REMARK    4  A    between atoms: N_5  and  C_14
REMARK    5  A    between atoms: C_13  and  C_15
REMARK    6  A    between atoms: C_14  and  C_16
REMARK    7  A    between atoms: C_21  and  C_27
REMARK                            x       y       z     vdW  Elec       q    Type
REMARK                         _______ _______ _______ _____ _____    ______ ____
ROOT
ATOM      1  O   UNL     1       1.533   1.591  25.115  0.00  0.00    -0.252 OA
ATOM      3  N   UNL     1      -0.353   2.731  24.302  0.00  0.00    -0.278 N 
ATOM      4  N   UNL     1      -2.797   4.123  24.338  0.00  0.00    -0.295 NA
ATOM      5  N   UNL     1       0.292   0.854  23.250  0.00  0.00    -0.279 N 
ATOM      7  C   UNL     1      -1.232   2.637  23.155  0.00  0.00    +0.109 C 
ATOM      8  C   UNL     1      -2.683   2.862  23.578  0.00  0.00    +0.109 C 
ATOM      9  C   UNL     1      -0.938   1.251  22.586  0.00  0.00    +0.133 C 
ATOM     10  C   UNL     1      -0.481   3.857  25.203  0.00  0.00    +0.125 C 
ATOM     11  C   UNL     1      -1.954   4.084  25.552  0.00  0.00    +0.104 C 
ATOM     12  C   UNL     1       0.611   1.713  24.321  0.00  0.00    +0.305 C 
ENDROOT
BRANCH   4  13
ATOM     13  C   UNL     1      -4.191   4.379  24.696  0.00  0.00    +0.119 C 
BRANCH  13  15
ATOM     15  C   UNL     1      -4.902   3.125  25.119  0.00  0.00    -0.032 A 
ATOM     17  C   UNL     1      -4.476   1.886  24.639  0.00  0.00    +0.023 A 
ATOM     18  C   UNL     1      -5.986   3.200  25.991  0.00  0.00    +0.005 A 
ATOM     21  C   UNL     1      -5.135   0.722  25.033  0.00  0.00    +0.052 A 
ATOM     22  C   UNL     1      -6.646   2.036  26.386  0.00  0.00    +0.002 A 
ATOM     26  C   UNL     1      -6.220   0.797  25.906  0.00  0.00    +0.019 A 
BRANCH  21  27
ATOM      6  N   UNL     1      -4.347  -1.579  24.145  0.00  0.00    -0.191 NA
ATOM     27  C   UNL     1      -4.700  -0.548  24.543  0.00  0.00    +0.099 C 
ENDBRANCH  21  27
ENDBRANCH  13  15
ENDBRANCH   4  13
BRANCH   5  14
ATOM     14  C   UNL     1       0.986  -0.369  22.912  0.00  0.00    +0.144 C 
BRANCH  14  16
ATOM     16  C   UNL     1       2.473  -0.232  23.070  0.00  0.00    -0.030 A 
ATOM     19  C   UNL     1       3.201  -1.236  23.709  0.00  0.00    +0.009 A 
ATOM     20  C   UNL     1       3.126   0.897  22.578  0.00  0.00    +0.009 A 
ATOM     23  C   UNL     1       4.583  -1.111  23.855  0.00  0.00    +0.046 A 
ATOM     24  C   UNL     1       4.508   1.023  22.724  0.00  0.00    +0.046 A 
ATOM     25  C   UNL     1       5.236   0.019  23.363  0.00  0.00    +0.120 A 
BRANCH  25   2
ATOM      2  O   UNL     1       6.584   0.141  23.505  0.00  0.00    -0.495 OA
ATOM     28  C   UNL     1       7.399  -0.753  22.748  0.00  0.00    +0.277 C 
ENDBRANCH  25   2
ENDBRANCH  14  16
ENDBRANCH   5  14
TORSDOF 6
ENDMDL
MODEL 3
REMARK VINA RESULT:       2.8      1.634      2.402
REMARK  Name = 75368618
REMARK  7 active torsions:
REMARK  status: ('A' for Active; 'I' for Inactive)
REMARK    1  A    between atoms: O_2  and  C_25
REMARK    2  A    between atoms: O_2  and  C_28
REMARK    3  A    between atoms: N_4  and  C_13
REMARK    4  A    between atoms: N_5  and  C_14
REMARK    5  A    between atoms: C_13  and  C_15
REMARK    6  A    between atoms: C_14  and  C_16
REMARK    7  A    between atoms: C_21  and  C_27
REMARK                            x       y       z     vdW  Elec       q    Type
REMARK                         _______ _______ _______ _____ _____    ______ ____
ROOT
ATOM      1  O   UNL     1      -1.837  -3.339  23.431  0.00  0.00    -0.252 OA
ATOM      3  N   UNL     1      -3.107  -1.782  24.648  0.00  0.00    -0.278 N 
ATOM      4  N   UNL     1      -4.904   0.324  25.146  0.00  0.00    -0.295 NA
ATOM      5  N   UNL     1      -0.962  -2.098  25.236  0.00  0.00    -0.279 N 
ATOM      7  C   UNL     1      -2.935  -0.979  25.840  0.00  0.00    +0.109 C 
ATOM      8  C   UNL     1      -3.511   0.420  25.627  0.00  0.00    +0.109 C 
ATOM      9  C   UNL     1      -1.429  -1.022  26.092  0.00  0.00    +0.133 C 
ATOM     10  C   UNL     1      -4.404  -1.828  24.005  0.00  0.00    +0.125 C 
ATOM     11  C   UNL     1      -4.969  -0.412  23.866  0.00  0.00    +0.104 C 
ATOM     12  C   UNL     1      -1.956  -2.514  24.327  0.00  0.00    +0.305 C 
ENDROOT
BRANCH   4  13
ATOM     13  C   UNL     1      -5.485   1.658  24.996  0.00  0.00    +0.119 C 
BRANCH  13  15
ATOM     15  C   UNL     1      -4.470   2.741  25.225  0.00  0.00    -0.032 A 
ATOM     17  C   UNL     1      -3.189   2.621  24.687  0.00  0.00    +0.023 A 
ATOM     18  C   UNL     1      -4.810   3.867  25.973  0.00  0.00    +0.005 A 
ATOM     21  C   UNL     1      -2.247   3.629  24.898  0.00  0.00    +0.052 A 
ATOM     22  C   UNL     1      -3.869   4.874  26.185  0.00  0.00    +0.002 A 
ATOM     26  C   UNL     1      -2.587   4.755  25.648  0.00  0.00    +0.019 A 
BRANCH  21  27
ATOM      6  N   UNL     1       0.133   3.410  23.902  0.00  0.00    -0.191 NA
ATOM     27  C   UNL     1      -0.933   3.508  24.348  0.00  0.00    +0.099 C 
ENDBRANCH  21  27
ENDBRANCH  13  15
ENDBRANCH   4  13
BRANCH   5  14
ATOM     14  C   UNL     1       0.411  -2.549  25.251  0.00  0.00    +0.144 C 
BRANCH  14  16
ATOM     16  C   UNL     1       1.299  -1.674  24.413  0.00  0.00    -0.030 A 
ATOM     19  C   UNL     1       0.754  -0.604  23.703  0.00  0.00    +0.009 A 
ATOM     20  C   UNL     1       2.668  -1.931  24.344  0.00  0.00    +0.009 A 
ATOM     23  C   UNL     1       1.578   0.210  22.925  0.00  0.00    +0.046 A 
ATOM     24  C   UNL     1       3.493  -1.118  23.566  0.00  0.00    +0.046 A 
ATOM     25  C   UNL     1       2.947  -0.047  22.857  0.00  0.00    +0.120 A 
BRANCH  25   2
ATOM      2  O   UNL     1       3.751   0.746  22.099  0.00  0.00    -0.495 OA
ATOM     28  C   UNL     1       5.028   1.082  22.643  0.00  0.00    +0.277 C 
ENDBRANCH  25   2
ENDBRANCH  14  16
ENDBRANCH   5  14
TORSDOF 6
ENDMDL
MODEL 4
REMARK VINA RESULT:       3.5      2.282      4.712
REMARK  Name = 75368618
REMARK  7 active torsions:
REMARK  status: ('A' for Active; 'I' for Inactive)
REMARK    1  A    between atoms: O_2  and  C_25
REMARK    2  A    between atoms: O_2  and  C_28
REMARK    3  A    between atoms: N_4  and  C_13
REMARK    4  A    between atoms: N_5  and  C_14
REMARK    5  A    between atoms: C_13  and  C_15
REMARK    6  A    between atoms: C_14  and  C_16
REMARK    7  A    between atoms: C_21  and  C_27
REMARK                            x       y       z     vdW  Elec       q    Type
REMARK                         _______ _______ _______ _____ _____    ______ ____
ROOT
ATOM      1  O   UNL     1      -1.162   4.546  25.653  0.00  0.00    -0.252 OA
ATOM      3  N   UNL     1      -2.746   3.170  24.596  0.00  0.00    -0.278 N 
ATOM      4  N   UNL     1      -4.843   1.316  24.316  0.00  0.00    -0.295 NA
ATOM      5  N   UNL     1      -0.655   3.209  23.777  0.00  0.00    -0.279 N 
ATOM      7  C   UNL     1      -2.809   2.357  23.400  0.00  0.00    +0.109 C 
ATOM      8  C   UNL     1      -3.534   1.043  23.689  0.00  0.00    +0.109 C 
ATOM      9  C   UNL     1      -1.347   2.205  22.987  0.00  0.00    +0.133 C 
ATOM     10  C   UNL     1      -3.949   3.381  25.374  0.00  0.00    +0.125 C 
ATOM     11  C   UNL     1      -4.674   2.050  25.588  0.00  0.00    +0.104 C 
ATOM     12  C   UNL     1      -1.482   3.747  24.783  0.00  0.00    +0.305 C 
ENDROOT
BRANCH   4  13
ATOM     13  C   UNL     1      -5.571   0.068  24.541  0.00  0.00    +0.119 C 
BRANCH  13  15
ATOM     15  C   UNL     1      -4.680  -1.133  24.411  0.00  0.00    -0.032 A 
ATOM     17  C   UNL     1      -3.373  -1.088  24.896  0.00  0.00    +0.023 A 
ATOM     18  C   UNL     1      -5.160  -2.294  23.806  0.00  0.00    +0.005 A 
ATOM     21  C   UNL     1      -2.546  -2.205  24.776  0.00  0.00    +0.052 A 
ATOM     22  C   UNL     1      -4.333  -3.411  23.686  0.00  0.00    +0.002 A 
ATOM     26  C   UNL     1      -3.026  -3.366  24.171  0.00  0.00    +0.019 A 
BRANCH  21  27
ATOM      6  N   UNL     1      -0.119  -2.125  25.676  0.00  0.00    -0.191 NA
ATOM     27  C   UNL     1      -1.206  -2.161  25.272  0.00  0.00    +0.099 C 
ENDBRANCH  21  27
ENDBRANCH  13  15
ENDBRANCH   4  13
BRANCH   5  14
ATOM     14  C   UNL     1       0.755   3.479  23.610  0.00  0.00    +0.144 C 
BRANCH  14  16
ATOM     16  C   UNL     1       1.551   2.218  23.434  0.00  0.00    -0.030 A 
ATOM     19  C   UNL     1       2.873   2.283  22.990  0.00  0.00    +0.009 A 
ATOM     20  C   UNL     1       0.971   0.981  23.714  0.00  0.00    +0.009 A 
ATOM     23  C   UNL     1       3.613   1.112  22.827  0.00  0.00    +0.046 A 
ATOM     24  C   UNL     1       1.711  -0.191  23.551  0.00  0.00    +0.046 A 
ATOM     25  C   UNL     1       3.032  -0.124  23.107  0.00  0.00    +0.120 A 
BRANCH  25   2
ATOM      2  O   UNL     1       3.754  -1.267  22.949  0.00  0.00    -0.495 OA
ATOM     28  C   UNL     1       4.834  -1.482  23.858  0.00  0.00    +0.277 C 
ENDBRANCH  25   2
ENDBRANCH  14  16
ENDBRANCH   5  14
TORSDOF 6
ENDMDL
MODEL 5
REMARK VINA RESULT:       4.2      2.822      7.373
REMARK  Name = 75368618
REMARK  7 active torsions:
REMARK  status: ('A' for Active; 'I' for Inactive)
REMARK    1  A    between atoms: O_2  and  C_25
REMARK    2  A    between atoms: O_2  and  C_28
REMARK    3  A    between atoms: N_4  and  C_13
REMARK    4  A    between atoms: N_5  and  C_14
REMARK    5  A    between atoms: C_13  and  C_15
REMARK    6  A    between atoms: C_14  and  C_16
REMARK    7  A    between atoms: C_21  and  C_27
REMARK                            x       y       z     vdW  Elec       q    Type
REMARK                         _______ _______ _______ _____ _____    ______ ____
ROOT
ATOM      1  O   UNL     1       0.729   3.361  22.944  0.00  0.00    -0.252 OA
ATOM      3  N   UNL     1       0.609   1.358  24.166  0.00  0.00    -0.278 N 
ATOM      4  N   UNL     1       0.223  -1.379  24.691  0.00  0.00    -0.295 NA
ATOM      5  N   UNL     1      -0.316   3.203  25.053  0.00  0.00    -0.279 N 
ATOM      7  C   UNL     1       0.178   0.950  25.487  0.00  0.00    +0.109 C 
ATOM      8  C   UNL     1      -0.583  -0.373  25.412  0.00  0.00    +0.109 C 
ATOM      9  C   UNL     1      -0.646   2.136  25.982  0.00  0.00    +0.133 C 
ATOM     10  C   UNL     1       1.279   0.401  23.312  0.00  0.00    +0.125 C 
ATOM     11  C   UNL     1       0.517  -0.927  23.314  0.00  0.00    +0.104 C 
ATOM     12  C   UNL     1       0.388   2.722  23.931  0.00  0.00    +0.305 C 
ENDROOT
BRANCH   4  13
ATOM     13  C   UNL     1      -0.470  -2.666  24.666  0.00  0.00    +0.119 C 
BRANCH  13  15
ATOM     15  C   UNL     1      -1.941  -2.507  24.406  0.00  0.00    -0.032 A 
ATOM     17  C   UNL     1      -2.568  -1.288  24.667  0.00  0.00    +0.023 A 
ATOM     18  C   UNL     1      -2.679  -3.577  23.904  0.00  0.00    +0.005 A 
ATOM     21  C   UNL     1      -3.934  -1.141  24.424  0.00  0.00    +0.052 A 
ATOM     22  C   UNL     1      -4.045  -3.430  23.661  0.00  0.00    +0.002 A 
ATOM     26  C   UNL     1      -4.672  -2.212  23.922  0.00  0.00    +0.019 A 
BRANCH  21  27
ATOM      6  N   UNL     1      -5.100   1.120  24.907  0.00  0.00    -0.191 NA
ATOM     27  C   UNL     1      -4.578   0.107  24.691  0.00  0.00    +0.099 C 
ENDBRANCH  21  27
ENDBRANCH  13  15
ENDBRANCH   4  13
BRANCH   5  14
ATOM     14  C   UNL     1      -0.806   4.552  25.228  0.00  0.00    +0.144 C 
BRANCH  14  16
ATOM     16  C   UNL     1      -2.301   4.595  25.356  0.00  0.00    -0.030 A 
ATOM     19  C   UNL     1      -3.097   4.669  24.212  0.00  0.00    +0.009 A 
ATOM     20  C   UNL     1      -2.895   4.559  26.617  0.00  0.00    +0.009 A 
ATOM     23  C   UNL     1      -4.486   4.709  24.329  0.00  0.00    +0.046 A 
ATOM     24  C   UNL     1      -4.285   4.598  26.735  0.00  0.00    +0.046 A 
ATOM     25  C   UNL     1      -5.080   4.673  25.591  0.00  0.00    +0.120 A 
BRANCH  25   2
ATOM      2  O   UNL     1      -6.436   4.710  25.706  0.00  0.00    -0.495 OA
ATOM     28  C   UNL     1      -7.098   3.472  25.963  0.00  0.00    +0.277 C 
ENDBRANCH  25   2
ENDBRANCH  14  16
ENDBRANCH   5  14
TORSDOF 6
ENDMDL
