MODEL 1
REMARK VINA RESULT:       5.2      0.000      0.000
REMARK  Name = 7663812
REMARK  8 active torsions:
REMARK  status: ('A' for Active; 'I' for Inactive)
REMARK    1  A    between atoms: O_5  and  C_28
REMARK    2  A    between atoms: O_5  and  C_32
REMARK    3  A    between atoms: N_9  and  C_23
REMARK    4  A    between atoms: C_10  and  C_17
REMARK    5  A    between atoms: C_15  and  C_21
REMARK    6  A    between atoms: C_22  and  C_24
REMARK    7  A    between atoms: C_23  and  C_25
REMARK    8  A    between atoms: C_23  and  C_28
REMARK                            x       y       z     vdW  Elec       q    Type
REMARK                         _______ _______ _______ _____ _____    ______ ____
ROOT
ATOM      2  O   UNL     1      -0.649   4.728  26.073  0.00  0.00    -0.275 OA
ATOM      4  O   UNL     1       0.226  -1.962  24.922  0.00  0.00    -0.270 OA
ATOM      7  N   UNL     1      -1.427   2.634  25.423  0.00  0.00    -0.287 N 
ATOM      8  N   UNL     1      -1.188  -0.199  25.514  0.00  0.00    -0.294 N 
ATOM     15  C   UNL     1      -0.096   2.019  25.530  0.00  0.00    +0.179 C 
ATOM     17  C   UNL     1      -1.555   4.009  25.645  0.00  0.00    +0.219 C 
ATOM     18  C   UNL     1      -2.511   1.774  24.911  0.00  0.00    +0.127 C 
ATOM     19  C   UNL     1      -0.127   0.607  26.115  0.00  0.00    +0.140 C 
ATOM     20  C   UNL     1      -2.518   0.411  25.591  0.00  0.00    +0.127 C 
ATOM     22  C   UNL     1      -0.893  -1.455  24.983  0.00  0.00    +0.247 C 
ENDROOT
BRANCH  22  24
ATOM      1  F   UNL     1      -5.586  -1.988  23.887  0.00  0.00    -0.205 F 
ATOM     24  C   UNL     1      -1.997  -2.249  24.430  0.00  0.00    +0.040 A 
ATOM     26  C   UNL     1      -3.293  -1.731  24.421  0.00  0.00    +0.051 A 
ATOM     27  C   UNL     1      -1.752  -3.520  23.912  0.00  0.00    +0.013 A 
ATOM     29  C   UNL     1      -4.342  -2.485  23.895  0.00  0.00    +0.124 A 
ATOM     30  C   UNL     1      -2.800  -4.274  23.385  0.00  0.00    +0.004 A 
ATOM     31  C   UNL     1      -4.096  -3.756  23.377  0.00  0.00    +0.038 A 
ENDBRANCH  22  24
BRANCH  17  10
ATOM     10  C   UNL     1      -2.891   4.619  25.338  0.00  0.00    +0.075 C 
ATOM     11  C   UNL     1      -3.899   4.241  26.426  0.00  0.00    +0.013 C 
ATOM     12  C   UNL     1      -3.365   4.169  23.955  0.00  0.00    +0.013 C 
ATOM     13  C   UNL     1      -5.297   4.764  26.106  0.00  0.00    +0.001 C 
ATOM     14  C   UNL     1      -4.765   4.691  23.641  0.00  0.00    +0.001 C 
ATOM     16  C   UNL     1      -5.765   4.310  24.727  0.00  0.00    +0.000 C 
ENDBRANCH  17  10
BRANCH  15  21
ATOM      3  O   UNL     1       0.222   2.916  23.338  0.00  0.00    -0.274 OA
ATOM      9  N   UNL     1       1.319   0.947  23.920  0.00  0.00    -0.301 N 
ATOM     21  C   UNL     1       0.491   2.032  24.148  0.00  0.00    +0.236 C 
ATOM     33  H   UNL     1       1.507   0.294  24.674  0.00  0.00    +0.150 HD
BRANCH   9  23
ATOM     23  C   UNL     1       1.988   0.714  22.661  0.00  0.00    +0.179 C 
ATOM     25  C   UNL     1       1.417  -0.518  21.976  0.00  0.00    +0.040 C 
BRANCH  23  28
ATOM      6  O   UNL     1       4.283   1.452  22.514  0.00  0.00    -0.249 OA
ATOM     28  C   UNL     1       3.493   0.572  22.837  0.00  0.00    +0.327 C 
BRANCH  28   5
ATOM      5  O   UNL     1       3.836  -0.624  23.394  0.00  0.00    -0.467 OA
ATOM     32  C   UNL     1       5.170  -0.711  23.908  0.00  0.00    +0.280 C 
ENDBRANCH  28   5
ENDBRANCH  23  28
ENDBRANCH   9  23
ENDBRANCH  15  21
TORSDOF 6
ENDMDL
MODEL 2
REMARK VINA RESULT:       6.4      2.906      5.919
REMARK  Name = 7663812
REMARK  8 active torsions:
REMARK  status: ('A' for Active; 'I' for Inactive)
REMARK    1  A    between atoms: O_5  and  C_28
REMARK    2  A    between atoms: O_5  and  C_32
REMARK    3  A    between atoms: N_9  and  C_23
REMARK    4  A    between atoms: C_10  and  C_17
REMARK    5  A    between atoms: C_15  and  C_21
REMARK    6  A    between atoms: C_22  and  C_24
REMARK    7  A    between atoms: C_23  and  C_25
REMARK    8  A    between atoms: C_23  and  C_28
REMARK                            x       y       z     vdW  Elec       q    Type
REMARK                         _______ _______ _______ _____ _____    ______ ____
ROOT
ATOM      2  O   UNL     1       1.956   3.886  27.318  0.00  0.00    -0.275 OA
ATOM      4  O   UNL     1      -2.051   1.542  22.289  0.00  0.00    -0.270 OA
ATOM      7  N   UNL     1       0.370   2.408  26.471  0.00  0.00    -0.287 N 
ATOM      8  N   UNL     1      -0.822   1.123  24.231  0.00  0.00    -0.294 N 
ATOM     15  C   UNL     1       0.279   3.119  25.188  0.00  0.00    +0.179 C 
ATOM     17  C   UNL     1       1.185   2.936  27.478  0.00  0.00    +0.219 C 
ATOM     18  C   UNL     1      -0.551   1.273  26.662  0.00  0.00    +0.127 C 
ATOM     19  C   UNL     1       0.153   2.184  23.985  0.00  0.00    +0.140 C 
ATOM     20  C   UNL     1      -0.569   0.351  25.450  0.00  0.00    +0.127 C 
ATOM     22  C   UNL     1      -1.844   0.889  23.311  0.00  0.00    +0.247 C 
ENDROOT
BRANCH  22  24
ATOM      1  F   UNL     1      -2.701  -3.800  24.198  0.00  0.00    -0.205 F 
ATOM     24  C   UNL     1      -2.774  -0.215  23.577  0.00  0.00    +0.040 A 
ATOM     26  C   UNL     1      -2.286  -1.509  23.765  0.00  0.00    +0.051 A 
ATOM     27  C   UNL     1      -4.145   0.028  23.642  0.00  0.00    +0.013 A 
ATOM     29  C   UNL     1      -3.170  -2.558  24.017  0.00  0.00    +0.124 A 
ATOM     30  C   UNL     1      -5.030  -1.020  23.896  0.00  0.00    +0.004 A 
ATOM     31  C   UNL     1      -4.541  -2.314  24.083  0.00  0.00    +0.038 A 
ENDBRANCH  22  24
BRANCH  17  10
ATOM     10  C   UNL     1       1.097   2.284  28.826  0.00  0.00    +0.075 C 
ATOM     11  C   UNL     1       0.232   3.132  29.761  0.00  0.00    +0.013 C 
ATOM     12  C   UNL     1       2.501   2.077  29.398  0.00  0.00    +0.013 C 
ATOM     13  C   UNL     1       0.191   2.554  31.173  0.00  0.00    +0.001 C 
ATOM     14  C   UNL     1       2.455   1.501  30.811  0.00  0.00    +0.001 C 
ATOM     16  C   UNL     1       1.593   2.352  31.738  0.00  0.00    +0.000 C 
ENDBRANCH  17  10
BRANCH  15  21
ATOM      3  O   UNL     1      -0.828   5.226  24.976  0.00  0.00    -0.274 OA
ATOM      9  N   UNL     1      -2.020   3.406  25.804  0.00  0.00    -0.301 N 
ATOM     21  C   UNL     1      -0.901   4.042  25.296  0.00  0.00    +0.236 C 
ATOM     33  H   UNL     1      -1.984   2.410  25.998  0.00  0.00    +0.150 HD
BRANCH   9  23
ATOM     23  C   UNL     1      -3.278   4.080  26.028  0.00  0.00    +0.179 C 
ATOM     25  C   UNL     1      -3.589   4.143  27.515  0.00  0.00    +0.040 C 
BRANCH  23  28
ATOM      6  O   UNL     1      -4.375   3.182  24.072  0.00  0.00    -0.249 OA
ATOM     28  C   UNL     1      -4.420   3.411  25.277  0.00  0.00    +0.327 C 
BRANCH  28   5
ATOM      5  O   UNL     1      -5.464   3.099  26.096  0.00  0.00    -0.467 OA
ATOM     32  C   UNL     1      -6.193   1.915  25.752  0.00  0.00    +0.280 C 
ENDBRANCH  28   5
ENDBRANCH  23  28
ENDBRANCH   9  23
ENDBRANCH  15  21
TORSDOF 6
ENDMDL
MODEL 3
REMARK VINA RESULT:       6.9      1.944      6.500
REMARK  Name = 7663812
REMARK  8 active torsions:
REMARK  status: ('A' for Active; 'I' for Inactive)
REMARK    1  A    between atoms: O_5  and  C_28
REMARK    2  A    between atoms: O_5  and  C_32
REMARK    3  A    between atoms: N_9  and  C_23
REMARK    4  A    between atoms: C_10  and  C_17
REMARK    5  A    between atoms: C_15  and  C_21
REMARK    6  A    between atoms: C_22  and  C_24
REMARK    7  A    between atoms: C_23  and  C_25
REMARK    8  A    between atoms: C_23  and  C_28
REMARK                            x       y       z     vdW  Elec       q    Type
REMARK                         _______ _______ _______ _____ _____    ______ ____
ROOT
ATOM      2  O   UNL     1       3.131   2.521  22.876  0.00  0.00    -0.275 OA
ATOM      4  O   UNL     1      -3.565   1.190  23.352  0.00  0.00    -0.270 OA
ATOM      7  N   UNL     1       1.343   1.147  23.451  0.00  0.00    -0.287 N 
ATOM      8  N   UNL     1      -1.380   0.405  23.097  0.00  0.00    -0.294 N 
ATOM     15  C   UNL     1       0.346   2.175  23.119  0.00  0.00    +0.179 C 
ATOM     17  C   UNL     1       2.701   1.471  23.361  0.00  0.00    +0.219 C 
ATOM     18  C   UNL     1       0.829  -0.108  24.029  0.00  0.00    +0.127 C 
ATOM     19  C   UNL     1      -0.897   1.612  22.429  0.00  0.00    +0.140 C 
ATOM     20  C   UNL     1      -0.364  -0.641  23.248  0.00  0.00    +0.127 C 
ATOM     22  C   UNL     1      -2.718   0.308  23.480  0.00  0.00    +0.247 C 
ENDROOT
BRANCH  22  24
ATOM      1  F   UNL     1      -5.142  -3.887  23.295  0.00  0.00    -0.205 F 
ATOM     24  C   UNL     1      -3.169  -0.940  24.108  0.00  0.00    +0.040 A 
ATOM     26  C   UNL     1      -3.957  -1.839  23.389  0.00  0.00    +0.051 A 
ATOM     27  C   UNL     1      -2.808  -1.229  25.424  0.00  0.00    +0.013 A 
ATOM     29  C   UNL     1      -4.385  -3.025  23.985  0.00  0.00    +0.124 A 
ATOM     30  C   UNL     1      -3.235  -2.415  26.021  0.00  0.00    +0.004 A 
ATOM     31  C   UNL     1      -4.024  -3.313  25.302  0.00  0.00    +0.038 A 
ENDBRANCH  22  24
BRANCH  17  10
ATOM     10  C   UNL     1       3.671   0.457  23.890  0.00  0.00    +0.075 C 
ATOM     11  C   UNL     1       5.106   0.919  23.623  0.00  0.00    +0.013 C 
ATOM     12  C   UNL     1       3.397  -0.908  23.258  0.00  0.00    +0.013 C 
ATOM     13  C   UNL     1       6.127  -0.127  24.062  0.00  0.00    +0.001 C 
ATOM     14  C   UNL     1       4.422  -1.951  23.697  0.00  0.00    +0.001 C 
ATOM     16  C   UNL     1       5.849  -1.486  23.427  0.00  0.00    +0.000 C 
ENDBRANCH  17  10
BRANCH  15  21
ATOM      3  O   UNL     1       0.812   2.974  25.322  0.00  0.00    -0.274 OA
ATOM      9  N   UNL     1      -1.309   3.314  24.425  0.00  0.00    -0.301 N 
ATOM     21  C   UNL     1      -0.001   2.864  24.407  0.00  0.00    +0.236 C 
ATOM     33  H   UNL     1      -1.886   3.209  23.596  0.00  0.00    +0.150 HD
BRANCH   9  23
ATOM     23  C   UNL     1      -1.897   3.989  25.559  0.00  0.00    +0.179 C 
ATOM     25  C   UNL     1      -1.627   3.212  26.838  0.00  0.00    +0.040 C 
BRANCH  23  28
ATOM      6  O   UNL     1      -3.859   4.846  24.442  0.00  0.00    -0.249 OA
ATOM     28  C   UNL     1      -3.392   4.205  25.378  0.00  0.00    +0.327 C 
BRANCH  28   5
ATOM      5  O   UNL     1      -4.123   3.603  26.358  0.00  0.00    -0.467 OA
ATOM     32  C   UNL     1      -5.326   2.956  25.928  0.00  0.00    +0.280 C 
ENDBRANCH  28   5
ENDBRANCH  23  28
ENDBRANCH   9  23
ENDBRANCH  15  21
TORSDOF 6
ENDMDL
MODEL 4
REMARK VINA RESULT:       7.2      3.376      6.053
REMARK  Name = 7663812
REMARK  8 active torsions:
REMARK  status: ('A' for Active; 'I' for Inactive)
REMARK    1  A    between atoms: O_5  and  C_28
REMARK    2  A    between atoms: O_5  and  C_32
REMARK    3  A    between atoms: N_9  and  C_23
REMARK    4  A    between atoms: C_10  and  C_17
REMARK    5  A    between atoms: C_15  and  C_21
REMARK    6  A    between atoms: C_22  and  C_24
REMARK    7  A    between atoms: C_23  and  C_25
REMARK    8  A    between atoms: C_23  and  C_28
REMARK                            x       y       z     vdW  Elec       q    Type
REMARK                         _______ _______ _______ _____ _____    ______ ____
ROOT
ATOM      2  O   UNL     1      -2.915   2.171  22.125  0.00  0.00    -0.275 OA
ATOM      4  O   UNL     1       2.366   1.987  26.474  0.00  0.00    -0.270 OA
ATOM      7  N   UNL     1      -2.008   2.285  24.264  0.00  0.00    -0.287 N 
ATOM      8  N   UNL     1       0.233   2.778  25.945  0.00  0.00    -0.294 N 
ATOM     15  C   UNL     1      -0.657   1.946  23.794  0.00  0.00    +0.179 C 
ATOM     17  C   UNL     1      -3.061   2.288  23.344  0.00  0.00    +0.219 C 
ATOM     18  C   UNL     1      -2.182   2.426  25.722  0.00  0.00    +0.127 C 
ATOM     19  C   UNL     1       0.446   2.736  24.500  0.00  0.00    +0.140 C 
ATOM     20  C   UNL     1      -1.086   3.282  26.341  0.00  0.00    +0.127 C 
ATOM     22  C   UNL     1       1.261   2.409  26.812  0.00  0.00    +0.247 C 
ENDROOT
BRANCH  22  24
ATOM      1  F   UNL     1       2.616   1.603  31.397  0.00  0.00    -0.205 F 
ATOM     24  C   UNL     1       1.018   2.509  28.256  0.00  0.00    +0.040 A 
ATOM     26  C   UNL     1       1.952   1.998  29.159  0.00  0.00    +0.051 A 
ATOM     27  C   UNL     1      -0.145   3.116  28.727  0.00  0.00    +0.013 A 
ATOM     29  C   UNL     1       1.720   2.094  30.531  0.00  0.00    +0.124 A 
ATOM     30  C   UNL     1      -0.377   3.213  30.099  0.00  0.00    +0.004 A 
ATOM     31  C   UNL     1       0.556   2.701  31.001  0.00  0.00    +0.038 A 
ENDBRANCH  22  24
BRANCH  17  10
ATOM     10  C   UNL     1      -4.444   2.451  23.903  0.00  0.00    +0.075 C 
ATOM     11  C   UNL     1      -4.481   3.645  24.861  0.00  0.00    +0.013 C 
ATOM     12  C   UNL     1      -4.880   1.161  24.600  0.00  0.00    +0.013 C 
ATOM     13  C   UNL     1      -5.847   3.791  25.526  0.00  0.00    +0.001 C 
ATOM     14  C   UNL     1      -6.245   1.314  25.266  0.00  0.00    +0.001 C 
ATOM     16  C   UNL     1      -6.276   2.503  26.221  0.00  0.00    +0.000 C 
ENDBRANCH  17  10
BRANCH  15  21
ATOM      3  O   UNL     1       0.470  -0.146  23.545  0.00  0.00    -0.274 OA
ATOM      9  N   UNL     1      -1.543  -0.083  24.712  0.00  0.00    -0.301 N 
ATOM     21  C   UNL     1      -0.494   0.468  23.998  0.00  0.00    +0.236 C 
ATOM     33  H   UNL     1      -2.271   0.523  25.078  0.00  0.00    +0.150 HD
BRANCH   9  23
ATOM     23  C   UNL     1      -1.635  -1.491  25.022  0.00  0.00    +0.179 C 
ATOM     25  C   UNL     1      -1.235  -2.327  23.816  0.00  0.00    +0.040 C 
BRANCH  23  28
ATOM      6  O   UNL     1      -3.554  -1.379  26.485  0.00  0.00    -0.249 OA
ATOM     28  C   UNL     1      -3.029  -1.877  25.494  0.00  0.00    +0.327 C 
BRANCH  28   5
ATOM      5  O   UNL     1      -3.606  -2.814  24.689  0.00  0.00    -0.467 OA
ATOM     32  C   UNL     1      -4.512  -2.312  23.700  0.00  0.00    +0.280 C 
ENDBRANCH  28   5
ENDBRANCH  23  28
ENDBRANCH   9  23
ENDBRANCH  15  21
TORSDOF 6
ENDMDL
