MODEL 1
REMARK VINA RESULT:      -1.7      0.000      0.000
REMARK  Name = 38028932
REMARK  9 active torsions:
REMARK  status: ('A' for Active; 'I' for Inactive)
REMARK    1  A    between atoms: N_4  and  C_16
REMARK    2  A    between atoms: C_8  and  C_12
REMARK    3  A    between atoms: C_9  and  C_16
REMARK    4  A    between atoms: C_11  and  C_15
REMARK    5  A    between atoms: C_12  and  C_17
REMARK    6  A    between atoms: C_12  and  C_18
REMARK    7  A    between atoms: C_13  and  C_19
REMARK    8  A    between atoms: C_15  and  C_20
REMARK    9  A    between atoms: C_25  and  C_27
REMARK                            x       y       z     vdW  Elec       q    Type
REMARK                         _______ _______ _______ _____ _____    ______ ____
ROOT
ATOM      8  C   UNL     1      15.157  -8.961  31.622  0.00  0.00    +0.000 C 
ATOM      9  C   UNL     1      13.866  -8.475  32.328  0.00  0.00    +0.032 C 
ATOM     10  C   UNL     1      15.730  -7.851  30.729  0.00  0.00    +0.012 C 
ATOM     11  C   UNL     1      14.729  -7.394  29.652  0.00  0.00    +0.023 C 
ATOM     13  C   UNL     1      13.350  -7.151  30.233  0.00  0.00    -0.073 C 
ATOM     14  C   UNL     1      12.987  -7.630  31.435  0.00  0.00    -0.022 C 
ATOM     19  C   UNL     1      12.413  -6.304  29.418  0.00  0.00    +0.039 C 
ENDROOT
BRANCH   8  12
ATOM     12  C   UNL     1      16.217  -9.416  32.629  0.00  0.00    -0.013 C 
ATOM     17  C   UNL     1      17.312  -8.363  32.764  0.00  0.00    +0.007 C 
ATOM     18  C   UNL     1      16.808 -10.759  32.209  0.00  0.00    +0.007 C 
ENDBRANCH   8  12
BRANCH  11  15
ATOM     15  C   UNL     1      14.667  -8.395  28.494  0.00  0.00    +0.103 C 
BRANCH  15  20
ATOM      1  O   UNL     1      16.703  -9.305  27.677  0.00  0.00    -0.276 OA
ATOM      3  N   UNL     1      16.187  -7.139  27.010  0.00  0.00    -0.298 N 
ATOM      5  N   UNL     1      16.685  -4.797  25.382  0.00  0.00    -0.312 N 
ATOM      6  N   UNL     1      17.003  -2.468  25.158  0.00  0.00    -0.240 NA
ATOM     20  C   UNL     1      15.945  -8.332  27.693  0.00  0.00    +0.216 C 
ATOM     21  C   UNL     1      15.281  -5.988  27.021  0.00  0.00    +0.126 C 
ATOM     22  C   UNL     1      17.405  -6.999  26.216  0.00  0.00    +0.126 C 
ATOM     23  C   UNL     1      15.983  -4.678  26.664  0.00  0.00    +0.125 C 
ATOM     24  C   UNL     1      17.189  -6.116  24.989  0.00  0.00    +0.125 C 
ATOM     26  C   UNL     1      16.900  -3.683  24.575  0.00  0.00    +0.121 A 
ATOM     28  C   UNL     1      16.995  -3.899  23.210  0.00  0.00    +0.043 A 
ATOM     31  C   UNL     1      17.209  -2.796  22.390  0.00  0.00    +0.005 A 
ATOM     32  C   UNL     1      17.211  -1.420  24.329  0.00  0.00    +0.113 A 
ATOM     33  C   UNL     1      17.321  -1.530  22.953  0.00  0.00    +0.020 A 
ENDBRANCH  15  20
ENDBRANCH  11  15
BRANCH   9  16
ATOM     16  C   UNL     1      13.055  -9.655  32.873  0.00  0.00    +0.112 C 
BRANCH  16   4
ATOM      2  O   UNL     1      11.160 -10.394  30.846  0.00  0.00    -0.270 OA
ATOM      4  N   UNL     1      11.657  -9.357  32.863  0.00  0.00    -0.311 N 
ATOM     25  C   UNL     1      10.804  -9.757  31.834  0.00  0.00    +0.244 C 
ATOM     36  H   UNL     1      11.272  -8.911  33.688  0.00  0.00    +0.149 HD
BRANCH  25  27
ATOM      7  N   UNL     1       6.705  -8.575  32.201  0.00  0.00    -0.263 NA
ATOM     27  C   UNL     1       9.381  -9.346  31.959  0.00  0.00    +0.040 A 
ATOM     29  C   UNL     1       9.056  -8.129  32.549  0.00  0.00    +0.033 A 
ATOM     30  C   UNL     1       8.371 -10.178  31.491  0.00  0.00    +0.033 A 
ATOM     34  C   UNL     1       7.715  -7.794  32.645  0.00  0.00    +0.111 A 
ATOM     35  C   UNL     1       7.060  -9.750  31.634  0.00  0.00    +0.111 A 
ENDBRANCH  25  27
ENDBRANCH  16   4
ENDBRANCH   9  16
TORSDOF 6
ENDMDL
