MODEL 1
REMARK VINA RESULT:      -5.8      0.000      0.000
REMARK  Name = 11912492
REMARK  5 active torsions:
REMARK  status: ('A' for Active; 'I' for Inactive)
REMARK    1  A    between atoms: O_3  and  C_13
REMARK    2  A    between atoms: O_3  and  C_22
REMARK    3  A    between atoms: N_6  and  C_12
REMARK    4  A    between atoms: N_7  and  C_16
REMARK    5  A    between atoms: C_24  and  C_27
REMARK                            x       y       z     vdW  Elec       q    Type
REMARK                         _______ _______ _______ _____ _____    ______ ____
ROOT
ATOM      1  O   UNL     1      -2.334   0.806  23.631  0.00  0.00    -0.368 OA
ATOM      2  O   UNL     1      -1.793  -1.767  25.213  0.00  0.00    -0.368 OA
ATOM     10  C   UNL     1      -2.759  -0.712  25.402  0.00  0.00    +0.173 C 
ATOM     11  C   UNL     1      -2.072   0.586  25.026  0.00  0.00    +0.192 C 
ATOM     12  C   UNL     1      -3.873  -0.843  24.390  0.00  0.00    +0.130 C 
ATOM     13  C   UNL     1      -0.618   0.271  25.280  0.00  0.00    +0.235 C 
ATOM     14  C   UNL     1      -3.277  -0.172  23.164  0.00  0.00    +0.185 C 
ATOM     15  C   UNL     1      -0.530  -1.181  24.867  0.00  0.00    +0.207 C 
ENDROOT
BRANCH  12   6
ATOM      6  N   UNL     1      -5.046  -0.121  24.836  0.00  0.00    -0.306 N 
ATOM      8  N   UNL     1      -3.892   1.920  24.923  0.00  0.00    -0.211 NA
ATOM      9  N   UNL     1      -6.226   1.791  25.509  0.00  0.00    -0.223 NA
ATOM     23  C   UNL     1      -5.055   1.238  25.097  0.00  0.00    +0.216 A 
ATOM     24  C   UNL     1      -3.937   3.243  25.187  0.00  0.00    +0.111 A 
ATOM     25  C   UNL     1      -6.200   3.118  25.755  0.00  0.00    +0.116 A 
ATOM     26  C   UNL     1      -5.073   3.903  25.609  0.00  0.00    +0.051 A 
ATOM     31  H   UNL     1      -5.930  -0.609  24.918  0.00  0.00    +0.149 HD
BRANCH  24  27
ATOM      5  O   UNL     1      -1.879   3.419  24.041  0.00  0.00    -0.461 OA
ATOM     27  C   UNL     1      -2.692   3.938  24.995  0.00  0.00    +0.153 A 
ATOM     28  C   UNL     1      -2.117   5.042  25.575  0.00  0.00    +0.051 A 
ATOM     29  C   UNL     1      -0.867   5.215  24.936  0.00  0.00    +0.042 A 
ATOM     30  C   UNL     1      -0.769   4.202  24.010  0.00  0.00    +0.196 A 
ENDBRANCH  24  27
ENDBRANCH  12   6
BRANCH  13   3
ATOM      3  O   UNL     1       0.270   1.086  24.548  0.00  0.00    -0.442 OA
BRANCH   3  22
ATOM      4  O   UNL     1       0.407  -0.266  22.697  0.00  0.00    -0.226 OA
ATOM      7  N   UNL     1       2.267   0.863  23.503  0.00  0.00    -0.278 N 
ATOM     22  C   UNL     1       0.939   0.490  23.504  0.00  0.00    +0.401 C 
ATOM     32  H   UNL     1       2.584   1.461  24.260  0.00  0.00    +0.152 HD
BRANCH   7  16
ATOM     16  C   UNL     1       3.229   0.401  22.529  0.00  0.00    +0.076 C 
ATOM     17  C   UNL     1       4.551   1.168  22.653  0.00  0.00    +0.022 C 
ATOM     18  C   UNL     1       3.452  -1.111  22.647  0.00  0.00    +0.022 C 
ATOM     19  C   UNL     1       5.333   0.784  23.910  0.00  0.00    +0.002 C 
ATOM     20  C   UNL     1       4.235  -1.491  23.902  0.00  0.00    +0.002 C 
ATOM     21  C   UNL     1       5.551  -0.723  23.999  0.00  0.00    +0.000 C 
ENDBRANCH   7  16
ENDBRANCH   3  22
ENDBRANCH  13   3
TORSDOF 5
ENDMDL
MODEL 2
REMARK VINA RESULT:      -5.5      1.224      3.700
REMARK  Name = 11912492
REMARK  5 active torsions:
REMARK  status: ('A' for Active; 'I' for Inactive)
REMARK    1  A    between atoms: O_3  and  C_13
REMARK    2  A    between atoms: O_3  and  C_22
REMARK    3  A    between atoms: N_6  and  C_12
REMARK    4  A    between atoms: N_7  and  C_16
REMARK    5  A    between atoms: C_24  and  C_27
REMARK                            x       y       z     vdW  Elec       q    Type
REMARK                         _______ _______ _______ _____ _____    ______ ____
ROOT
ATOM      1  O   UNL     1      -1.728   2.487  26.024  0.00  0.00    -0.368 OA
ATOM      2  O   UNL     1      -1.133   5.231  24.787  0.00  0.00    -0.368 OA
ATOM     10  C   UNL     1      -2.249   4.331  24.628  0.00  0.00    +0.173 C 
ATOM     11  C   UNL     1      -1.687   2.924  24.656  0.00  0.00    +0.192 C 
ATOM     12  C   UNL     1      -3.142   4.393  25.845  0.00  0.00    +0.130 C 
ATOM     13  C   UNL     1      -0.271   3.129  24.176  0.00  0.00    +0.235 C 
ATOM     14  C   UNL     1      -2.436   3.457  26.811  0.00  0.00    +0.185 C 
ATOM     15  C   UNL     1       0.082   4.467  24.785  0.00  0.00    +0.207 C 
ENDROOT
BRANCH  12   6
ATOM      6  N   UNL     1      -4.460   3.886  25.528  0.00  0.00    -0.306 N 
ATOM      8  N   UNL     1      -3.676   1.688  25.285  0.00  0.00    -0.211 NA
ATOM      9  N   UNL     1      -6.008   2.213  24.974  0.00  0.00    -0.223 NA
ATOM     23  C   UNL     1      -4.722   2.555  25.254  0.00  0.00    +0.216 A 
ATOM     24  C   UNL     1      -3.969   0.398  25.012  0.00  0.00    +0.111 A 
ATOM     25  C   UNL     1      -6.229   0.908  24.711  0.00  0.00    +0.116 A 
ATOM     26  C   UNL     1      -5.239  -0.054  24.716  0.00  0.00    +0.051 A 
ATOM     31  H   UNL     1      -5.255   4.514  25.555  0.00  0.00    +0.149 HD
BRANCH  24  27
ATOM      5  O   UNL     1      -2.919  -1.562  24.216  0.00  0.00    -0.461 OA
ATOM     27  C   UNL     1      -2.842  -0.495  25.051  0.00  0.00    +0.153 A 
ATOM     28  C   UNL     1      -1.667  -0.517  25.762  0.00  0.00    +0.051 A 
ATOM     29  C   UNL     1      -0.974  -1.676  25.338  0.00  0.00    +0.042 A 
ATOM     30  C   UNL     1      -1.777  -2.277  24.396  0.00  0.00    +0.196 A 
ENDBRANCH  24  27
ENDBRANCH  12   6
BRANCH  13   3
ATOM      3  O   UNL     1       0.615   2.110  24.585  0.00  0.00    -0.442 OA
BRANCH   3  22
ATOM      4  O   UNL     1       0.286   0.465  23.018  0.00  0.00    -0.226 OA
ATOM      7  N   UNL     1       2.397   1.336  23.423  0.00  0.00    -0.278 N 
ATOM     22  C   UNL     1       1.036   1.230  23.616  0.00  0.00    +0.401 C 
ATOM     32  H   UNL     1       2.904   1.981  24.021  0.00  0.00    +0.152 HD
BRANCH   7  16
ATOM     16  C   UNL     1       3.138   0.541  22.469  0.00  0.00    +0.076 C 
ATOM     17  C   UNL     1       4.610   0.964  22.424  0.00  0.00    +0.022 C 
ATOM     18  C   UNL     1       2.999  -0.954  22.773  0.00  0.00    +0.022 C 
ATOM     19  C   UNL     1       5.378   0.545  23.677  0.00  0.00    +0.002 C 
ATOM     20  C   UNL     1       3.770  -1.371  24.025  0.00  0.00    +0.002 C 
ATOM     21  C   UNL     1       5.234  -0.948  23.952  0.00  0.00    +0.000 C 
ENDBRANCH   7  16
ENDBRANCH   3  22
ENDBRANCH  13   3
TORSDOF 5
ENDMDL
