MODEL 1
REMARK VINA RESULT:       3.0      0.000      0.000
REMARK  Name = 51136971
REMARK  10 active torsions:
REMARK  status: ('A' for Active; 'I' for Inactive)
REMARK    1  A    between atoms: O_3  and  C_12
REMARK    2  A    between atoms: O_4  and  C_19
REMARK    3  A    between atoms: O_6  and  C_30
REMARK    4  A    between atoms: O_6  and  C_33
REMARK    5  A    between atoms: N_7  and  C_10
REMARK    6  A    between atoms: N_8  and  C_20
REMARK    7  A    between atoms: N_9  and  C_16
REMARK    8  A    between atoms: C_11  and  C_16
REMARK    9  A    between atoms: C_13  and  C_19
REMARK   10  A    between atoms: C_21  and  C_24
REMARK                            x       y       z     vdW  Elec       q    Type
REMARK                         _______ _______ _______ _____ _____    ______ ____
ROOT
ATOM      2  O   UNL     1      -5.104   4.196  24.834  0.00  0.00    -0.365 OA
ATOM     10  C   UNL     1      -2.832   4.205  25.544  0.00  0.00    +0.118 C 
ATOM     11  C   UNL     1      -3.759   4.346  24.330  0.00  0.00    +0.155 C 
ATOM     12  C   UNL     1      -3.653   3.355  26.504  0.00  0.00    +0.165 C 
ATOM     13  C   UNL     1      -5.049   3.908  26.245  0.00  0.00    +0.174 C 
ENDROOT
BRANCH  10   7
ATOM      7  N   UNL     1      -1.492   3.717  25.277  0.00  0.00    -0.292 NA
ATOM      8  N   UNL     1       0.485   2.075  24.029  0.00  0.00    -0.327 N 
ATOM     14  C   UNL     1      -1.143   3.917  23.865  0.00  0.00    +0.104 C 
ATOM     15  C   UNL     1      -1.383   2.294  25.622  0.00  0.00    +0.104 C 
ATOM     17  C   UNL     1       0.290   3.458  23.581  0.00  0.00    +0.120 C 
ATOM     18  C   UNL     1       0.041   1.782  25.398  0.00  0.00    +0.120 C 
BRANCH   8  20
ATOM     20  C   UNL     1       1.537   1.317  23.502  0.00  0.00    +0.030 A 
ATOM     22  C   UNL     1       2.798   1.889  23.342  0.00  0.00    +0.023 A 
ATOM     23  C   UNL     1       1.323  -0.012  23.137  0.00  0.00    +0.023 A 
ATOM     25  C   UNL     1       3.846   1.133  22.817  0.00  0.00    +0.002 A 
ATOM     26  C   UNL     1       2.371  -0.768  22.613  0.00  0.00    +0.002 A 
ATOM     27  C   UNL     1       3.633  -0.196  22.452  0.00  0.00    +0.000 A 
ENDBRANCH   8  20
ENDBRANCH  10   7
BRANCH  12   3
ATOM      3  O   UNL     1      -3.592   1.977  26.160  0.00  0.00    -0.388 OA
ATOM     34  H   UNL     1      -4.120   1.851  25.353  0.00  0.00    +0.210 HD
ENDBRANCH  12   3
BRANCH  11  16
ATOM     16  C   UNL     1      -3.579   3.327  23.211  0.00  0.00    +0.137 C 
BRANCH  16   9
ATOM      5  O   UNL     1      -2.106   1.098  22.159  0.00  0.00    -0.270 OA
ATOM      9  N   UNL     1      -3.565   1.992  23.727  0.00  0.00    -0.309 N 
ATOM     21  C   UNL     1      -2.818   0.966  23.151  0.00  0.00    +0.246 C 
ATOM     35  H   UNL     1      -4.121   1.795  24.554  0.00  0.00    +0.149 HD
BRANCH  21  24
ATOM      1 CL   UNL     1      -5.631  -0.012  23.970  0.00  0.00    -0.083 Cl
ATOM     24  C   UNL     1      -2.932  -0.370  23.791  0.00  0.00    +0.058 A 
ATOM     28  C   UNL     1      -1.764  -1.106  23.987  0.00  0.00    +0.060 A 
ATOM     29  C   UNL     1      -4.162  -0.891  24.193  0.00  0.00    +0.053 A 
ATOM     30  C   UNL     1      -1.825  -2.365  24.585  0.00  0.00    +0.121 A 
ATOM     31  C   UNL     1      -4.223  -2.150  24.792  0.00  0.00    +0.024 A 
ATOM     32  C   UNL     1      -3.054  -2.887  24.988  0.00  0.00    +0.047 A 
BRANCH  30   6
ATOM      6  O   UNL     1      -0.686  -3.085  24.776  0.00  0.00    -0.495 OA
ATOM     33  C   UNL     1       0.351  -2.468  25.536  0.00  0.00    +0.277 C 
ENDBRANCH  30   6
ENDBRANCH  21  24
ENDBRANCH  16   9
ENDBRANCH  11  16
BRANCH  13  19
ATOM     19  C   UNL     1      -6.196   2.983  26.611  0.00  0.00    +0.190 C 
BRANCH  19   4
ATOM      4  O   UNL     1      -6.528   2.193  25.481  0.00  0.00    -0.392 OA
ATOM     36  H   UNL     1      -7.458   1.928  25.579  0.00  0.00    +0.210 HD
ENDBRANCH  19   4
ENDBRANCH  13  19
TORSDOF 9
ENDMDL
MODEL 2
REMARK VINA RESULT:       3.2      2.247      5.235
REMARK  Name = 51136971
REMARK  10 active torsions:
REMARK  status: ('A' for Active; 'I' for Inactive)
REMARK    1  A    between atoms: O_3  and  C_12
REMARK    2  A    between atoms: O_4  and  C_19
REMARK    3  A    between atoms: O_6  and  C_30
REMARK    4  A    between atoms: O_6  and  C_33
REMARK    5  A    between atoms: N_7  and  C_10
REMARK    6  A    between atoms: N_8  and  C_20
REMARK    7  A    between atoms: N_9  and  C_16
REMARK    8  A    between atoms: C_11  and  C_16
REMARK    9  A    between atoms: C_13  and  C_19
REMARK   10  A    between atoms: C_21  and  C_24
REMARK                            x       y       z     vdW  Elec       q    Type
REMARK                         _______ _______ _______ _____ _____    ______ ____
ROOT
ATOM      2  O   UNL     1      -4.066  -1.000  25.854  0.00  0.00    -0.365 OA
ATOM     10  C   UNL     1      -2.524  -1.794  24.223  0.00  0.00    +0.118 C 
ATOM     11  C   UNL     1      -2.748  -1.577  25.725  0.00  0.00    +0.155 C 
ATOM     12  C   UNL     1      -3.429  -0.748  23.588  0.00  0.00    +0.165 C 
ATOM     13  C   UNL     1      -4.619  -0.791  24.539  0.00  0.00    +0.174 C 
ENDROOT
BRANCH  10   7
ATOM      7  N   UNL     1      -1.145  -1.777  23.770  0.00  0.00    -0.292 NA
ATOM      8  N   UNL     1       1.543  -0.821  23.633  0.00  0.00    -0.327 N 
ATOM     14  C   UNL     1      -0.229  -1.971  24.899  0.00  0.00    +0.104 C 
ATOM     15  C   UNL     1      -0.842  -0.510  23.092  0.00  0.00    +0.104 C 
ATOM     17  C   UNL     1       1.227  -2.011  24.428  0.00  0.00    +0.120 C 
ATOM     18  C   UNL     1       0.593  -0.503  22.559  0.00  0.00    +0.120 C 
BRANCH   8  20
ATOM     20  C   UNL     1       2.877  -0.431  23.466  0.00  0.00    +0.030 A 
ATOM     22  C   UNL     1       3.177   0.788  22.860  0.00  0.00    +0.023 A 
ATOM     23  C   UNL     1       3.906  -1.262  23.908  0.00  0.00    +0.023 A 
ATOM     25  C   UNL     1       4.507   1.177  22.695  0.00  0.00    +0.002 A 
ATOM     26  C   UNL     1       5.235  -0.874  23.743  0.00  0.00    +0.002 A 
ATOM     27  C   UNL     1       5.536   0.345  23.136  0.00  0.00    +0.000 A 
ENDBRANCH   8  20
ENDBRANCH  10   7
BRANCH  12   3
ATOM      3  O   UNL     1      -2.827   0.540  23.603  0.00  0.00    -0.388 OA
ATOM     34  H   UNL     1      -2.368   0.640  24.454  0.00  0.00    +0.210 HD
ENDBRANCH  12   3
BRANCH  11  16
ATOM     16  C   UNL     1      -1.774  -0.643  26.434  0.00  0.00    +0.137 C 
BRANCH  16   9
ATOM      5  O   UNL     1       0.159   1.383  25.801  0.00  0.00    -0.270 OA
ATOM      9  N   UNL     1      -2.045   0.725  26.111  0.00  0.00    -0.309 N 
ATOM     21  C   UNL     1      -1.041   1.645  25.815  0.00  0.00    +0.246 C 
ATOM     35  H   UNL     1      -3.015   1.027  26.093  0.00  0.00    +0.149 HD
BRANCH  21  24
ATOM      1 CL   UNL     1       0.836   3.452  24.156  0.00  0.00    -0.083 Cl
ATOM     24  C   UNL     1      -1.486   3.033  25.527  0.00  0.00    +0.058 A 
ATOM     28  C   UNL     1      -2.724   3.443  26.022  0.00  0.00    +0.060 A 
ATOM     29  C   UNL     1      -0.703   3.918  24.786  0.00  0.00    +0.053 A 
ATOM     30  C   UNL     1      -3.179   4.738  25.776  0.00  0.00    +0.121 A 
ATOM     31  C   UNL     1      -1.158   5.214  24.540  0.00  0.00    +0.024 A 
ATOM     32  C   UNL     1      -2.397   5.623  25.035  0.00  0.00    +0.047 A 
BRANCH  30   6
ATOM      6  O   UNL     1      -4.388   5.138  26.258  0.00  0.00    -0.495 OA
ATOM     33  C   UNL     1      -5.546   4.521  25.698  0.00  0.00    +0.277 C 
ENDBRANCH  30   6
ENDBRANCH  21  24
ENDBRANCH  16   9
ENDBRANCH  11  16
BRANCH  13  19
ATOM     19  C   UNL     1      -5.488   0.454  24.555  0.00  0.00    +0.190 C 
BRANCH  19   4
ATOM      4  O   UNL     1      -5.078   1.287  25.625  0.00  0.00    -0.392 OA
ATOM     36  H   UNL     1      -4.933   2.176  25.258  0.00  0.00    +0.210 HD
ENDBRANCH  19   4
ENDBRANCH  13  19
TORSDOF 9
ENDMDL
MODEL 3
REMARK VINA RESULT:       3.9      2.311      5.065
REMARK  Name = 51136971
REMARK  10 active torsions:
REMARK  status: ('A' for Active; 'I' for Inactive)
REMARK    1  A    between atoms: O_3  and  C_12
REMARK    2  A    between atoms: O_4  and  C_19
REMARK    3  A    between atoms: O_6  and  C_30
REMARK    4  A    between atoms: O_6  and  C_33
REMARK    5  A    between atoms: N_7  and  C_10
REMARK    6  A    between atoms: N_8  and  C_20
REMARK    7  A    between atoms: N_9  and  C_16
REMARK    8  A    between atoms: C_11  and  C_16
REMARK    9  A    between atoms: C_13  and  C_19
REMARK   10  A    between atoms: C_21  and  C_24
REMARK                            x       y       z     vdW  Elec       q    Type
REMARK                         _______ _______ _______ _____ _____    ______ ____
ROOT
ATOM      2  O   UNL     1      -4.158  -0.339  25.921  0.00  0.00    -0.365 OA
ATOM     10  C   UNL     1      -2.712  -1.273  24.276  0.00  0.00    +0.118 C 
ATOM     11  C   UNL     1      -2.885  -1.005  25.777  0.00  0.00    +0.155 C 
ATOM     12  C   UNL     1      -3.562  -0.185  23.635  0.00  0.00    +0.165 C 
ATOM     13  C   UNL     1      -4.728  -0.126  24.614  0.00  0.00    +0.174 C 
ENDROOT
BRANCH  10   7
ATOM      7  N   UNL     1      -1.347  -1.358  23.792  0.00  0.00    -0.292 NA
ATOM      8  N   UNL     1       1.416  -0.647  23.641  0.00  0.00    -0.327 N 
ATOM     14  C   UNL     1      -0.431  -1.697  24.887  0.00  0.00    +0.104 C 
ATOM     15  C   UNL     1      -0.940  -0.089  23.175  0.00  0.00    +0.104 C 
ATOM     17  C   UNL     1       1.005  -1.845  24.379  0.00  0.00    +0.120 C 
ATOM     18  C   UNL     1       0.479  -0.185  22.608  0.00  0.00    +0.120 C 
BRANCH   8  20
ATOM     20  C   UNL     1       2.777  -0.373  23.463  0.00  0.00    +0.030 A 
ATOM     22  C   UNL     1       3.176   0.818  22.859  0.00  0.00    +0.023 A 
ATOM     23  C   UNL     1       3.734  -1.292  23.892  0.00  0.00    +0.023 A 
ATOM     25  C   UNL     1       4.533   1.091  22.682  0.00  0.00    +0.002 A 
ATOM     26  C   UNL     1       5.091  -1.019  23.716  0.00  0.00    +0.002 A 
ATOM     27  C   UNL     1       5.490   0.172  23.110  0.00  0.00    +0.000 A 
ENDBRANCH   8  20
ENDBRANCH  10   7
BRANCH  12   3
ATOM      3  O   UNL     1      -2.876   1.060  23.603  0.00  0.00    -0.388 OA
ATOM     34  H   UNL     1      -2.051   0.929  23.107  0.00  0.00    +0.210 HD
ENDBRANCH  12   3
BRANCH  11  16
ATOM     16  C   UNL     1      -1.835  -0.120  26.439  0.00  0.00    +0.137 C 
BRANCH  16   9
ATOM      5  O   UNL     1       0.051   1.968  27.008  0.00  0.00    -0.270 OA
ATOM      9  N   UNL     1      -1.734   1.144  25.776  0.00  0.00    -0.309 N 
ATOM     21  C   UNL     1      -0.784   2.104  26.118  0.00  0.00    +0.246 C 
ATOM     35  H   UNL     1      -2.384   1.338  25.019  0.00  0.00    +0.149 HD
BRANCH  21  24
ATOM      1 CL   UNL     1      -2.906   4.203  26.916  0.00  0.00    -0.083 Cl
ATOM     24  C   UNL     1      -0.829   3.376  25.352  0.00  0.00    +0.058 A 
ATOM     28  C   UNL     1       0.088   3.551  24.316  0.00  0.00    +0.060 A 
ATOM     29  C   UNL     1      -1.754   4.379  25.642  0.00  0.00    +0.053 A 
ATOM     30  C   UNL     1       0.081   4.730  23.570  0.00  0.00    +0.121 A 
ATOM     31  C   UNL     1      -1.761   5.558  24.896  0.00  0.00    +0.024 A 
ATOM     32  C   UNL     1      -0.843   5.734  23.860  0.00  0.00    +0.047 A 
BRANCH  30   6
ATOM      6  O   UNL     1       0.976   4.902  22.559  0.00  0.00    -0.495 OA
ATOM     33  C   UNL     1       0.874   6.105  21.800  0.00  0.00    +0.277 C 
ENDBRANCH  30   6
ENDBRANCH  21  24
ENDBRANCH  16   9
ENDBRANCH  11  16
BRANCH  13  19
ATOM     19  C   UNL     1      -5.513   1.174  24.617  0.00  0.00    +0.190 C 
BRANCH  19   4
ATOM      4  O   UNL     1      -4.776   2.154  25.326  0.00  0.00    -0.392 OA
ATOM     36  H   UNL     1      -4.095   2.496  24.721  0.00  0.00    +0.210 HD
ENDBRANCH  19   4
ENDBRANCH  13  19
TORSDOF 9
ENDMDL
MODEL 4
REMARK VINA RESULT:       4.4      2.758      7.285
REMARK  Name = 51136971
REMARK  10 active torsions:
REMARK  status: ('A' for Active; 'I' for Inactive)
REMARK    1  A    between atoms: O_3  and  C_12
REMARK    2  A    between atoms: O_4  and  C_19
REMARK    3  A    between atoms: O_6  and  C_30
REMARK    4  A    between atoms: O_6  and  C_33
REMARK    5  A    between atoms: N_7  and  C_10
REMARK    6  A    between atoms: N_8  and  C_20
REMARK    7  A    between atoms: N_9  and  C_16
REMARK    8  A    between atoms: C_11  and  C_16
REMARK    9  A    between atoms: C_13  and  C_19
REMARK   10  A    between atoms: C_21  and  C_24
REMARK                            x       y       z     vdW  Elec       q    Type
REMARK                         _______ _______ _______ _____ _____    ______ ____
ROOT
ATOM      2  O   UNL     1       4.312   1.233  23.161  0.00  0.00    -0.365 OA
ATOM     10  C   UNL     1       2.380   0.119  22.331  0.00  0.00    +0.118 C 
ATOM     11  C   UNL     1       2.882   1.389  23.031  0.00  0.00    +0.155 C 
ATOM     12  C   UNL     1       3.432  -0.915  22.703  0.00  0.00    +0.165 C 
ATOM     13  C   UNL     1       4.694  -0.061  22.657  0.00  0.00    +0.174 C 
ENDROOT
BRANCH  10   7
ATOM      7  N   UNL     1       1.008  -0.267  22.608  0.00  0.00    -0.292 NA
ATOM      8  N   UNL     1      -1.514  -0.153  23.945  0.00  0.00    -0.327 N 
ATOM     14  C   UNL     1       0.099   0.864  22.386  0.00  0.00    +0.104 C 
ATOM     15  C   UNL     1       0.878  -0.749  23.989  0.00  0.00    +0.104 C 
ATOM     17  C   UNL     1      -1.357   0.455  22.620  0.00  0.00    +0.120 C 
ATOM     18  C   UNL     1      -0.552  -1.212  24.277  0.00  0.00    +0.120 C 
BRANCH   8  20
ATOM     20  C   UNL     1      -2.780  -0.205  24.540  0.00  0.00    +0.030 A 
ATOM     22  C   UNL     1      -2.961  -0.899  25.735  0.00  0.00    +0.023 A 
ATOM     23  C   UNL     1      -3.860   0.438  23.937  0.00  0.00    +0.023 A 
ATOM     25  C   UNL     1      -4.223  -0.951  26.328  0.00  0.00    +0.002 A 
ATOM     26  C   UNL     1      -5.122   0.387  24.529  0.00  0.00    +0.002 A 
ATOM     27  C   UNL     1      -5.304  -0.308  25.724  0.00  0.00    +0.000 A 
ENDBRANCH   8  20
ENDBRANCH  10   7
BRANCH  12   3
ATOM      3  O   UNL     1       3.224  -1.423  24.014  0.00  0.00    -0.388 OA
ATOM     34  H   UNL     1       4.064  -1.805  24.319  0.00  0.00    +0.210 HD
ENDBRANCH  12   3
BRANCH  11  16
ATOM     16  C   UNL     1       2.329   1.667  24.423  0.00  0.00    +0.137 C 
BRANCH  16   9
ATOM      5  O   UNL     1       0.633   2.380  26.628  0.00  0.00    -0.270 OA
ATOM      9  N   UNL     1       1.084   2.372  24.352  0.00  0.00    -0.309 N 
ATOM     21  C   UNL     1       0.323   2.677  25.477  0.00  0.00    +0.246 C 
ATOM     35  H   UNL     1       0.754   2.663  23.436  0.00  0.00    +0.149 HD
BRANCH  21  24
ATOM      1 CL   UNL     1       0.358   5.103  23.566  0.00  0.00    -0.083 Cl
ATOM     24  C   UNL     1      -0.958   3.389  25.231  0.00  0.00    +0.058 A 
ATOM     28  C   UNL     1      -2.103   2.924  25.876  0.00  0.00    +0.060 A 
ATOM     29  C   UNL     1      -1.035   4.495  24.383  0.00  0.00    +0.053 A 
ATOM     30  C   UNL     1      -3.327   3.563  25.674  0.00  0.00    +0.121 A 
ATOM     31  C   UNL     1      -2.258   5.134  24.181  0.00  0.00    +0.024 A 
ATOM     32  C   UNL     1      -3.404   4.668  24.827  0.00  0.00    +0.047 A 
BRANCH  30   6
ATOM      6  O   UNL     1      -4.445   3.109  26.303  0.00  0.00    -0.495 OA
ATOM     33  C   UNL     1      -5.702   3.478  25.739  0.00  0.00    +0.277 C 
ENDBRANCH  30   6
ENDBRANCH  21  24
ENDBRANCH  16   9
ENDBRANCH  11  16
BRANCH  13  19
ATOM     19  C   UNL     1       5.868  -0.586  23.464  0.00  0.00    +0.190 C 
BRANCH  19   4
ATOM      4  O   UNL     1       5.575  -0.449  24.844  0.00  0.00    -0.392 OA
ATOM     36  H   UNL     1       5.642   0.497  25.059  0.00  0.00    +0.210 HD
ENDBRANCH  19   4
ENDBRANCH  13  19
TORSDOF 9
ENDMDL
MODEL 5
REMARK VINA RESULT:       6.3      2.450      6.612
REMARK  Name = 51136971
REMARK  10 active torsions:
REMARK  status: ('A' for Active; 'I' for Inactive)
REMARK    1  A    between atoms: O_3  and  C_12
REMARK    2  A    between atoms: O_4  and  C_19
REMARK    3  A    between atoms: O_6  and  C_30
REMARK    4  A    between atoms: O_6  and  C_33
REMARK    5  A    between atoms: N_7  and  C_10
REMARK    6  A    between atoms: N_8  and  C_20
REMARK    7  A    between atoms: N_9  and  C_16
REMARK    8  A    between atoms: C_11  and  C_16
REMARK    9  A    between atoms: C_13  and  C_19
REMARK   10  A    between atoms: C_21  and  C_24
REMARK                            x       y       z     vdW  Elec       q    Type
REMARK                         _______ _______ _______ _____ _____    ______ ____
ROOT
ATOM      2  O   UNL     1       3.323  -1.011  23.128  0.00  0.00    -0.365 OA
ATOM     10  C   UNL     1       2.380   0.852  24.270  0.00  0.00    +0.118 C 
ATOM     11  C   UNL     1       2.060  -0.486  23.591  0.00  0.00    +0.155 C 
ATOM     12  C   UNL     1       3.664   1.287  23.580  0.00  0.00    +0.165 C 
ATOM     13  C   UNL     1       4.364  -0.057  23.415  0.00  0.00    +0.174 C 
ENDROOT
BRANCH  10   7
ATOM      7  N   UNL     1       1.315   1.839  24.277  0.00  0.00    -0.292 NA
ATOM      8  N   UNL     1      -1.346   2.802  24.665  0.00  0.00    -0.327 N 
ATOM     14  C   UNL     1       0.775   2.005  25.631  0.00  0.00    +0.104 C 
ATOM     15  C   UNL     1       0.243   1.446  23.355  0.00  0.00    +0.104 C 
ATOM     17  C   UNL     1      -0.310   3.084  25.664  0.00  0.00    +0.120 C 
ATOM     18  C   UNL     1      -0.859   2.507  23.311  0.00  0.00    +0.120 C 
BRANCH   8  20
ATOM     20  C   UNL     1      -2.613   3.381  24.796  0.00  0.00    +0.030 A 
ATOM     22  C   UNL     1      -3.458   3.469  23.691  0.00  0.00    +0.023 A 
ATOM     23  C   UNL     1      -3.031   3.870  26.034  0.00  0.00    +0.023 A 
ATOM     25  C   UNL     1      -4.722   4.047  23.822  0.00  0.00    +0.002 A 
ATOM     26  C   UNL     1      -4.294   4.446  26.165  0.00  0.00    +0.002 A 
ATOM     27  C   UNL     1      -5.139   4.535  25.060  0.00  0.00    +0.000 A 
ENDBRANCH   8  20
ENDBRANCH  10   7
BRANCH  12   3
ATOM      3  O   UNL     1       3.401   1.869  22.310  0.00  0.00    -0.388 OA
ATOM     34  H   UNL     1       2.611   2.428  22.400  0.00  0.00    +0.210 HD
ENDBRANCH  12   3
BRANCH  11  16
ATOM     16  C   UNL     1       1.122  -0.437  22.391  0.00  0.00    +0.137 C 
BRANCH  16   9
ATOM      5  O   UNL     1       0.178  -1.613  24.834  0.00  0.00    -0.270 OA
ATOM      9  N   UNL     1      -0.243  -0.585  22.796  0.00  0.00    -0.309 N 
ATOM     21  C   UNL     1      -0.613  -1.171  24.005  0.00  0.00    +0.246 C 
ATOM     35  H   UNL     1      -0.965  -0.239  22.172  0.00  0.00    +0.149 HD
BRANCH  21  24
ATOM      1 CL   UNL     1      -2.020  -3.838  23.335  0.00  0.00    -0.083 Cl
ATOM     24  C   UNL     1      -2.072  -1.274  24.266  0.00  0.00    +0.058 A 
ATOM     28  C   UNL     1      -2.725  -0.162  24.798  0.00  0.00    +0.060 A 
ATOM     29  C   UNL     1      -2.789  -2.440  23.993  0.00  0.00    +0.053 A 
ATOM     30  C   UNL     1      -4.094  -0.215  25.057  0.00  0.00    +0.121 A 
ATOM     31  C   UNL     1      -4.158  -2.493  24.253  0.00  0.00    +0.024 A 
ATOM     32  C   UNL     1      -4.811  -1.380  24.785  0.00  0.00    +0.047 A 
BRANCH  30   6
ATOM      6  O   UNL     1      -4.732   0.870  25.577  0.00  0.00    -0.495 OA
ATOM     33  C   UNL     1      -6.047   1.141  25.097  0.00  0.00    +0.277 C 
ENDBRANCH  30   6
ENDBRANCH  21  24
ENDBRANCH  16   9
ENDBRANCH  11  16
BRANCH  13  19
ATOM     19  C   UNL     1       5.414  -0.117  22.321  0.00  0.00    +0.190 C 
BRANCH  19   4
ATOM      4  O   UNL     1       6.693  -0.243  22.918  0.00  0.00    -0.392 OA
ATOM     36  H   UNL     1       6.683  -1.058  23.450  0.00  0.00    +0.210 HD
ENDBRANCH  19   4
ENDBRANCH  13  19
TORSDOF 9
ENDMDL
MODEL 6
REMARK VINA RESULT:       6.4      1.587      2.250
REMARK  Name = 51136971
REMARK  10 active torsions:
REMARK  status: ('A' for Active; 'I' for Inactive)
REMARK    1  A    between atoms: O_3  and  C_12
REMARK    2  A    between atoms: O_4  and  C_19
REMARK    3  A    between atoms: O_6  and  C_30
REMARK    4  A    between atoms: O_6  and  C_33
REMARK    5  A    between atoms: N_7  and  C_10
REMARK    6  A    between atoms: N_8  and  C_20
REMARK    7  A    between atoms: N_9  and  C_16
REMARK    8  A    between atoms: C_11  and  C_16
REMARK    9  A    between atoms: C_13  and  C_19
REMARK   10  A    between atoms: C_21  and  C_24
REMARK                            x       y       z     vdW  Elec       q    Type
REMARK                         _______ _______ _______ _____ _____    ______ ____
ROOT
ATOM      2  O   UNL     1      -6.216   3.443  25.234  0.00  0.00    -0.365 OA
ATOM     10  C   UNL     1      -4.151   2.952  24.157  0.00  0.00    +0.118 C 
ATOM     11  C   UNL     1      -5.413   2.335  24.772  0.00  0.00    +0.155 C 
ATOM     12  C   UNL     1      -4.030   4.281  24.887  0.00  0.00    +0.165 C 
ATOM     13  C   UNL     1      -5.498   4.672  25.005  0.00  0.00    +0.174 C 
ENDROOT
BRANCH  10   7
ATOM      7  N   UNL     1      -2.957   2.125  24.175  0.00  0.00    -0.292 NA
ATOM      8  N   UNL     1      -0.280   1.396  23.496  0.00  0.00    -0.327 N 
ATOM     14  C   UNL     1      -1.821   2.872  24.727  0.00  0.00    +0.104 C 
ATOM     15  C   UNL     1      -2.637   1.655  22.821  0.00  0.00    +0.104 C 
ATOM     17  C   UNL     1      -0.569   1.994  24.803  0.00  0.00    +0.120 C 
ATOM     18  C   UNL     1      -1.413   0.736  22.835  0.00  0.00    +0.120 C 
BRANCH   8  20
ATOM     20  C   UNL     1       1.008   0.925  23.218  0.00  0.00    +0.030 A 
ATOM     22  C   UNL     1       2.112   1.750  23.424  0.00  0.00    +0.023 A 
ATOM     23  C   UNL     1       1.187  -0.371  22.733  0.00  0.00    +0.023 A 
ATOM     25  C   UNL     1       3.397   1.281  23.145  0.00  0.00    +0.002 A 
ATOM     26  C   UNL     1       2.471  -0.840  22.456  0.00  0.00    +0.002 A 
ATOM     27  C   UNL     1       3.576  -0.014  22.661  0.00  0.00    +0.000 A 
ENDBRANCH   8  20
ENDBRANCH  10   7
BRANCH  12   3
ATOM      3  O   UNL     1      -3.454   4.117  26.177  0.00  0.00    -0.388 OA
ATOM     34  H   UNL     1      -3.708   4.887  26.713  0.00  0.00    +0.210 HD
ENDBRANCH  12   3
BRANCH  11  16
ATOM     16  C   UNL     1      -5.210   1.399  25.958  0.00  0.00    +0.137 C 
BRANCH  16   9
ATOM      5  O   UNL     1      -5.498  -0.814  24.152  0.00  0.00    -0.270 OA
ATOM      9  N   UNL     1      -4.226   0.402  25.664  0.00  0.00    -0.309 N 
ATOM     21  C   UNL     1      -4.451  -0.643  24.770  0.00  0.00    +0.246 C 
ATOM     35  H   UNL     1      -3.324   0.471  26.128  0.00  0.00    +0.149 HD
BRANCH  21  24
ATOM      1 CL   UNL     1      -4.988  -3.182  23.094  0.00  0.00    -0.083 Cl
ATOM     24  C   UNL     1      -3.338  -1.611  24.596  0.00  0.00    +0.058 A 
ATOM     28  C   UNL     1      -2.114  -1.320  25.198  0.00  0.00    +0.060 A 
ATOM     29  C   UNL     1      -3.490  -2.783  23.856  0.00  0.00    +0.053 A 
ATOM     30  C   UNL     1      -1.042  -2.202  25.060  0.00  0.00    +0.121 A 
ATOM     31  C   UNL     1      -2.418  -3.665  23.718  0.00  0.00    +0.024 A 
ATOM     32  C   UNL     1      -1.193  -3.374  24.320  0.00  0.00    +0.047 A 
BRANCH  30   6
ATOM      6  O   UNL     1       0.153  -1.918  25.647  0.00  0.00    -0.495 OA
ATOM     33  C   UNL     1       1.209  -2.858  25.457  0.00  0.00    +0.277 C 
ENDBRANCH  30   6
ENDBRANCH  21  24
ENDBRANCH  16   9
ENDBRANCH  11  16
BRANCH  13  19
ATOM     19  C   UNL     1      -5.825   5.656  26.114  0.00  0.00    +0.190 C 
BRANCH  19   4
ATOM      4  O   UNL     1      -7.058   6.289  25.817  0.00  0.00    -0.392 OA
ATOM     36  H   UNL     1      -7.352   5.955  24.952  0.00  0.00    +0.210 HD
ENDBRANCH  19   4
ENDBRANCH  13  19
TORSDOF 9
ENDMDL
MODEL 7
REMARK VINA RESULT:       6.5      2.739      7.097
REMARK  Name = 51136971
REMARK  10 active torsions:
REMARK  status: ('A' for Active; 'I' for Inactive)
REMARK    1  A    between atoms: O_3  and  C_12
REMARK    2  A    between atoms: O_4  and  C_19
REMARK    3  A    between atoms: O_6  and  C_30
REMARK    4  A    between atoms: O_6  and  C_33
REMARK    5  A    between atoms: N_7  and  C_10
REMARK    6  A    between atoms: N_8  and  C_20
REMARK    7  A    between atoms: N_9  and  C_16
REMARK    8  A    between atoms: C_11  and  C_16
REMARK    9  A    between atoms: C_13  and  C_19
REMARK   10  A    between atoms: C_21  and  C_24
REMARK                            x       y       z     vdW  Elec       q    Type
REMARK                         _______ _______ _______ _____ _____    ______ ____
ROOT
ATOM      2  O   UNL     1       4.293   1.343  22.871  0.00  0.00    -0.365 OA
ATOM     10  C   UNL     1       2.451  -0.047  22.287  0.00  0.00    +0.118 C 
ATOM     11  C   UNL     1       2.851   1.344  22.796  0.00  0.00    +0.155 C 
ATOM     12  C   UNL     1       3.616  -0.920  22.730  0.00  0.00    +0.165 C 
ATOM     13  C   UNL     1       4.783   0.036  22.514  0.00  0.00    +0.174 C 
ENDROOT
BRANCH  10   7
ATOM      7  N   UNL     1       1.137  -0.522  22.679  0.00  0.00    -0.292 NA
ATOM      8  N   UNL     1      -1.389  -0.403  24.008  0.00  0.00    -0.327 N 
ATOM     14  C   UNL     1       0.095   0.401  22.214  0.00  0.00    +0.104 C 
ATOM     15  C   UNL     1       1.058  -0.670  24.138  0.00  0.00    +0.104 C 
ATOM     17  C   UNL     1      -1.300  -0.116  22.573  0.00  0.00    +0.120 C 
ATOM     18  C   UNL     1      -0.305  -1.225  24.560  0.00  0.00    +0.120 C 
BRANCH   8  20
ATOM     20  C   UNL     1      -2.643  -0.467  24.627  0.00  0.00    +0.030 A 
ATOM     22  C   UNL     1      -3.759   0.089  24.002  0.00  0.00    +0.023 A 
ATOM     23  C   UNL     1      -2.776  -1.087  25.869  0.00  0.00    +0.023 A 
ATOM     25  C   UNL     1      -5.008   0.025  24.619  0.00  0.00    +0.002 A 
ATOM     26  C   UNL     1      -4.025  -1.151  26.486  0.00  0.00    +0.002 A 
ATOM     27  C   UNL     1      -5.141  -0.595  25.862  0.00  0.00    +0.000 A 
ENDBRANCH   8  20
ENDBRANCH  10   7
BRANCH  12   3
ATOM      3  O   UNL     1       3.510  -1.272  24.103  0.00  0.00    -0.388 OA
ATOM     34  H   UNL     1       2.767  -0.770  24.479  0.00  0.00    +0.210 HD
ENDBRANCH  12   3
BRANCH  11  16
ATOM     16  C   UNL     1       2.326   1.747  24.169  0.00  0.00    +0.137 C 
BRANCH  16   9
ATOM      5  O   UNL     1       0.656   2.542  26.364  0.00  0.00    -0.270 OA
ATOM      9  N   UNL     1       0.963   2.178  24.094  0.00  0.00    -0.309 N 
ATOM     21  C   UNL     1       0.223   2.547  25.215  0.00  0.00    +0.246 C 
ATOM     35  H   UNL     1       0.526   2.219  23.177  0.00  0.00    +0.149 HD
BRANCH  21  24
ATOM      1 CL   UNL     1      -1.482   3.402  27.645  0.00  0.00    -0.083 Cl
ATOM     24  C   UNL     1      -1.187   2.944  24.971  0.00  0.00    +0.058 A 
ATOM     28  C   UNL     1      -1.663   2.909  23.661  0.00  0.00    +0.060 A 
ATOM     29  C   UNL     1      -2.030   3.344  26.009  0.00  0.00    +0.053 A 
ATOM     30  C   UNL     1      -2.981   3.273  23.387  0.00  0.00    +0.121 A 
ATOM     31  C   UNL     1      -3.348   3.708  25.735  0.00  0.00    +0.024 A 
ATOM     32  C   UNL     1      -3.824   3.673  24.424  0.00  0.00    +0.047 A 
BRANCH  30   6
ATOM      6  O   UNL     1      -3.446   3.239  22.108  0.00  0.00    -0.495 OA
ATOM     33  C   UNL     1      -2.774   2.371  21.197  0.00  0.00    +0.277 C 
ENDBRANCH  30   6
ENDBRANCH  21  24
ENDBRANCH  16   9
ENDBRANCH  11  16
BRANCH  13  19
ATOM     19  C   UNL     1       6.034  -0.267  23.319  0.00  0.00    +0.190 C 
BRANCH  19   4
ATOM      4  O   UNL     1       5.784   0.027  24.683  0.00  0.00    -0.392 OA
ATOM     36  H   UNL     1       6.304  -0.602  25.212  0.00  0.00    +0.210 HD
ENDBRANCH  19   4
ENDBRANCH  13  19
TORSDOF 9
ENDMDL
MODEL 8
REMARK VINA RESULT:       6.7      2.258      5.222
REMARK  Name = 51136971
REMARK  10 active torsions:
REMARK  status: ('A' for Active; 'I' for Inactive)
REMARK    1  A    between atoms: O_3  and  C_12
REMARK    2  A    between atoms: O_4  and  C_19
REMARK    3  A    between atoms: O_6  and  C_30
REMARK    4  A    between atoms: O_6  and  C_33
REMARK    5  A    between atoms: N_7  and  C_10
REMARK    6  A    between atoms: N_8  and  C_20
REMARK    7  A    between atoms: N_9  and  C_16
REMARK    8  A    between atoms: C_11  and  C_16
REMARK    9  A    between atoms: C_13  and  C_19
REMARK   10  A    between atoms: C_21  and  C_24
REMARK                            x       y       z     vdW  Elec       q    Type
REMARK                         _______ _______ _______ _____ _____    ______ ____
ROOT
ATOM      2  O   UNL     1      -2.476   5.481  25.933  0.00  0.00    -0.365 OA
ATOM     10  C   UNL     1      -3.731   4.100  24.456  0.00  0.00    +0.118 C 
ATOM     11  C   UNL     1      -3.440   4.406  25.931  0.00  0.00    +0.155 C 
ATOM     12  C   UNL     1      -2.460   4.555  23.755  0.00  0.00    +0.165 C 
ATOM     13  C   UNL     1      -2.116   5.794  24.573  0.00  0.00    +0.174 C 
ENDROOT
BRANCH  10   7
ATOM      7  N   UNL     1      -4.155   2.745  24.153  0.00  0.00    -0.292 NA
ATOM      8  N   UNL     1      -4.035  -0.107  24.248  0.00  0.00    -0.327 N 
ATOM     14  C   UNL     1      -4.507   2.027  25.383  0.00  0.00    +0.104 C 
ATOM     15  C   UNL     1      -3.095   2.023  23.439  0.00  0.00    +0.104 C 
ATOM     17  C   UNL     1      -5.008   0.615  25.073  0.00  0.00    +0.120 C 
ATOM     18  C   UNL     1      -3.550   0.611  23.062  0.00  0.00    +0.120 C 
BRANCH   8  20
ATOM     20  C   UNL     1      -4.064  -1.506  24.203  0.00  0.00    +0.030 A 
ATOM     22  C   UNL     1      -4.804  -2.157  23.217  0.00  0.00    +0.023 A 
ATOM     23  C   UNL     1      -3.353  -2.249  25.145  0.00  0.00    +0.023 A 
ATOM     25  C   UNL     1      -4.834  -3.551  23.172  0.00  0.00    +0.002 A 
ATOM     26  C   UNL     1      -3.382  -3.642  25.101  0.00  0.00    +0.002 A 
ATOM     27  C   UNL     1      -4.123  -4.294  24.115  0.00  0.00    +0.000 A 
ENDBRANCH   8  20
ENDBRANCH  10   7
BRANCH  12   3
ATOM      3  O   UNL     1      -1.428   3.584  23.866  0.00  0.00    -0.388 OA
ATOM     34  H   UNL     1      -1.533   3.139  24.724  0.00  0.00    +0.210 HD
ENDBRANCH  12   3
BRANCH  11  16
ATOM     16  C   UNL     1      -2.854   3.271  26.763  0.00  0.00    +0.137 C 
BRANCH  16   9
ATOM      5  O   UNL     1      -0.045   2.710  26.948  0.00  0.00    -0.270 OA
ATOM      9  N   UNL     1      -2.108   2.365  25.943  0.00  0.00    -0.309 N 
ATOM     21  C   UNL     1      -0.740   2.152  26.103  0.00  0.00    +0.246 C 
ATOM     35  H   UNL     1      -2.608   1.854  25.221  0.00  0.00    +0.149 HD
BRANCH  21  24
ATOM      1 CL   UNL     1      -1.687  -0.787  26.155  0.00  0.00    -0.083 Cl
ATOM     24  C   UNL     1      -0.108   1.199  25.154  0.00  0.00    +0.058 A 
ATOM     28  C   UNL     1       0.877   1.684  24.295  0.00  0.00    +0.060 A 
ATOM     29  C   UNL     1      -0.473  -0.146  25.109  0.00  0.00    +0.053 A 
ATOM     30  C   UNL     1       1.498   0.824  23.389  0.00  0.00    +0.121 A 
ATOM     31  C   UNL     1       0.147  -1.007  24.203  0.00  0.00    +0.024 A 
ATOM     32  C   UNL     1       1.133  -0.522  23.342  0.00  0.00    +0.047 A 
BRANCH  30   6
ATOM      6  O   UNL     1       2.459   1.297  22.549  0.00  0.00    -0.495 OA
ATOM     33  C   UNL     1       3.792   0.839  22.765  0.00  0.00    +0.277 C 
ENDBRANCH  30   6
ENDBRANCH  21  24
ENDBRANCH  16   9
ENDBRANCH  11  16
BRANCH  13  19
ATOM     19  C   UNL     1      -0.661   6.224  24.527  0.00  0.00    +0.190 C 
BRANCH  19   4
ATOM      4  O   UNL     1       0.151   5.146  24.962  0.00  0.00    -0.392 OA
ATOM     36  H   UNL     1      -0.410   4.565  25.503  0.00  0.00    +0.210 HD
ENDBRANCH  19   4
ENDBRANCH  13  19
TORSDOF 9
ENDMDL
