MODEL 1
REMARK VINA RESULT:      25.1      0.000      0.000
REMARK  Name = 7673042
REMARK  3 active torsions:
REMARK  status: ('A' for Active; 'I' for Inactive)
REMARK    1  A    between atoms: N_4  and  C_12
REMARK    2  A    between atoms: C_21  and  C_24
REMARK    3  A    between atoms: C_23  and  C_25
REMARK                            x       y       z     vdW  Elec       q    Type
REMARK                         _______ _______ _______ _____ _____    ______ ____
ROOT
ATOM      2  O   UNL     1      -0.009  -0.658  22.244  0.00  0.00    -0.267 OA
ATOM      4  N   UNL     1      -4.002  -0.074  25.218  0.00  0.00    -0.298 NA
ATOM      5  N   UNL     1      -1.595  -1.530  23.717  0.00  0.00    -0.311 N 
ATOM      7  C   UNL     1      -4.103  -1.553  23.196  0.00  0.00    +0.024 C 
ATOM      8  C   UNL     1      -3.295  -2.469  25.318  0.00  0.00    +0.050 C 
ATOM      9  C   UNL     1      -4.125  -2.793  24.078  0.00  0.00    +0.017 C 
ATOM     10  C   UNL     1      -4.701  -0.350  23.957  0.00  0.00    +0.090 C 
ATOM     11  C   UNL     1      -3.929  -1.274  26.066  0.00  0.00    +0.094 C 
ATOM     13  C   UNL     1      -2.662  -1.300  22.733  0.00  0.00    +0.130 C 
ATOM     14  C   UNL     1      -1.860  -2.156  24.938  0.00  0.00    +0.026 A 
ATOM     19  C   UNL     1      -0.854  -2.459  25.773  0.00  0.00    +0.022 A 
ATOM     20  C   UNL     1      -0.286  -1.183  23.323  0.00  0.00    +0.260 A 
ATOM     21  C   UNL     1       0.813  -1.506  24.298  0.00  0.00    +0.053 A 
ATOM     22  C   UNL     1       0.503  -2.124  25.448  0.00  0.00    +0.016 A 
ENDROOT
BRANCH  21  24
ATOM      1  S   UNL     1       2.522   0.308  23.218  0.00  0.00    -0.088 S 
ATOM     24  C   UNL     1       2.169  -1.166  24.006  0.00  0.00    +0.026 A 
ATOM     26  C   UNL     1       3.316  -1.884  24.273  0.00  0.00    +0.024 A 
ATOM     27  C   UNL     1       4.512  -1.225  23.830  0.00  0.00    -0.010 A 
ATOM     28  C   UNL     1       4.219   0.003  23.227  0.00  0.00    +0.020 A 
ATOM     29  C   UNL     1       5.868  -1.621  23.915  0.00  0.00    +0.009 A 
ATOM     30  C   UNL     1       5.235   0.832  22.712  0.00  0.00    +0.015 A 
ATOM     31  C   UNL     1       6.878  -0.801  23.406  0.00  0.00    +0.001 A 
ATOM     32  C   UNL     1       6.563   0.412  22.812  0.00  0.00    +0.001 A 
ENDBRANCH  21  24
BRANCH   4  12
ATOM      3  O   UNL     1      -6.944   5.302  24.919  0.00  0.00    -0.276 OA
ATOM      6  N   UNL     1      -5.571   3.771  26.000  0.00  0.00    -0.302 N 
ATOM     12  C   UNL     1      -4.630   1.034  25.933  0.00  0.00    +0.060 C 
ATOM     15  C   UNL     1      -3.657   2.216  26.030  0.00  0.00    +0.038 C 
ATOM     16  C   UNL     1      -5.919   1.460  25.218  0.00  0.00    +0.038 C 
ATOM     17  C   UNL     1      -4.324   3.422  26.692  0.00  0.00    +0.109 C 
ATOM     18  C   UNL     1      -6.541   2.680  25.895  0.00  0.00    +0.109 C 
ATOM     23  C   UNL     1      -5.888   5.032  25.498  0.00  0.00    +0.212 C 
ATOM     25  C   UNL     1      -4.855   6.115  25.685  0.00  0.00    +0.109 C 
ENDBRANCH   4  12
TORSDOF 2
ENDMDL
