MODEL 1
REMARK VINA RESULT:      -5.9      0.000      0.000
REMARK  Name = 75536694
REMARK  8 active torsions:
REMARK  status: ('A' for Active; 'I' for Inactive)
REMARK    1  A    between atoms: S_1  and  N_8
REMARK    2  A    between atoms: S_1  and  C_16
REMARK    3  A    between atoms: O_4  and  C_10
REMARK    4  A    between atoms: N_7  and  C_9
REMARK    5  A    between atoms: N_7  and  C_14
REMARK    6  A    between atoms: N_8  and  C_13
REMARK    7  A    between atoms: C_11  and  C_13
REMARK    8  A    between atoms: C_14  and  C_15
REMARK                            x       y       z     vdW  Elec       q    Type
REMARK                         _______ _______ _______ _____ _____    ______ ____
ROOT
ATOM      3  O   UNL     1      -0.389   3.352  25.588  0.00  0.00    -0.371 OA
ATOM      9  C   UNL     1       0.120   1.642  24.019  0.00  0.00    +0.111 C 
ATOM     10  C   UNL     1      -1.367   1.938  23.963  0.00  0.00    +0.164 C 
ATOM     11  C   UNL     1      -1.412   3.331  24.579  0.00  0.00    +0.164 C 
ATOM     12  C   UNL     1       0.495   2.238  25.366  0.00  0.00    +0.181 C 
ENDROOT
BRANCH  10   4
ATOM      4  O   UNL     1      -1.877   1.930  22.644  0.00  0.00    -0.388 OA
ATOM     27  H   UNL     1      -2.834   1.763  22.687  0.00  0.00    +0.210 HD
ENDBRANCH  10   4
BRANCH   9   7
ATOM      7  N   UNL     1       0.436   0.227  23.919  0.00  0.00    -0.304 NA
ATOM     25  H   UNL     1      -0.434  -0.305  23.882  0.00  0.00    +0.123 HD
BRANCH   7  14
ATOM     14  C   UNL     1       1.217  -0.054  22.720  0.00  0.00    +0.124 C 
BRANCH  14  15
ATOM      2  S   UNL     1       3.491  -1.317  23.706  0.00  0.00    -0.100 S 
ATOM     15  C   UNL     1       2.697   0.019  22.986  0.00  0.00    +0.004 A 
ATOM     17  C   UNL     1       3.565   1.056  22.725  0.00  0.00    +0.012 A 
ATOM     20  C   UNL     1       4.899   0.751  23.122  0.00  0.00    +0.008 A 
ATOM     21  C   UNL     1       4.999  -0.508  23.670  0.00  0.00    +0.045 A 
ENDBRANCH  14  15
ENDBRANCH   7  14
ENDBRANCH   9   7
BRANCH  11  13
ATOM     13  C   UNL     1      -2.754   3.669  25.203  0.00  0.00    +0.140 C 
BRANCH  13   8
ATOM      8  N   UNL     1      -3.364   2.446  25.762  0.00  0.00    -0.187 NA
ATOM     26  H   UNL     1      -2.738   1.852  26.318  0.00  0.00    +0.148 HD
BRANCH   8   1
ATOM      1  S   UNL     1      -4.689   1.721  24.980  0.00  0.00    +0.058 S 
ATOM      5  O   UNL     1      -4.775   2.218  23.620  0.00  0.00    -0.153 OA
ATOM      6  O   UNL     1      -5.845   1.784  25.854  0.00  0.00    -0.153 OA
BRANCH   1  16
ATOM     16  C   UNL     1      -4.187   0.028  24.911  0.00  0.00    +0.105 A 
ATOM     18  C   UNL     1      -3.401  -0.509  25.930  0.00  0.00    +0.028 A 
ATOM     19  C   UNL     1      -4.572  -0.770  23.833  0.00  0.00    +0.028 A 
ATOM     22  C   UNL     1      -3.001  -1.844  25.873  0.00  0.00    +0.002 A 
ATOM     23  C   UNL     1      -4.173  -2.105  23.776  0.00  0.00    +0.002 A 
ATOM     24  C   UNL     1      -3.387  -2.642  24.796  0.00  0.00    +0.000 A 
ENDBRANCH   1  16
ENDBRANCH   8   1
ENDBRANCH  13   8
ENDBRANCH  11  13
TORSDOF 8
ENDMDL
MODEL 2
REMARK VINA RESULT:      -5.0      1.663      3.865
REMARK  Name = 75536694
REMARK  8 active torsions:
REMARK  status: ('A' for Active; 'I' for Inactive)
REMARK    1  A    between atoms: S_1  and  N_8
REMARK    2  A    between atoms: S_1  and  C_16
REMARK    3  A    between atoms: O_4  and  C_10
REMARK    4  A    between atoms: N_7  and  C_9
REMARK    5  A    between atoms: N_7  and  C_14
REMARK    6  A    between atoms: N_8  and  C_13
REMARK    7  A    between atoms: C_11  and  C_13
REMARK    8  A    between atoms: C_14  and  C_15
REMARK                            x       y       z     vdW  Elec       q    Type
REMARK                         _______ _______ _______ _____ _____    ______ ____
ROOT
ATOM      3  O   UNL     1      -1.716  -2.170  24.087  0.00  0.00    -0.371 OA
ATOM      9  C   UNL     1       0.094  -0.643  24.273  0.00  0.00    +0.111 C 
ATOM     10  C   UNL     1      -1.082  -0.117  25.075  0.00  0.00    +0.164 C 
ATOM     11  C   UNL     1      -1.888  -1.392  25.283  0.00  0.00    +0.164 C 
ATOM     12  C   UNL     1      -0.591  -1.646  23.359  0.00  0.00    +0.181 C 
ENDROOT
BRANCH  10   4
ATOM      4  O   UNL     1      -0.688   0.463  26.305  0.00  0.00    -0.388 OA
ATOM     27  H   UNL     1      -0.404  -0.250  26.902  0.00  0.00    +0.210 HD
ENDBRANCH  10   4
BRANCH   9   7
ATOM      7  N   UNL     1       0.809   0.391  23.542  0.00  0.00    -0.304 NA
ATOM     25  H   UNL     1       1.348   0.951  24.203  0.00  0.00    +0.123 HD
BRANCH   7  14
ATOM     14  C   UNL     1       1.718  -0.193  22.562  0.00  0.00    +0.124 C 
BRANCH  14  15
ATOM      2  S   UNL     1       3.880  -1.448  23.782  0.00  0.00    -0.100 S 
ATOM     15  C   UNL     1       3.154  -0.105  23.007  0.00  0.00    +0.004 A 
ATOM     17  C   UNL     1       4.027   0.953  22.882  0.00  0.00    +0.012 A 
ATOM     20  C   UNL     1       5.308   0.657  23.429  0.00  0.00    +0.008 A 
ATOM     21  C   UNL     1       5.366  -0.616  23.952  0.00  0.00    +0.045 A 
ENDBRANCH  14  15
ENDBRANCH   7  14
ENDBRANCH   9   7
BRANCH  11  13
ATOM     13  C   UNL     1      -3.366  -1.136  25.520  0.00  0.00    +0.140 C 
BRANCH  13   8
ATOM      8  N   UNL     1      -3.588   0.304  25.758  0.00  0.00    -0.187 NA
ATOM     26  H   UNL     1      -3.885   0.557  26.709  0.00  0.00    +0.148 HD
BRANCH   8   1
ATOM      1  S   UNL     1      -4.036   1.321  24.471  0.00  0.00    +0.058 S 
ATOM      5  O   UNL     1      -5.410   1.750  24.653  0.00  0.00    -0.153 OA
ATOM      6  O   UNL     1      -3.622   0.711  23.221  0.00  0.00    -0.153 OA
BRANCH   1  16
ATOM     16  C   UNL     1      -2.989   2.721  24.733  0.00  0.00    +0.105 A 
ATOM     18  C   UNL     1      -1.779   2.824  24.048  0.00  0.00    +0.028 A 
ATOM     19  C   UNL     1      -3.370   3.719  25.630  0.00  0.00    +0.028 A 
ATOM     22  C   UNL     1      -0.950   3.927  24.257  0.00  0.00    +0.002 A 
ATOM     23  C   UNL     1      -2.542   4.822  25.840  0.00  0.00    +0.002 A 
ATOM     24  C   UNL     1      -1.332   4.925  25.153  0.00  0.00    +0.000 A 
ENDBRANCH   1  16
ENDBRANCH   8   1
ENDBRANCH  13   8
ENDBRANCH  11  13
TORSDOF 8
ENDMDL
MODEL 3
REMARK VINA RESULT:      -4.3      2.412      5.595
REMARK  Name = 75536694
REMARK  8 active torsions:
REMARK  status: ('A' for Active; 'I' for Inactive)
REMARK    1  A    between atoms: S_1  and  N_8
REMARK    2  A    between atoms: S_1  and  C_16
REMARK    3  A    between atoms: O_4  and  C_10
REMARK    4  A    between atoms: N_7  and  C_9
REMARK    5  A    between atoms: N_7  and  C_14
REMARK    6  A    between atoms: N_8  and  C_13
REMARK    7  A    between atoms: C_11  and  C_13
REMARK    8  A    between atoms: C_14  and  C_15
REMARK                            x       y       z     vdW  Elec       q    Type
REMARK                         _______ _______ _______ _____ _____    ______ ____
ROOT
ATOM      3  O   UNL     1      -2.493   3.350  23.457  0.00  0.00    -0.371 OA
ATOM      9  C   UNL     1      -4.631   2.560  24.126  0.00  0.00    +0.111 C 
ATOM     10  C   UNL     1      -4.043   3.403  25.242  0.00  0.00    +0.164 C 
ATOM     11  C   UNL     1      -3.007   4.219  24.480  0.00  0.00    +0.164 C 
ATOM     12  C   UNL     1      -3.390   2.235  23.310  0.00  0.00    +0.181 C 
ENDROOT
BRANCH  10   4
ATOM      4  O   UNL     1      -5.006   4.229  25.869  0.00  0.00    -0.388 OA
ATOM     27  H   UNL     1      -4.566   4.728  26.578  0.00  0.00    +0.210 HD
ENDBRANCH  10   4
BRANCH   9   7
ATOM      7  N   UNL     1      -5.325   1.373  24.597  0.00  0.00    -0.304 NA
ATOM     25  H   UNL     1      -5.494   0.753  23.804  0.00  0.00    +0.123 HD
BRANCH   7  14
ATOM     14  C   UNL     1      -4.533   0.663  25.595  0.00  0.00    +0.124 C 
BRANCH  14  15
ATOM      2  S   UNL     1      -3.201  -1.716  26.145  0.00  0.00    -0.100 S 
ATOM     15  C   UNL     1      -4.128  -0.706  25.118  0.00  0.00    +0.004 A 
ATOM     17  C   UNL     1      -4.401  -1.310  23.911  0.00  0.00    +0.012 A 
ATOM     20  C   UNL     1      -3.843  -2.618  23.828  0.00  0.00    +0.008 A 
ATOM     21  C   UNL     1      -3.165  -2.964  24.975  0.00  0.00    +0.045 A 
ENDBRANCH  14  15
ENDBRANCH   7  14
ENDBRANCH   9   7
BRANCH  11  13
ATOM     13  C   UNL     1      -1.868   4.712  25.354  0.00  0.00    +0.140 C 
BRANCH  13   8
ATOM      8  N   UNL     1      -0.650   3.928  25.072  0.00  0.00    -0.187 NA
ATOM     26  H   UNL     1      -0.324   3.948  24.098  0.00  0.00    +0.148 HD
BRANCH   8   1
ATOM      1  S   UNL     1      -0.270   2.573  26.027  0.00  0.00    +0.058 S 
ATOM      5  O   UNL     1      -1.457   2.137  26.737  0.00  0.00    -0.153 OA
ATOM      6  O   UNL     1       0.958   2.837  26.752  0.00  0.00    -0.153 OA
BRANCH   1  16
ATOM     16  C   UNL     1       0.108   1.358  24.799  0.00  0.00    +0.105 A 
ATOM     18  C   UNL     1      -0.620   0.171  24.746  0.00  0.00    +0.028 A 
ATOM     19  C   UNL     1       1.140   1.586  23.888  0.00  0.00    +0.028 A 
ATOM     22  C   UNL     1      -0.320  -0.790  23.780  0.00  0.00    +0.002 A 
ATOM     23  C   UNL     1       1.441   0.625  22.922  0.00  0.00    +0.002 A 
ATOM     24  C   UNL     1       0.711  -0.563  22.868  0.00  0.00    +0.000 A 
ENDBRANCH   1  16
ENDBRANCH   8   1
ENDBRANCH  13   8
ENDBRANCH  11  13
TORSDOF 8
ENDMDL
MODEL 4
REMARK VINA RESULT:      -4.2      2.512      5.770
REMARK  Name = 75536694
REMARK  8 active torsions:
REMARK  status: ('A' for Active; 'I' for Inactive)
REMARK    1  A    between atoms: S_1  and  N_8
REMARK    2  A    between atoms: S_1  and  C_16
REMARK    3  A    between atoms: O_4  and  C_10
REMARK    4  A    between atoms: N_7  and  C_9
REMARK    5  A    between atoms: N_7  and  C_14
REMARK    6  A    between atoms: N_8  and  C_13
REMARK    7  A    between atoms: C_11  and  C_13
REMARK    8  A    between atoms: C_14  and  C_15
REMARK                            x       y       z     vdW  Elec       q    Type
REMARK                         _______ _______ _______ _____ _____    ______ ____
ROOT
ATOM      3  O   UNL     1      -0.176   3.014  23.434  0.00  0.00    -0.371 OA
ATOM      9  C   UNL     1      -0.877   3.746  25.583  0.00  0.00    +0.111 C 
ATOM     10  C   UNL     1      -0.199   2.395  25.716  0.00  0.00    +0.164 C 
ATOM     11  C   UNL     1       0.615   2.347  24.431  0.00  0.00    +0.164 C 
ATOM     12  C   UNL     1      -1.203   3.773  24.098  0.00  0.00    +0.181 C 
ENDROOT
BRANCH  10   4
ATOM      4  O   UNL     1       0.624   2.308  26.864  0.00  0.00    -0.388 OA
ATOM     27  H   UNL     1       0.435   3.072  27.434  0.00  0.00    +0.210 HD
ENDBRANCH  10   4
BRANCH   9   7
ATOM      7  N   UNL     1      -2.054   3.893  26.423  0.00  0.00    -0.304 NA
ATOM     25  H   UNL     1      -1.830   4.513  27.202  0.00  0.00    +0.123 HD
BRANCH   7  14
ATOM     14  C   UNL     1      -3.168   4.460  25.671  0.00  0.00    +0.124 C 
BRANCH  14  15
ATOM      2  S   UNL     1      -4.485   2.623  24.049  0.00  0.00    -0.100 S 
ATOM     15  C   UNL     1      -4.299   3.478  25.521  0.00  0.00    +0.004 A 
ATOM     17  C   UNL     1      -5.269   3.141  26.439  0.00  0.00    +0.012 A 
ATOM     20  C   UNL     1      -6.176   2.169  25.928  0.00  0.00    +0.008 A 
ATOM     21  C   UNL     1      -5.864   1.799  24.638  0.00  0.00    +0.045 A 
ENDBRANCH  14  15
ENDBRANCH   7  14
ENDBRANCH   9   7
BRANCH  11  13
ATOM     13  C   UNL     1       0.932   0.934  23.973  0.00  0.00    +0.140 C 
BRANCH  13   8
ATOM      8  N   UNL     1      -0.312   0.141  23.914  0.00  0.00    -0.187 NA
ATOM     26  H   UNL     1      -1.083   0.562  23.383  0.00  0.00    +0.148 HD
BRANCH   8   1
ATOM      1  S   UNL     1      -0.688  -0.946  25.167  0.00  0.00    +0.058 S 
ATOM      5  O   UNL     1      -0.910  -0.206  26.395  0.00  0.00    -0.153 OA
ATOM      6  O   UNL     1       0.259  -2.044  25.139  0.00  0.00    -0.153 OA
BRANCH   1  16
ATOM     16  C   UNL     1      -2.244  -1.592  24.631  0.00  0.00    +0.105 A 
ATOM     18  C   UNL     1      -2.435  -2.971  24.550  0.00  0.00    +0.028 A 
ATOM     19  C   UNL     1      -3.278  -0.723  24.284  0.00  0.00    +0.028 A 
ATOM     22  C   UNL     1      -3.661  -3.482  24.123  0.00  0.00    +0.002 A 
ATOM     23  C   UNL     1      -4.504  -1.233  23.858  0.00  0.00    +0.002 A 
ATOM     24  C   UNL     1      -4.695  -2.612  23.777  0.00  0.00    +0.000 A 
ENDBRANCH   1  16
ENDBRANCH   8   1
ENDBRANCH  13   8
ENDBRANCH  11  13
TORSDOF 8
ENDMDL
MODEL 5
REMARK VINA RESULT:      -3.7      1.273      2.026
REMARK  Name = 75536694
REMARK  8 active torsions:
REMARK  status: ('A' for Active; 'I' for Inactive)
REMARK    1  A    between atoms: S_1  and  N_8
REMARK    2  A    between atoms: S_1  and  C_16
REMARK    3  A    between atoms: O_4  and  C_10
REMARK    4  A    between atoms: N_7  and  C_9
REMARK    5  A    between atoms: N_7  and  C_14
REMARK    6  A    between atoms: N_8  and  C_13
REMARK    7  A    between atoms: C_11  and  C_13
REMARK    8  A    between atoms: C_14  and  C_15
REMARK                            x       y       z     vdW  Elec       q    Type
REMARK                         _______ _______ _______ _____ _____    ______ ____
ROOT
ATOM      3  O   UNL     1      -2.274   1.991  22.971  0.00  0.00    -0.371 OA
ATOM      9  C   UNL     1      -0.245   0.954  23.643  0.00  0.00    +0.111 C 
ATOM     10  C   UNL     1      -0.850   1.677  24.833  0.00  0.00    +0.164 C 
ATOM     11  C   UNL     1      -2.303   1.798  24.395  0.00  0.00    +0.164 C 
ATOM     12  C   UNL     1      -0.971   1.621  22.486  0.00  0.00    +0.181 C 
ENDROOT
BRANCH  10   4
ATOM      4  O   UNL     1      -0.722   0.946  26.038  0.00  0.00    -0.388 OA
ATOM     27  H   UNL     1      -0.779  -0.001  25.829  0.00  0.00    +0.210 HD
ENDBRANCH  10   4
BRANCH   9   7
ATOM      7  N   UNL     1       1.200   1.084  23.555  0.00  0.00    -0.304 NA
ATOM     25  H   UNL     1       1.588   1.109  24.498  0.00  0.00    +0.123 HD
BRANCH   7  14
ATOM     14  C   UNL     1       1.784  -0.038  22.829  0.00  0.00    +0.124 C 
BRANCH  14  15
ATOM      2  S   UNL     1       4.358   1.015  22.751  0.00  0.00    -0.100 S 
ATOM     15  C   UNL     1       3.242  -0.219  23.158  0.00  0.00    +0.004 A 
ATOM     17  C   UNL     1       3.856  -1.288  23.771  0.00  0.00    +0.012 A 
ATOM     20  C   UNL     1       5.261  -1.092  23.909  0.00  0.00    +0.008 A 
ATOM     21  C   UNL     1       5.666   0.120  23.396  0.00  0.00    +0.045 A 
ENDBRANCH  14  15
ENDBRANCH   7  14
ENDBRANCH   9   7
BRANCH  11  13
ATOM     13  C   UNL     1      -3.035   2.953  25.055  0.00  0.00    +0.140 C 
BRANCH  13   8
ATOM      8  N   UNL     1      -4.444   2.963  24.615  0.00  0.00    -0.187 NA
ATOM     26  H   UNL     1      -4.785   3.853  24.231  0.00  0.00    +0.148 HD
BRANCH   8   1
ATOM      1  S   UNL     1      -5.568   1.908  25.335  0.00  0.00    +0.058 S 
ATOM      5  O   UNL     1      -6.772   1.865  24.528  0.00  0.00    -0.153 OA
ATOM      6  O   UNL     1      -5.650   2.202  26.753  0.00  0.00    -0.153 OA
BRANCH   1  16
ATOM     16  C   UNL     1      -4.751   0.348  25.179  0.00  0.00    +0.105 A 
ATOM     18  C   UNL     1      -4.832  -0.365  23.984  0.00  0.00    +0.028 A 
ATOM     19  C   UNL     1      -4.032  -0.173  26.255  0.00  0.00    +0.028 A 
ATOM     22  C   UNL     1      -4.191  -1.598  23.862  0.00  0.00    +0.002 A 
ATOM     23  C   UNL     1      -3.391  -1.406  26.134  0.00  0.00    +0.002 A 
ATOM     24  C   UNL     1      -3.471  -2.119  24.937  0.00  0.00    +0.000 A 
ENDBRANCH   1  16
ENDBRANCH   8   1
ENDBRANCH  13   8
ENDBRANCH  11  13
TORSDOF 8
ENDMDL
MODEL 6
REMARK VINA RESULT:      -3.6      2.215      3.495
REMARK  Name = 75536694
REMARK  8 active torsions:
REMARK  status: ('A' for Active; 'I' for Inactive)
REMARK    1  A    between atoms: S_1  and  N_8
REMARK    2  A    between atoms: S_1  and  C_16
REMARK    3  A    between atoms: O_4  and  C_10
REMARK    4  A    between atoms: N_7  and  C_9
REMARK    5  A    between atoms: N_7  and  C_14
REMARK    6  A    between atoms: N_8  and  C_13
REMARK    7  A    between atoms: C_11  and  C_13
REMARK    8  A    between atoms: C_14  and  C_15
REMARK                            x       y       z     vdW  Elec       q    Type
REMARK                         _______ _______ _______ _____ _____    ______ ____
ROOT
ATOM      3  O   UNL     1      -0.951  -1.716  24.930  0.00  0.00    -0.371 OA
ATOM      9  C   UNL     1       0.581  -0.190  23.946  0.00  0.00    +0.111 C 
ATOM     10  C   UNL     1      -0.424   0.585  24.778  0.00  0.00    +0.164 C 
ATOM     11  C   UNL     1      -0.940  -0.507  25.707  0.00  0.00    +0.164 C 
ATOM     12  C   UNL     1      -0.143  -1.514  23.757  0.00  0.00    +0.181 C 
ENDROOT
BRANCH  10   4
ATOM      4  O   UNL     1       0.167   1.651  25.496  0.00  0.00    -0.388 OA
ATOM     27  H   UNL     1       0.227   2.421  24.906  0.00  0.00    +0.210 HD
ENDBRANCH  10   4
BRANCH   9   7
ATOM      7  N   UNL     1       0.916   0.455  22.688  0.00  0.00    -0.304 NA
ATOM     25  H   UNL     1       1.243   1.403  22.878  0.00  0.00    +0.123 HD
BRANCH   7  14
ATOM     14  C   UNL     1       1.963  -0.277  21.985  0.00  0.00    +0.124 C 
BRANCH  14  15
ATOM      2  S   UNL     1       4.248   1.148  22.683  0.00  0.00    -0.100 S 
ATOM     15  C   UNL     1       3.266  -0.254  22.739  0.00  0.00    +0.004 A 
ATOM     17  C   UNL     1       3.826  -1.246  23.514  0.00  0.00    +0.012 A 
ATOM     20  C   UNL     1       5.077  -0.850  24.068  0.00  0.00    +0.008 A 
ATOM     21  C   UNL     1       5.425   0.430  23.697  0.00  0.00    +0.045 A 
ENDBRANCH  14  15
ENDBRANCH   7  14
ENDBRANCH   9   7
BRANCH  11  13
ATOM     13  C   UNL     1      -2.333  -0.229  26.245  0.00  0.00    +0.140 C 
BRANCH  13   8
ATOM      8  N   UNL     1      -3.312  -1.091  25.554  0.00  0.00    -0.187 NA
ATOM     26  H   UNL     1      -3.143  -2.102  25.625  0.00  0.00    +0.148 HD
BRANCH   8   1
ATOM      1  S   UNL     1      -4.157  -0.504  24.200  0.00  0.00    +0.058 S 
ATOM      5  O   UNL     1      -5.439  -1.176  24.105  0.00  0.00    -0.153 OA
ATOM      6  O   UNL     1      -3.262  -0.476  23.059  0.00  0.00    -0.153 OA
BRANCH   1  16
ATOM     16  C   UNL     1      -4.456   1.177  24.661  0.00  0.00    +0.105 A 
ATOM     18  C   UNL     1      -5.496   1.485  25.537  0.00  0.00    +0.028 A 
ATOM     19  C   UNL     1      -3.655   2.195  24.143  0.00  0.00    +0.028 A 
ATOM     22  C   UNL     1      -5.735   2.811  25.897  0.00  0.00    +0.002 A 
ATOM     23  C   UNL     1      -3.893   3.521  24.503  0.00  0.00    +0.002 A 
ATOM     24  C   UNL     1      -4.934   3.829  25.380  0.00  0.00    +0.000 A 
ENDBRANCH   1  16
ENDBRANCH   8   1
ENDBRANCH  13   8
ENDBRANCH  11  13
TORSDOF 8
ENDMDL
MODEL 7
REMARK VINA RESULT:      -3.5      2.985      6.614
REMARK  Name = 75536694
REMARK  8 active torsions:
REMARK  status: ('A' for Active; 'I' for Inactive)
REMARK    1  A    between atoms: S_1  and  N_8
REMARK    2  A    between atoms: S_1  and  C_16
REMARK    3  A    between atoms: O_4  and  C_10
REMARK    4  A    between atoms: N_7  and  C_9
REMARK    5  A    between atoms: N_7  and  C_14
REMARK    6  A    between atoms: N_8  and  C_13
REMARK    7  A    between atoms: C_11  and  C_13
REMARK    8  A    between atoms: C_14  and  C_15
REMARK                            x       y       z     vdW  Elec       q    Type
REMARK                         _______ _______ _______ _____ _____    ______ ____
ROOT
ATOM      3  O   UNL     1      -1.553  -1.070  26.408  0.00  0.00    -0.371 OA
ATOM      9  C   UNL     1      -3.579  -1.538  25.259  0.00  0.00    +0.111 C 
ATOM     10  C   UNL     1      -2.410  -1.805  24.330  0.00  0.00    +0.164 C 
ATOM     11  C   UNL     1      -1.274  -1.978  25.329  0.00  0.00    +0.164 C 
ATOM     12  C   UNL     1      -2.929  -0.658  26.315  0.00  0.00    +0.181 C 
ENDROOT
BRANCH  10   4
ATOM      4  O   UNL     1      -2.595  -2.963  23.538  0.00  0.00    -0.388 OA
ATOM     27  H   UNL     1      -1.762  -3.464  23.529  0.00  0.00    +0.210 HD
ENDBRANCH  10   4
BRANCH   9   7
ATOM      7  N   UNL     1      -4.708  -0.896  24.606  0.00  0.00    -0.304 NA
ATOM     25  H   UNL     1      -5.320  -0.497  25.318  0.00  0.00    +0.123 HD
BRANCH   7  14
ATOM     14  C   UNL     1      -4.262   0.167  23.712  0.00  0.00    +0.124 C 
BRANCH  14  15
ATOM      2  S   UNL     1      -5.717   1.691  25.529  0.00  0.00    -0.100 S 
ATOM     15  C   UNL     1      -4.565   1.532  24.271  0.00  0.00    +0.004 A 
ATOM     17  C   UNL     1      -4.029   2.746  23.904  0.00  0.00    +0.012 A 
ATOM     20  C   UNL     1      -4.571   3.822  24.666  0.00  0.00    +0.008 A 
ATOM     21  C   UNL     1      -5.499   3.388  25.585  0.00  0.00    +0.045 A 
ENDBRANCH  14  15
ENDBRANCH   7  14
ENDBRANCH   9   7
BRANCH  11  13
ATOM     13  C   UNL     1       0.093  -1.673  24.743  0.00  0.00    +0.140 C 
BRANCH  13   8
ATOM      8  N   UNL     1       0.453  -0.270  25.026  0.00  0.00    -0.187 NA
ATOM     26  H   UNL     1       0.213   0.070  25.965  0.00  0.00    +0.148 HD
BRANCH   8   1
ATOM      1  S   UNL     1       0.549   0.857  23.756  0.00  0.00    +0.058 S 
ATOM      5  O   UNL     1      -0.290   0.417  22.658  0.00  0.00    -0.153 OA
ATOM      6  O   UNL     1       1.943   1.187  23.522  0.00  0.00    -0.153 OA
BRANCH   1  16
ATOM     16  C   UNL     1      -0.203   2.284  24.478  0.00  0.00    +0.105 A 
ATOM     18  C   UNL     1      -0.171   3.505  23.806  0.00  0.00    +0.028 A 
ATOM     19  C   UNL     1      -0.825   2.189  25.724  0.00  0.00    +0.028 A 
ATOM     22  C   UNL     1      -0.761   4.632  24.378  0.00  0.00    +0.002 A 
ATOM     23  C   UNL     1      -1.415   3.316  26.296  0.00  0.00    +0.002 A 
ATOM     24  C   UNL     1      -1.383   4.538  25.623  0.00  0.00    +0.000 A 
ENDBRANCH   1  16
ENDBRANCH   8   1
ENDBRANCH  13   8
ENDBRANCH  11  13
TORSDOF 8
ENDMDL
MODEL 8
REMARK VINA RESULT:      -3.4      2.858      5.137
REMARK  Name = 75536694
REMARK  8 active torsions:
REMARK  status: ('A' for Active; 'I' for Inactive)
REMARK    1  A    between atoms: S_1  and  N_8
REMARK    2  A    between atoms: S_1  and  C_16
REMARK    3  A    between atoms: O_4  and  C_10
REMARK    4  A    between atoms: N_7  and  C_9
REMARK    5  A    between atoms: N_7  and  C_14
REMARK    6  A    between atoms: N_8  and  C_13
REMARK    7  A    between atoms: C_11  and  C_13
REMARK    8  A    between atoms: C_14  and  C_15
REMARK                            x       y       z     vdW  Elec       q    Type
REMARK                         _______ _______ _______ _____ _____    ______ ____
ROOT
ATOM      3  O   UNL     1       0.684   0.688  22.899  0.00  0.00    -0.371 OA
ATOM      9  C   UNL     1      -0.356  -0.769  24.461  0.00  0.00    +0.111 C 
ATOM     10  C   UNL     1      -0.385   0.646  25.009  0.00  0.00    +0.164 C 
ATOM     11  C   UNL     1      -0.197   1.457  23.734  0.00  0.00    +0.164 C 
ATOM     12  C   UNL     1       0.730  -0.660  23.403  0.00  0.00    +0.181 C 
ENDROOT
BRANCH  10   4
ATOM      4  O   UNL     1      -1.604   0.956  25.656  0.00  0.00    -0.388 OA
ATOM     27  H   UNL     1      -2.088   0.127  25.810  0.00  0.00    +0.210 HD
ENDBRANCH  10   4
BRANCH   9   7
ATOM      7  N   UNL     1      -0.065  -1.778  25.467  0.00  0.00    -0.304 NA
ATOM     25  H   UNL     1      -0.037  -1.332  26.384  0.00  0.00    +0.123 HD
BRANCH   7  14
ATOM     14  C   UNL     1      -1.085  -2.820  25.476  0.00  0.00    +0.124 C 
BRANCH  14  15
ATOM      2  S   UNL     1      -3.310  -1.206  25.906  0.00  0.00    -0.100 S 
ATOM     15  C   UNL     1      -2.407  -2.314  24.963  0.00  0.00    +0.004 A 
ATOM     17  C   UNL     1      -3.043  -2.624  23.781  0.00  0.00    +0.012 A 
ATOM     20  C   UNL     1      -4.287  -1.943  23.648  0.00  0.00    +0.008 A 
ATOM     21  C   UNL     1      -4.555  -1.139  24.734  0.00  0.00    +0.045 A 
ENDBRANCH  14  15
ENDBRANCH   7  14
ENDBRANCH   9   7
BRANCH  11  13
ATOM     13  C   UNL     1       0.400   2.832  23.980  0.00  0.00    +0.140 C 
BRANCH  13   8
ATOM      8  N   UNL     1      -0.659   3.856  23.885  0.00  0.00    -0.187 NA
ATOM     26  H   UNL     1      -0.568   4.520  23.106  0.00  0.00    +0.148 HD
BRANCH   8   1
ATOM      1  S   UNL     1      -1.487   4.356  25.284  0.00  0.00    +0.058 S 
ATOM      5  O   UNL     1      -1.665   5.795  25.249  0.00  0.00    -0.153 OA
ATOM      6  O   UNL     1      -0.883   3.724  26.441  0.00  0.00    -0.153 OA
BRANCH   1  16
ATOM     16  C   UNL     1      -3.072   3.606  25.055  0.00  0.00    +0.105 A 
ATOM     18  C   UNL     1      -4.028   3.675  26.066  0.00  0.00    +0.028 A 
ATOM     19  C   UNL     1      -3.362   2.940  23.864  0.00  0.00    +0.028 A 
ATOM     22  C   UNL     1      -5.277   3.080  25.888  0.00  0.00    +0.002 A 
ATOM     23  C   UNL     1      -4.611   2.344  23.685  0.00  0.00    +0.002 A 
ATOM     24  C   UNL     1      -5.568   2.414  24.697  0.00  0.00    +0.000 A 
ENDBRANCH   1  16
ENDBRANCH   8   1
ENDBRANCH  13   8
ENDBRANCH  11  13
TORSDOF 8
ENDMDL
MODEL 9
REMARK VINA RESULT:      -3.4      1.915      6.610
REMARK  Name = 75536694
REMARK  8 active torsions:
REMARK  status: ('A' for Active; 'I' for Inactive)
REMARK    1  A    between atoms: S_1  and  N_8
REMARK    2  A    between atoms: S_1  and  C_16
REMARK    3  A    between atoms: O_4  and  C_10
REMARK    4  A    between atoms: N_7  and  C_9
REMARK    5  A    between atoms: N_7  and  C_14
REMARK    6  A    between atoms: N_8  and  C_13
REMARK    7  A    between atoms: C_11  and  C_13
REMARK    8  A    between atoms: C_14  and  C_15
REMARK                            x       y       z     vdW  Elec       q    Type
REMARK                         _______ _______ _______ _____ _____    ______ ____
ROOT
ATOM      3  O   UNL     1      -0.626   3.688  24.819  0.00  0.00    -0.371 OA
ATOM      9  C   UNL     1      -2.547   2.310  25.046  0.00  0.00    +0.111 C 
ATOM     10  C   UNL     1      -1.368   1.451  24.629  0.00  0.00    +0.164 C 
ATOM     11  C   UNL     1      -0.200   2.334  25.045  0.00  0.00    +0.164 C 
ATOM     12  C   UNL     1      -2.057   3.698  24.666  0.00  0.00    +0.181 C 
ENDROOT
BRANCH  10   4
ATOM      4  O   UNL     1      -1.343   0.200  25.290  0.00  0.00    -0.388 OA
ATOM     27  H   UNL     1      -1.045   0.343  26.204  0.00  0.00    +0.210 HD
ENDBRANCH  10   4
BRANCH   9   7
ATOM      7  N   UNL     1      -3.792   1.950  24.386  0.00  0.00    -0.304 NA
ATOM     25  H   UNL     1      -3.577   1.511  23.491  0.00  0.00    +0.123 HD
BRANCH   7  14
ATOM     14  C   UNL     1      -4.566   1.019  25.199  0.00  0.00    +0.124 C 
BRANCH  14  15
ATOM      2  S   UNL     1      -3.510  -1.387  26.111  0.00  0.00    -0.100 S 
ATOM     15  C   UNL     1      -4.220  -0.413  24.893  0.00  0.00    +0.004 A 
ATOM     17  C   UNL     1      -4.393  -1.105  23.715  0.00  0.00    +0.012 A 
ATOM     20  C   UNL     1      -3.938  -2.452  23.813  0.00  0.00    +0.008 A 
ATOM     21  C   UNL     1      -3.434  -2.737  25.063  0.00  0.00    +0.045 A 
ENDBRANCH  14  15
ENDBRANCH   7  14
ENDBRANCH   9   7
BRANCH  11  13
ATOM     13  C   UNL     1       1.071   2.059  24.261  0.00  0.00    +0.140 C 
BRANCH  13   8
ATOM      8  N   UNL     1       0.731   1.421  22.973  0.00  0.00    -0.187 NA
ATOM     26  H   UNL     1      -0.093   1.802  22.493  0.00  0.00    +0.148 HD
BRANCH   8   1
ATOM      1  S   UNL     1       1.164  -0.198  22.685  0.00  0.00    +0.058 S 
ATOM      5  O   UNL     1       1.029  -0.487  21.269  0.00  0.00    -0.153 OA
ATOM      6  O   UNL     1       0.511  -1.043  23.667  0.00  0.00    -0.153 OA
BRANCH   1  16
ATOM     16  C   UNL     1       2.887  -0.188  23.077  0.00  0.00    +0.105 A 
ATOM     18  C   UNL     1       3.474  -1.307  23.667  0.00  0.00    +0.028 A 
ATOM     19  C   UNL     1       3.659   0.941  22.803  0.00  0.00    +0.028 A 
ATOM     22  C   UNL     1       4.833  -1.299  23.981  0.00  0.00    +0.002 A 
ATOM     23  C   UNL     1       5.018   0.950  23.116  0.00  0.00    +0.002 A 
ATOM     24  C   UNL     1       5.605  -0.170  23.705  0.00  0.00    +0.000 A 
ENDBRANCH   1  16
ENDBRANCH   8   1
ENDBRANCH  13   8
ENDBRANCH  11  13
TORSDOF 8
ENDMDL
MODEL 10
REMARK VINA RESULT:      -3.3      2.371      3.204
REMARK  Name = 75536694
REMARK  8 active torsions:
REMARK  status: ('A' for Active; 'I' for Inactive)
REMARK    1  A    between atoms: S_1  and  N_8
REMARK    2  A    between atoms: S_1  and  C_16
REMARK    3  A    between atoms: O_4  and  C_10
REMARK    4  A    between atoms: N_7  and  C_9
REMARK    5  A    between atoms: N_7  and  C_14
REMARK    6  A    between atoms: N_8  and  C_13
REMARK    7  A    between atoms: C_11  and  C_13
REMARK    8  A    between atoms: C_14  and  C_15
REMARK                            x       y       z     vdW  Elec       q    Type
REMARK                         _______ _______ _______ _____ _____    ______ ____
ROOT
ATOM      3  O   UNL     1      -1.024  -0.735  25.059  0.00  0.00    -0.371 OA
ATOM      9  C   UNL     1       0.694  -0.106  23.543  0.00  0.00    +0.111 C 
ATOM     10  C   UNL     1       0.245   1.118  24.318  0.00  0.00    +0.164 C 
ATOM     11  C   UNL     1      -0.407   0.474  25.533  0.00  0.00    +0.164 C 
ATOM     12  C   UNL     1      -0.479  -1.048  23.765  0.00  0.00    +0.181 C 
ENDROOT
BRANCH  10   4
ATOM      4  O   UNL     1       1.323   1.959  24.683  0.00  0.00    -0.388 OA
ATOM     27  H   UNL     1       1.181   2.832  24.279  0.00  0.00    +0.210 HD
ENDBRANCH  10   4
BRANCH   9   7
ATOM      7  N   UNL     1       0.950   0.156  22.136  0.00  0.00    -0.304 NA
ATOM     25  H   UNL     1       1.077   1.159  22.004  0.00  0.00    +0.123 HD
BRANCH   7  14
ATOM     14  C   UNL     1       2.148  -0.540  21.682  0.00  0.00    +0.124 C 
BRANCH  14  15
ATOM      2  S   UNL     1       3.983  -1.414  23.581  0.00  0.00    -0.100 S 
ATOM     15  C   UNL     1       3.343  -0.215  22.538  0.00  0.00    +0.004 A 
ATOM     17  C   UNL     1       4.043   0.968  22.620  0.00  0.00    +0.012 A 
ATOM     20  C   UNL     1       5.119   0.890  23.551  0.00  0.00    +0.008 A 
ATOM     21  C   UNL     1       5.200  -0.350  24.144  0.00  0.00    +0.045 A 
ENDBRANCH  14  15
ENDBRANCH   7  14
ENDBRANCH   9   7
BRANCH  11  13
ATOM     13  C   UNL     1      -1.451   1.357  26.195  0.00  0.00    +0.140 C 
BRANCH  13   8
ATOM      8  N   UNL     1      -1.069   2.775  26.044  0.00  0.00    -0.187 NA
ATOM     26  H   UNL     1      -0.637   3.209  26.869  0.00  0.00    +0.148 HD
BRANCH   8   1
ATOM      1  S   UNL     1      -1.904   3.770  24.946  0.00  0.00    +0.058 S 
ATOM      5  O   UNL     1      -1.364   3.575  23.614  0.00  0.00    -0.153 OA
ATOM      6  O   UNL     1      -2.006   5.105  25.503  0.00  0.00    -0.153 OA
BRANCH   1  16
ATOM     16  C   UNL     1      -3.527   3.070  24.984  0.00  0.00    +0.105 A 
ATOM     18  C   UNL     1      -4.545   3.710  25.689  0.00  0.00    +0.028 A 
ATOM     19  C   UNL     1      -3.786   1.874  24.314  0.00  0.00    +0.028 A 
ATOM     22  C   UNL     1      -5.825   3.156  25.723  0.00  0.00    +0.002 A 
ATOM     23  C   UNL     1      -5.066   1.320  24.347  0.00  0.00    +0.002 A 
ATOM     24  C   UNL     1      -6.085   1.961  25.052  0.00  0.00    +0.000 A 
ENDBRANCH   1  16
ENDBRANCH   8   1
ENDBRANCH  13   8
ENDBRANCH  11  13
TORSDOF 8
ENDMDL
