MODEL 1
REMARK VINA RESULT:       3.9      0.000      0.000
REMARK  Name = 7144228
REMARK  8 active torsions:
REMARK  status: ('A' for Active; 'I' for Inactive)
REMARK    1  A    between atoms: S_1  and  C_27
REMARK    2  A    between atoms: S_1  and  C_30
REMARK    3  A    between atoms: O_4  and  C_22
REMARK    4  A    between atoms: O_4  and  C_28
REMARK    5  A    between atoms: O_5  and  C_29
REMARK    6  A    between atoms: C_16  and  C_21
REMARK    7  A    between atoms: C_18  and  C_22
REMARK    8  A    between atoms: C_28  and  C_29
REMARK                            x       y       z     vdW  Elec       q    Type
REMARK                         _______ _______ _______ _____ _____    ______ ____
ROOT
ATOM      2  O   UNL     1      -3.297   4.802  26.865  0.00  0.00    -0.268 OA
ATOM      3  O   UNL     1      -5.440   0.090  25.889  0.00  0.00    -0.273 OA
ATOM      7  N   UNL     1      -4.058   0.703  24.125  0.00  0.00    -0.299 N 
ATOM      8  N   UNL     1      -2.753   3.463  25.021  0.00  0.00    -0.311 N 
ATOM      9  C   UNL     1      -4.458   2.969  23.172  0.00  0.00    +0.027 C 
ATOM     10  C   UNL     1      -2.208   1.986  23.061  0.00  0.00    +0.054 C 
ATOM     11  C   UNL     1      -3.234   2.810  22.285  0.00  0.00    +0.018 C 
ATOM     12  C   UNL     1      -5.053   1.597  23.533  0.00  0.00    +0.113 C 
ATOM     13  C   UNL     1      -4.057   3.763  24.416  0.00  0.00    +0.130 C 
ATOM     14  C   UNL     1      -2.799   0.596  23.375  0.00  0.00    +0.117 C 
ATOM     15  C   UNL     1      -1.784   2.685  24.356  0.00  0.00    +0.034 A 
ATOM     16  C   UNL     1      -0.539   2.559  24.884  0.00  0.00    +0.002 A 
ATOM     17  C   UNL     1      -2.495   4.101  26.248  0.00  0.00    +0.252 A 
ATOM     18  C   UNL     1      -4.374  -0.018  25.276  0.00  0.00    +0.241 C 
ATOM     19  C   UNL     1      -0.238   3.199  26.150  0.00  0.00    +0.015 A 
ATOM     20  C   UNL     1      -1.141   3.917  26.818  0.00  0.00    +0.071 A 
ENDROOT
BRANCH  16  21
ATOM     21  C   UNL     1       0.516   1.768  24.213  0.00  0.00    -0.016 A 
ATOM     23  C   UNL     1       0.366   0.391  24.075  0.00  0.00    +0.009 A 
ATOM     24  C   UNL     1       1.652   2.406  23.724  0.00  0.00    +0.009 A 
ATOM     25  C   UNL     1       1.360  -0.354  23.442  0.00  0.00    +0.015 A 
ATOM     26  C   UNL     1       2.647   1.660  23.092  0.00  0.00    +0.015 A 
ATOM     27  C   UNL     1       2.501   0.280  22.950  0.00  0.00    +0.008 A 
BRANCH  27   1
ATOM      1  S   UNL     1       3.773  -0.672  22.144  0.00  0.00    -0.129 S 
ATOM     30  C   UNL     1       5.251  -0.179  23.077  0.00  0.00    +0.090 C 
ENDBRANCH  27   1
ENDBRANCH  16  21
BRANCH  18  22
ATOM     22  C   UNL     1      -3.325  -0.974  25.784  0.00  0.00    +0.256 C 
BRANCH  22   4
ATOM      4  O   UNL     1      -3.824  -2.272  25.568  0.00  0.00    -0.359 OA
BRANCH   4  28
ATOM     28  C   UNL     1      -3.200  -2.909  24.454  0.00  0.00    +0.280 C 
BRANCH  28  29
ATOM      6  O   UNL     1      -1.045  -2.521  25.506  0.00  0.00    -0.248 OA
ATOM     29  C   UNL     1      -1.716  -2.669  24.496  0.00  0.00    +0.331 C 
BRANCH  29   5
ATOM      5  O   UNL     1      -1.211  -2.639  23.238  0.00  0.00    -0.479 OA
ATOM     31  H   UNL     1      -1.910  -2.755  22.559  0.00  0.00    +0.295 HD
ENDBRANCH  29   5
ENDBRANCH  28  29
ENDBRANCH   4  28
ENDBRANCH  22   4
ENDBRANCH  18  22
TORSDOF 7
ENDMDL
MODEL 2
REMARK VINA RESULT:       7.2      3.238      4.906
REMARK  Name = 7144228
REMARK  8 active torsions:
REMARK  status: ('A' for Active; 'I' for Inactive)
REMARK    1  A    between atoms: S_1  and  C_27
REMARK    2  A    between atoms: S_1  and  C_30
REMARK    3  A    between atoms: O_4  and  C_22
REMARK    4  A    between atoms: O_4  and  C_28
REMARK    5  A    between atoms: O_5  and  C_29
REMARK    6  A    between atoms: C_16  and  C_21
REMARK    7  A    between atoms: C_18  and  C_22
REMARK    8  A    between atoms: C_28  and  C_29
REMARK                            x       y       z     vdW  Elec       q    Type
REMARK                         _______ _______ _______ _____ _____    ______ ____
ROOT
ATOM      2  O   UNL     1      -2.894   1.740  20.870  0.00  0.00    -0.268 OA
ATOM      3  O   UNL     1      -6.697   1.664  24.514  0.00  0.00    -0.273 OA
ATOM      7  N   UNL     1      -4.857   0.466  25.276  0.00  0.00    -0.299 N 
ATOM      8  N   UNL     1      -2.654   0.809  23.006  0.00  0.00    -0.311 N 
ATOM      9  C   UNL     1      -3.975  -1.268  23.721  0.00  0.00    +0.027 C 
ATOM     10  C   UNL     1      -2.452  -0.175  25.311  0.00  0.00    +0.054 C 
ATOM     11  C   UNL     1      -2.804  -1.512  24.660  0.00  0.00    +0.018 C 
ATOM     12  C   UNL     1      -5.189  -0.723  24.491  0.00  0.00    +0.113 C 
ATOM     13  C   UNL     1      -3.521  -0.311  22.618  0.00  0.00    +0.130 C 
ATOM     14  C   UNL     1      -3.662   0.337  26.119  0.00  0.00    +0.117 C 
ATOM     15  C   UNL     1      -2.033   0.867  24.270  0.00  0.00    +0.034 A 
ATOM     16  C   UNL     1      -1.121   1.839  24.532  0.00  0.00    +0.002 A 
ATOM     17  C   UNL     1      -2.392   1.750  21.993  0.00  0.00    +0.252 A 
ATOM     18  C   UNL     1      -5.697   1.579  25.233  0.00  0.00    +0.241 C 
ATOM     19  C   UNL     1      -0.828   2.830  23.513  0.00  0.00    +0.015 A 
ATOM     20  C   UNL     1      -1.421   2.819  22.319  0.00  0.00    +0.071 A 
ENDROOT
BRANCH  16  21
ATOM     21  C   UNL     1      -0.430   1.930  25.837  0.00  0.00    -0.016 A 
ATOM     23  C   UNL     1      -0.573   0.905  26.767  0.00  0.00    +0.009 A 
ATOM     24  C   UNL     1       0.358   3.040  26.125  0.00  0.00    +0.009 A 
ATOM     25  C   UNL     1       0.079   0.990  27.997  0.00  0.00    +0.015 A 
ATOM     26  C   UNL     1       1.009   3.126  27.356  0.00  0.00    +0.015 A 
ATOM     27  C   UNL     1       0.869   2.101  28.292  0.00  0.00    +0.008 A 
BRANCH  27   1
ATOM      1  S   UNL     1       1.700   2.212  29.864  0.00  0.00    -0.129 S 
ATOM     30  C   UNL     1       3.155   3.215  29.443  0.00  0.00    +0.090 C 
ENDBRANCH  27   1
ENDBRANCH  16  21
BRANCH  18  22
ATOM     22  C   UNL     1      -5.329   2.737  26.124  0.00  0.00    +0.256 C 
BRANCH  22   4
ATOM      4  O   UNL     1      -5.224   3.867  25.292  0.00  0.00    -0.359 OA
BRANCH   4  28
ATOM     28  C   UNL     1      -3.919   3.999  24.729  0.00  0.00    +0.280 C 
BRANCH  28  29
ATOM      6  O   UNL     1      -2.954   4.125  26.954  0.00  0.00    -0.248 OA
ATOM     29  C   UNL     1      -2.954   4.468  25.782  0.00  0.00    +0.331 C 
BRANCH  29   5
ATOM      5  O   UNL     1      -2.064   5.341  25.246  0.00  0.00    -0.479 OA
ATOM     31  H   UNL     1      -2.508   6.038  24.718  0.00  0.00    +0.295 HD
ENDBRANCH  29   5
ENDBRANCH  28  29
ENDBRANCH   4  28
ENDBRANCH  22   4
ENDBRANCH  18  22
TORSDOF 7
ENDMDL
MODEL 3
REMARK VINA RESULT:       7.5      1.961      3.894
REMARK  Name = 7144228
REMARK  8 active torsions:
REMARK  status: ('A' for Active; 'I' for Inactive)
REMARK    1  A    between atoms: S_1  and  C_27
REMARK    2  A    between atoms: S_1  and  C_30
REMARK    3  A    between atoms: O_4  and  C_22
REMARK    4  A    between atoms: O_4  and  C_28
REMARK    5  A    between atoms: O_5  and  C_29
REMARK    6  A    between atoms: C_16  and  C_21
REMARK    7  A    between atoms: C_18  and  C_22
REMARK    8  A    between atoms: C_28  and  C_29
REMARK                            x       y       z     vdW  Elec       q    Type
REMARK                         _______ _______ _______ _____ _____    ______ ____
ROOT
ATOM      2  O   UNL     1      -5.122   1.528  24.069  0.00  0.00    -0.268 OA
ATOM      3  O   UNL     1      -3.190  -1.389  28.007  0.00  0.00    -0.273 OA
ATOM      7  N   UNL     1      -2.174  -1.999  26.008  0.00  0.00    -0.299 N 
ATOM      8  N   UNL     1      -3.357   0.005  23.838  0.00  0.00    -0.311 N 
ATOM      9  C   UNL     1      -3.717  -2.517  24.122  0.00  0.00    +0.027 C 
ATOM     10  C   UNL     1      -1.469  -1.644  23.647  0.00  0.00    +0.054 C 
ATOM     11  C   UNL     1      -2.525  -2.647  23.186  0.00  0.00    +0.018 C 
ATOM     12  C   UNL     1      -3.306  -2.818  25.574  0.00  0.00    +0.113 C 
ATOM     13  C   UNL     1      -4.302  -1.112  23.973  0.00  0.00    +0.130 C 
ATOM     14  C   UNL     1      -1.030  -1.985  25.086  0.00  0.00    +0.117 C 
ATOM     15  C   UNL     1      -1.988  -0.205  23.579  0.00  0.00    +0.034 A 
ATOM     16  C   UNL     1      -1.180   0.854  23.311  0.00  0.00    +0.002 A 
ATOM     17  C   UNL     1      -3.932   1.289  23.863  0.00  0.00    +0.252 A 
ATOM     18  C   UNL     1      -2.216  -1.364  27.249  0.00  0.00    +0.241 C 
ATOM     19  C   UNL     1      -1.737   2.193  23.332  0.00  0.00    +0.015 A 
ATOM     20  C   UNL     1      -3.022   2.426  23.602  0.00  0.00    +0.071 A 
ENDROOT
BRANCH  16  21
ATOM     21  C   UNL     1       0.259   0.682  23.016  0.00  0.00    -0.016 A 
ATOM     23  C   UNL     1       0.660  -0.194  22.013  0.00  0.00    +0.009 A 
ATOM     24  C   UNL     1       1.203   1.399  23.746  0.00  0.00    +0.009 A 
ATOM     25  C   UNL     1       2.018  -0.356  21.735  0.00  0.00    +0.015 A 
ATOM     26  C   UNL     1       2.561   1.237  23.469  0.00  0.00    +0.015 A 
ATOM     27  C   UNL     1       2.968   0.359  22.463  0.00  0.00    +0.008 A 
BRANCH  27   1
ATOM      1  S   UNL     1       4.702   0.152  22.111  0.00  0.00    -0.129 S 
ATOM     30  C   UNL     1       5.423   0.176  23.778  0.00  0.00    +0.090 C 
ENDBRANCH  27   1
ENDBRANCH  16  21
BRANCH  18  22
ATOM     22  C   UNL     1      -0.984  -0.599  27.658  0.00  0.00    +0.256 C 
BRANCH  22   4
ATOM      4  O   UNL     1      -0.664   0.254  26.586  0.00  0.00    -0.359 OA
BRANCH   4  28
ATOM     28  C   UNL     1      -1.268   1.540  26.725  0.00  0.00    +0.280 C 
BRANCH  28  29
ATOM      6  O   UNL     1      -0.466   3.599  25.715  0.00  0.00    -0.248 OA
ATOM     29  C   UNL     1      -0.263   2.612  26.406  0.00  0.00    +0.331 C 
BRANCH  29   5
ATOM      5  O   UNL     1       0.925   2.333  26.999  0.00  0.00    -0.479 OA
ATOM     31  H   UNL     1       1.387   3.146  27.295  0.00  0.00    +0.295 HD
ENDBRANCH  29   5
ENDBRANCH  28  29
ENDBRANCH   4  28
ENDBRANCH  22   4
ENDBRANCH  18  22
TORSDOF 7
ENDMDL
