MODEL 1
REMARK VINA RESULT:       5.4      0.000      0.000
REMARK  Name = 40780206
REMARK  7 active torsions:
REMARK  status: ('A' for Active; 'I' for Inactive)
REMARK    1  A    between atoms: S_1  and  C_33
REMARK    2  A    between atoms: S_1  and  C_36
REMARK    3  A    between atoms: N_5  and  C_15
REMARK    4  A    between atoms: N_7  and  C_22
REMARK    5  A    between atoms: N_8  and  C_30
REMARK    6  A    between atoms: C_10  and  C_15
REMARK    7  A    between atoms: C_12  and  C_22
REMARK                            x       y       z     vdW  Elec       q    Type
REMARK                         _______ _______ _______ _____ _____    ______ ____
ROOT
ATOM      4  N   UNL     1      -2.789  -1.609  23.713  0.00  0.00    -0.298 NA
ATOM      9  C   UNL     1      -3.547  -0.334  25.851  0.00  0.00    -0.003 C 
ATOM     10  C   UNL     1      -4.723  -0.504  24.862  0.00  0.00    +0.020 C 
ATOM     11  C   UNL     1      -2.391   0.401  25.147  0.00  0.00    +0.024 C 
ATOM     12  C   UNL     1      -1.879  -0.461  23.971  0.00  0.00    +0.074 C 
ATOM     13  C   UNL     1      -4.185  -1.134  23.559  0.00  0.00    +0.089 C 
ATOM     14  C   UNL     1      -3.044  -1.750  26.194  0.00  0.00    +0.019 C 
ATOM     16  C   UNL     1      -2.734  -2.508  24.891  0.00  0.00    +0.085 C 
ENDROOT
BRANCH  10  15
ATOM     15  C   UNL     1      -5.469   0.793  24.592  0.00  0.00    +0.089 C 
BRANCH  15   5
ATOM      2  O   UNL     1      -0.447   2.764  27.552  0.00  0.00    -0.268 OA
ATOM      5  N   UNL     1      -4.648   1.954  24.928  0.00  0.00    -0.301 NA
ATOM      6  N   UNL     1      -1.979   3.404  25.901  0.00  0.00    -0.312 N 
ATOM     17  C   UNL     1      -4.426   3.975  26.395  0.00  0.00    +0.024 C 
ATOM     18  C   UNL     1      -3.600   4.062  24.091  0.00  0.00    +0.050 C 
ATOM     19  C   UNL     1      -5.233   2.707  26.044  0.00  0.00    +0.089 C 
ATOM     20  C   UNL     1      -4.441   2.811  23.751  0.00  0.00    +0.094 C 
ATOM     21  C   UNL     1      -4.308   4.874  25.172  0.00  0.00    +0.017 C 
ATOM     23  C   UNL     1      -3.017   3.651  26.910  0.00  0.00    +0.130 C 
ATOM     24  C   UNL     1      -2.210   3.660  24.545  0.00  0.00    +0.026 A 
ATOM     25  C   UNL     1      -1.212   3.531  23.653  0.00  0.00    +0.022 A 
ATOM     26  C   UNL     1      -0.718   2.991  26.373  0.00  0.00    +0.251 A 
ATOM     27  C   UNL     1       0.097   3.110  24.069  0.00  0.00    +0.007 A 
ATOM     28  C   UNL     1       0.355   2.837  25.351  0.00  0.00    +0.070 A 
ENDBRANCH  15   5
ENDBRANCH  10  15
BRANCH  12  22
ATOM     22  C   UNL     1      -1.629   0.380  22.717  0.00  0.00    +0.124 C 
BRANCH  22   7
ATOM      3  O   UNL     1       0.500  -1.002  24.044  0.00  0.00    -0.253 OA
ATOM      7  N   UNL     1      -0.204   0.552  22.487  0.00  0.00    -0.298 N 
ATOM      8  N   UNL     1       2.041   0.208  22.751  0.00  0.00    -0.269 N 
ATOM     29  C   UNL     1       0.765  -0.167  23.183  0.00  0.00    +0.304 C 
ATOM     37  H   UNL     1       0.092   1.229  21.791  0.00  0.00    +0.150 HD
ATOM     38  H   UNL     1       2.086   0.918  22.024  0.00  0.00    +0.156 HD
BRANCH   8  30
ATOM     30  C   UNL     1       3.289  -0.282  23.201  0.00  0.00    +0.036 A 
ATOM     31  C   UNL     1       4.395   0.566  23.254  0.00  0.00    +0.038 A 
ATOM     32  C   UNL     1       3.413  -1.615  23.592  0.00  0.00    +0.023 A 
ATOM     33  C   UNL     1       5.625   0.083  23.698  0.00  0.00    +0.009 A 
ATOM     34  C   UNL     1       4.644  -2.100  24.037  0.00  0.00    +0.003 A 
ATOM     35  C   UNL     1       5.750  -1.251  24.090  0.00  0.00    +0.015 A 
BRANCH  33   1
ATOM      1  S   UNL     1       7.038   1.166  23.767  0.00  0.00    -0.129 S 
ATOM     36  C   UNL     1       8.379   0.054  23.255  0.00  0.00    +0.090 C 
ENDBRANCH  33   1
ENDBRANCH   8  30
ENDBRANCH  22   7
ENDBRANCH  12  22
TORSDOF 6
ENDMDL
MODEL 2
REMARK VINA RESULT:       6.6      1.660      4.896
REMARK  Name = 40780206
REMARK  7 active torsions:
REMARK  status: ('A' for Active; 'I' for Inactive)
REMARK    1  A    between atoms: S_1  and  C_33
REMARK    2  A    between atoms: S_1  and  C_36
REMARK    3  A    between atoms: N_5  and  C_15
REMARK    4  A    between atoms: N_7  and  C_22
REMARK    5  A    between atoms: N_8  and  C_30
REMARK    6  A    between atoms: C_10  and  C_15
REMARK    7  A    between atoms: C_12  and  C_22
REMARK                            x       y       z     vdW  Elec       q    Type
REMARK                         _______ _______ _______ _____ _____    ______ ____
ROOT
ATOM      4  N   UNL     1      -4.122   3.791  26.159  0.00  0.00    -0.298 NA
ATOM      9  C   UNL     1      -3.829   4.317  23.628  0.00  0.00    -0.003 C 
ATOM     10  C   UNL     1      -4.254   2.846  23.841  0.00  0.00    +0.020 C 
ATOM     11  C   UNL     1      -2.528   4.590  24.406  0.00  0.00    +0.024 C 
ATOM     12  C   UNL     1      -2.789   4.404  25.918  0.00  0.00    +0.074 C 
ATOM     13  C   UNL     1      -4.272   2.552  25.357  0.00  0.00    +0.089 C 
ATOM     14  C   UNL     1      -4.928   5.195  24.257  0.00  0.00    +0.019 C 
ATOM     16  C   UNL     1      -5.156   4.756  25.714  0.00  0.00    +0.085 C 
ENDROOT
BRANCH  10  15
ATOM     15  C   UNL     1      -3.380   1.856  23.088  0.00  0.00    +0.089 C 
BRANCH  15   5
ATOM      2  O   UNL     1      -0.890  -3.772  23.145  0.00  0.00    -0.268 OA
ATOM      5  N   UNL     1      -3.354   0.558  23.759  0.00  0.00    -0.301 NA
ATOM      6  N   UNL     1      -2.085  -2.275  24.493  0.00  0.00    -0.312 N 
ATOM     17  C   UNL     1      -4.528  -1.637  24.065  0.00  0.00    +0.024 C 
ATOM     18  C   UNL     1      -3.325  -0.640  25.952  0.00  0.00    +0.050 C 
ATOM     19  C   UNL     1      -4.486  -0.276  23.337  0.00  0.00    +0.089 C 
ATOM     20  C   UNL     1      -3.322   0.722  25.220  0.00  0.00    +0.094 C 
ATOM     21  C   UNL     1      -4.580  -1.421  25.572  0.00  0.00    +0.017 C 
ATOM     23  C   UNL     1      -3.317  -2.519  23.732  0.00  0.00    +0.130 C 
ATOM     24  C   UNL     1      -2.076  -1.430  25.608  0.00  0.00    +0.026 A 
ATOM     25  C   UNL     1      -0.964  -1.307  26.354  0.00  0.00    +0.022 A 
ATOM     26  C   UNL     1      -0.943  -3.002  24.105  0.00  0.00    +0.251 A 
ATOM     27  C   UNL     1       0.235  -2.019  26.010  0.00  0.00    +0.007 A 
ATOM     28  C   UNL     1       0.275  -2.821  24.942  0.00  0.00    +0.070 A 
ENDBRANCH  15   5
ENDBRANCH  10  15
BRANCH  12  22
ATOM     22  C   UNL     1      -1.657   3.629  26.598  0.00  0.00    +0.124 C 
BRANCH  22   7
ATOM      3  O   UNL     1       0.567   3.312  24.821  0.00  0.00    -0.253 OA
ATOM      7  N   UNL     1      -1.316   2.439  25.837  0.00  0.00    -0.298 N 
ATOM      8  N   UNL     1      -0.135   1.112  24.396  0.00  0.00    -0.269 N 
ATOM     29  C   UNL     1      -0.209   2.375  24.992  0.00  0.00    +0.304 C 
ATOM     37  H   UNL     1      -1.915   1.624  25.924  0.00  0.00    +0.150 HD
ATOM     38  H   UNL     1      -0.861   0.446  24.648  0.00  0.00    +0.156 HD
BRANCH   8  30
ATOM     30  C   UNL     1       0.833   0.640  23.480  0.00  0.00    +0.036 A 
ATOM     31  C   UNL     1       2.187   0.886  23.706  0.00  0.00    +0.038 A 
ATOM     32  C   UNL     1       0.433  -0.071  22.350  0.00  0.00    +0.023 A 
ATOM     33  C   UNL     1       3.142   0.419  22.802  0.00  0.00    +0.009 A 
ATOM     34  C   UNL     1       1.387  -0.538  21.444  0.00  0.00    +0.003 A 
ATOM     35  C   UNL     1       2.741  -0.293  21.671  0.00  0.00    +0.015 A 
BRANCH  33   1
ATOM      1  S   UNL     1       4.872   0.731  23.091  0.00  0.00    -0.129 S 
ATOM     36  C   UNL     1       5.371  -0.767  23.987  0.00  0.00    +0.090 C 
ENDBRANCH  33   1
ENDBRANCH   8  30
ENDBRANCH  22   7
ENDBRANCH  12  22
TORSDOF 6
ENDMDL
MODEL 3
REMARK VINA RESULT:       7.9      1.218      1.813
REMARK  Name = 40780206
REMARK  7 active torsions:
REMARK  status: ('A' for Active; 'I' for Inactive)
REMARK    1  A    between atoms: S_1  and  C_33
REMARK    2  A    between atoms: S_1  and  C_36
REMARK    3  A    between atoms: N_5  and  C_15
REMARK    4  A    between atoms: N_7  and  C_22
REMARK    5  A    between atoms: N_8  and  C_30
REMARK    6  A    between atoms: C_10  and  C_15
REMARK    7  A    between atoms: C_12  and  C_22
REMARK                            x       y       z     vdW  Elec       q    Type
REMARK                         _______ _______ _______ _____ _____    ______ ____
ROOT
ATOM      4  N   UNL     1      -2.293  -1.198  24.175  0.00  0.00    -0.298 NA
ATOM      9  C   UNL     1      -4.677  -1.987  24.857  0.00  0.00    -0.003 C 
ATOM     10  C   UNL     1      -4.730  -0.609  24.158  0.00  0.00    +0.020 C 
ATOM     11  C   UNL     1      -3.749  -1.901  26.083  0.00  0.00    +0.024 C 
ATOM     12  C   UNL     1      -2.314  -1.571  25.615  0.00  0.00    +0.074 C 
ATOM     13  C   UNL     1      -3.284  -0.127  23.908  0.00  0.00    +0.089 C 
ATOM     14  C   UNL     1      -4.028  -2.968  23.862  0.00  0.00    +0.019 C 
ATOM     16  C   UNL     1      -2.681  -2.394  23.388  0.00  0.00    +0.085 C 
ENDROOT
BRANCH  10  15
ATOM     15  C   UNL     1      -5.539   0.422  24.928  0.00  0.00    +0.089 C 
BRANCH  15   5
ATOM      2  O   UNL     1      -0.469   3.159  27.091  0.00  0.00    -0.268 OA
ATOM      5  N   UNL     1      -4.810   1.682  25.047  0.00  0.00    -0.301 NA
ATOM      6  N   UNL     1      -2.216   3.466  25.561  0.00  0.00    -0.312 N 
ATOM     17  C   UNL     1      -4.646   3.870  26.262  0.00  0.00    +0.024 C 
ATOM     18  C   UNL     1      -4.070   3.766  23.884  0.00  0.00    +0.050 C 
ATOM     19  C   UNL     1      -5.353   2.503  26.137  0.00  0.00    +0.089 C 
ATOM     20  C   UNL     1      -4.810   2.414  23.771  0.00  0.00    +0.094 C 
ATOM     21  C   UNL     1      -4.744   4.630  24.946  0.00  0.00    +0.017 C 
ATOM     23  C   UNL     1      -3.167   3.734  26.648  0.00  0.00    +0.130 C 
ATOM     24  C   UNL     1      -2.607   3.544  24.220  0.00  0.00    +0.026 A 
ATOM     25  C   UNL     1      -1.696   3.403  23.241  0.00  0.00    +0.022 A 
ATOM     26  C   UNL     1      -0.880   3.224  25.931  0.00  0.00    +0.251 A 
ATOM     27  C   UNL     1      -0.316   3.151  23.552  0.00  0.00    +0.007 A 
ATOM     28  C   UNL     1       0.095   3.050  24.819  0.00  0.00    +0.070 A 
ENDBRANCH  15   5
ENDBRANCH  10  15
BRANCH  12  22
ATOM     22  C   UNL     1      -1.657  -0.513  26.503  0.00  0.00    +0.124 C 
BRANCH  22   7
ATOM      3  O   UNL     1       0.266  -1.565  24.660  0.00  0.00    -0.253 OA
ATOM      7  N   UNL     1      -0.664   0.242  25.757  0.00  0.00    -0.298 N 
ATOM      8  N   UNL     1       1.065   0.614  24.308  0.00  0.00    -0.269 N 
ATOM     29  C   UNL     1       0.235  -0.357  24.878  0.00  0.00    +0.304 C 
ATOM     37  H   UNL     1      -0.626   1.248  25.889  0.00  0.00    +0.150 HD
ATOM     38  H   UNL     1       0.907   1.576  24.598  0.00  0.00    +0.156 HD
BRANCH   8  30
ATOM     30  C   UNL     1       2.106   0.424  23.369  0.00  0.00    +0.036 A 
ATOM     31  C   UNL     1       3.437   0.455  23.786  0.00  0.00    +0.038 A 
ATOM     32  C   UNL     1       1.800   0.206  22.026  0.00  0.00    +0.023 A 
ATOM     33  C   UNL     1       4.462   0.267  22.860  0.00  0.00    +0.009 A 
ATOM     34  C   UNL     1       2.826   0.019  21.099  0.00  0.00    +0.003 A 
ATOM     35  C   UNL     1       4.157   0.048  21.515  0.00  0.00    +0.015 A 
BRANCH  33   1
ATOM      1  S   UNL     1       6.163   0.305  23.391  0.00  0.00    -0.129 S 
ATOM     36  C   UNL     1       6.187  -1.012  24.641  0.00  0.00    +0.090 C 
ENDBRANCH  33   1
ENDBRANCH   8  30
ENDBRANCH  22   7
ENDBRANCH  12  22
TORSDOF 6
ENDMDL
