MODEL 1
REMARK VINA RESULT:      -3.6      0.000      0.000
REMARK  Name = 75537118
REMARK  4 active torsions:
REMARK  status: ('A' for Active; 'I' for Inactive)
REMARK    1  A    between atoms: N_3  and  C_12
REMARK    2  A    between atoms: N_4  and  C_13
REMARK    3  A    between atoms: C_12  and  C_14
REMARK    4  A    between atoms: C_16  and  C_19
REMARK                            x       y       z     vdW  Elec       q    Type
REMARK                         _______ _______ _______ _____ _____    ______ ____
ROOT
ATOM      1  O   UNL     1      -0.004   4.384  23.122  0.00  0.00    -0.252 OA
ATOM      2  N   UNL     1       0.016   2.464  24.475  0.00  0.00    -0.278 N 
ATOM      3  N   UNL     1      -0.117  -0.258  25.172  0.00  0.00    -0.293 NA
ATOM      4  N   UNL     1      -1.134   4.256  25.189  0.00  0.00    -0.287 N 
ATOM      6  C   UNL     1      -0.438   2.100  25.801  0.00  0.00    +0.109 C 
ATOM      7  C   UNL     1      -1.056   0.702  25.787  0.00  0.00    +0.109 C 
ATOM      8  C   UNL     1      -1.402   3.224  26.175  0.00  0.00    +0.132 C 
ATOM      9  C   UNL     1       0.824   1.528  23.721  0.00  0.00    +0.125 C 
ATOM     10  C   UNL     1       0.200   0.131  23.783  0.00  0.00    +0.104 C 
ATOM     11  C   UNL     1      -0.328   3.779  24.135  0.00  0.00    +0.305 C 
ATOM     13  C   UNL     1      -1.766   5.556  25.248  0.00  0.00    +0.133 C 
ENDROOT
BRANCH   3  12
ATOM     12  C   UNL     1      -0.674  -1.610  25.208  0.00  0.00    +0.140 C 
BRANCH  12  14
ATOM      5  N   UNL     1      -2.810  -0.482  24.918  0.00  0.00    -0.255 NA
ATOM     14  C   UNL     1      -2.116  -1.634  24.775  0.00  0.00    +0.056 A 
ATOM     15  C   UNL     1      -2.653  -2.803  24.262  0.00  0.00    +0.024 A 
ATOM     16  C   UNL     1      -4.104  -0.508  24.527  0.00  0.00    +0.039 A 
ATOM     17  C   UNL     1      -3.987  -2.790  23.871  0.00  0.00    +0.004 A 
ATOM     18  C   UNL     1      -4.733  -1.624  24.003  0.00  0.00    +0.023 A 
ATOM     19  C   UNL     1      -4.874   0.761  24.684  0.00  0.00    +0.065 C 
ENDBRANCH  12  14
ENDBRANCH   3  12
TORSDOF 2
ENDMDL
MODEL 2
REMARK VINA RESULT:      -3.5     15.797     18.185
REMARK  Name = 75537118
REMARK  4 active torsions:
REMARK  status: ('A' for Active; 'I' for Inactive)
REMARK    1  A    between atoms: N_3  and  C_12
REMARK    2  A    between atoms: N_4  and  C_13
REMARK    3  A    between atoms: C_12  and  C_14
REMARK    4  A    between atoms: C_16  and  C_19
REMARK                            x       y       z     vdW  Elec       q    Type
REMARK                         _______ _______ _______ _____ _____    ______ ____
ROOT
ATOM      1  O   UNL     1      -0.964  -9.861  11.904  0.00  0.00    -0.252 OA
ATOM      2  N   UNL     1      -3.255 -10.041  11.417  0.00  0.00    -0.278 N 
ATOM      3  N   UNL     1      -5.765  -9.396  10.324  0.00  0.00    -0.293 NA
ATOM      4  N   UNL     1      -2.584 -10.406  13.530  0.00  0.00    -0.287 N 
ATOM      6  C   UNL     1      -4.453 -10.465  12.111  0.00  0.00    +0.109 C 
ATOM      7  C   UNL     1      -5.616  -9.527  11.788  0.00  0.00    +0.109 C 
ATOM      8  C   UNL     1      -4.034 -10.485  13.579  0.00  0.00    +0.132 C 
ATOM      9  C   UNL     1      -3.325  -9.741  10.003  0.00  0.00    +0.125 C 
ATOM     10  C   UNL     1      -4.536  -8.849   9.716  0.00  0.00    +0.104 C 
ATOM     11  C   UNL     1      -2.121 -10.080  12.238  0.00  0.00    +0.305 C 
ATOM     13  C   UNL     1      -1.769 -10.506  14.720  0.00  0.00    +0.133 C 
ENDROOT
BRANCH   3  12
ATOM     12  C   UNL     1      -6.913  -8.547  10.003  0.00  0.00    +0.140 C 
BRANCH  12  14
ATOM      5  N   UNL     1      -8.844  -9.581  11.063  0.00  0.00    -0.255 NA
ATOM     14  C   UNL     1      -8.188  -9.343   9.905  0.00  0.00    +0.056 A 
ATOM     15  C   UNL     1      -8.620  -9.783   8.665  0.00  0.00    +0.024 A 
ATOM     16  C   UNL     1      -9.988 -10.295  10.969  0.00  0.00    +0.039 A 
ATOM     17  C   UNL     1      -9.801 -10.514   8.609  0.00  0.00    +0.004 A 
ATOM     18  C   UNL     1     -10.504 -10.779   9.778  0.00  0.00    +0.023 A 
ATOM     19  C   UNL     1     -10.716 -10.561  12.245  0.00  0.00    +0.065 C 
ENDBRANCH  12  14
ENDBRANCH   3  12
TORSDOF 2
ENDMDL
MODEL 3
REMARK VINA RESULT:      -3.0      2.984      5.165
REMARK  Name = 75537118
REMARK  4 active torsions:
REMARK  status: ('A' for Active; 'I' for Inactive)
REMARK    1  A    between atoms: N_3  and  C_12
REMARK    2  A    between atoms: N_4  and  C_13
REMARK    3  A    between atoms: C_12  and  C_14
REMARK    4  A    between atoms: C_16  and  C_19
REMARK                            x       y       z     vdW  Elec       q    Type
REMARK                         _______ _______ _______ _____ _____    ______ ____
ROOT
ATOM      1  O   UNL     1      -6.352   1.601  25.189  0.00  0.00    -0.252 OA
ATOM      2  N   UNL     1      -4.115   1.824  24.509  0.00  0.00    -0.278 N 
ATOM      3  N   UNL     1      -1.368   1.257  24.291  0.00  0.00    -0.293 NA
ATOM      4  N   UNL     1      -5.223   3.671  25.146  0.00  0.00    -0.287 N 
ATOM      6  C   UNL     1      -3.193   2.909  24.247  0.00  0.00    +0.109 C 
ATOM      7  C   UNL     1      -1.806   2.574  24.797  0.00  0.00    +0.109 C 
ATOM      8  C   UNL     1      -3.864   4.119  24.894  0.00  0.00    +0.132 C 
ATOM      9  C   UNL     1      -3.724   0.468  24.185  0.00  0.00    +0.125 C 
ATOM     10  C   UNL     1      -2.309   0.195  24.702  0.00  0.00    +0.104 C 
ATOM     11  C   UNL     1      -5.357   2.279  24.970  0.00  0.00    +0.305 C 
ATOM     13  C   UNL     1      -6.241   4.561  25.660  0.00  0.00    +0.133 C 
ENDROOT
BRANCH   3  12
ATOM     12  C   UNL     1      -0.018   0.953  24.762  0.00  0.00    +0.140 C 
BRANCH  12  14
ATOM      5  N   UNL     1       2.176   0.949  23.710  0.00  0.00    -0.255 NA
ATOM     14  C   UNL     1       0.890   0.539  23.634  0.00  0.00    +0.056 A 
ATOM     15  C   UNL     1       0.380  -0.224  22.597  0.00  0.00    +0.024 A 
ATOM     16  C   UNL     1       2.987   0.574  22.695  0.00  0.00    +0.039 A 
ATOM     17  C   UNL     1       1.244  -0.591  21.572  0.00  0.00    +0.004 A 
ATOM     18  C   UNL     1       2.574  -0.188  21.615  0.00  0.00    +0.023 A 
ATOM     19  C   UNL     1       4.408   1.024  22.774  0.00  0.00    +0.065 C 
ENDBRANCH  12  14
ENDBRANCH   3  12
TORSDOF 2
ENDMDL
MODEL 4
REMARK VINA RESULT:      -3.0      1.991      3.645
REMARK  Name = 75537118
REMARK  4 active torsions:
REMARK  status: ('A' for Active; 'I' for Inactive)
REMARK    1  A    between atoms: N_3  and  C_12
REMARK    2  A    between atoms: N_4  and  C_13
REMARK    3  A    between atoms: C_12  and  C_14
REMARK    4  A    between atoms: C_16  and  C_19
REMARK                            x       y       z     vdW  Elec       q    Type
REMARK                         _______ _______ _______ _____ _____    ______ ____
ROOT
ATOM      1  O   UNL     1      -2.975   5.288  26.439  0.00  0.00    -0.252 OA
ATOM      2  N   UNL     1      -3.783   3.543  25.089  0.00  0.00    -0.278 N 
ATOM      3  N   UNL     1      -5.079   1.144  24.396  0.00  0.00    -0.293 NA
ATOM      4  N   UNL     1      -1.688   4.275  24.740  0.00  0.00    -0.287 N 
ATOM      6  C   UNL     1      -3.332   2.813  23.923  0.00  0.00    +0.109 C 
ATOM      7  C   UNL     1      -3.649   1.325  24.070  0.00  0.00    +0.109 C 
ATOM      8  C   UNL     1      -1.844   3.147  23.839  0.00  0.00    +0.132 C 
ATOM      9  C   UNL     1      -5.126   3.328  25.584  0.00  0.00    +0.125 C 
ATOM     10  C   UNL     1      -5.421   1.828  25.660  0.00  0.00    +0.104 C 
ATOM     11  C   UNL     1      -2.836   4.475  25.534  0.00  0.00    +0.305 C 
ATOM     13  C   UNL     1      -0.432   4.980  24.877  0.00  0.00    +0.133 C 
ENDROOT
BRANCH   3  12
ATOM     12  C   UNL     1      -5.406  -0.279  24.481  0.00  0.00    +0.140 C 
BRANCH  12  14
ATOM      5  N   UNL     1      -3.102  -0.633  25.177  0.00  0.00    -0.255 NA
ATOM     14  C   UNL     1      -4.169  -1.137  24.517  0.00  0.00    +0.056 A 
ATOM     15  C   UNL     1      -4.181  -2.372  23.891  0.00  0.00    +0.024 A 
ATOM     16  C   UNL     1      -1.994  -1.408  25.207  0.00  0.00    +0.039 A 
ATOM     17  C   UNL     1      -3.024  -3.140  23.944  0.00  0.00    +0.004 A 
ATOM     18  C   UNL     1      -1.905  -2.656  24.613  0.00  0.00    +0.023 A 
ATOM     19  C   UNL     1      -0.813  -0.857  25.933  0.00  0.00    +0.065 C 
ENDBRANCH  12  14
ENDBRANCH   3  12
TORSDOF 2
ENDMDL
MODEL 5
REMARK VINA RESULT:      -2.8      2.809      5.499
REMARK  Name = 75537118
REMARK  4 active torsions:
REMARK  status: ('A' for Active; 'I' for Inactive)
REMARK    1  A    between atoms: N_3  and  C_12
REMARK    2  A    between atoms: N_4  and  C_13
REMARK    3  A    between atoms: C_12  and  C_14
REMARK    4  A    between atoms: C_16  and  C_19
REMARK                            x       y       z     vdW  Elec       q    Type
REMARK                         _______ _______ _______ _____ _____    ______ ____
ROOT
ATOM      1  O   UNL     1      -2.493   4.358  25.946  0.00  0.00    -0.252 OA
ATOM      2  N   UNL     1      -1.576   2.307  25.261  0.00  0.00    -0.278 N 
ATOM      3  N   UNL     1       0.134   0.506  23.939  0.00  0.00    -0.293 NA
ATOM      4  N   UNL     1      -3.812   2.522  25.274  0.00  0.00    -0.287 N 
ATOM      6  C   UNL     1      -2.070   0.988  24.923  0.00  0.00    +0.109 C 
ATOM      7  C   UNL     1      -1.324   0.434  23.710  0.00  0.00    +0.109 C 
ATOM      8  C   UNL     1      -3.567   1.205  24.711  0.00  0.00    +0.132 C 
ATOM      9  C   UNL     1      -0.149   2.523  25.365  0.00  0.00    +0.125 C 
ATOM     10  C   UNL     1       0.563   1.901  24.161  0.00  0.00    +0.104 C 
ATOM     11  C   UNL     1      -2.611   3.206  25.549  0.00  0.00    +0.305 C 
ATOM     13  C   UNL     1      -5.144   3.076  25.377  0.00  0.00    +0.133 C 
ENDROOT
BRANCH   3  12
ATOM     12  C   UNL     1       0.857  -0.077  22.808  0.00  0.00    +0.140 C 
BRANCH  12  14
ATOM      5  N   UNL     1       3.017  -0.999  23.443  0.00  0.00    -0.255 NA
ATOM     14  C   UNL     1       2.347   0.072  22.961  0.00  0.00    +0.056 A 
ATOM     15  C   UNL     1       2.950   1.268  22.607  0.00  0.00    +0.024 A 
ATOM     16  C   UNL     1       4.355  -0.860  23.577  0.00  0.00    +0.039 A 
ATOM     17  C   UNL     1       4.328   1.373  22.758  0.00  0.00    +0.004 A 
ATOM     18  C   UNL     1       5.051   0.293  23.252  0.00  0.00    +0.023 A 
ATOM     19  C   UNL     1       5.099  -2.039  24.109  0.00  0.00    +0.065 C 
ENDBRANCH  12  14
ENDBRANCH   3  12
TORSDOF 2
ENDMDL
MODEL 6
REMARK VINA RESULT:      -2.5      2.761      5.310
REMARK  Name = 75537118
REMARK  4 active torsions:
REMARK  status: ('A' for Active; 'I' for Inactive)
REMARK    1  A    between atoms: N_3  and  C_12
REMARK    2  A    between atoms: N_4  and  C_13
REMARK    3  A    between atoms: C_12  and  C_14
REMARK    4  A    between atoms: C_16  and  C_19
REMARK                            x       y       z     vdW  Elec       q    Type
REMARK                         _______ _______ _______ _____ _____    ______ ____
ROOT
ATOM      1  O   UNL     1      -5.942   4.168  25.841  0.00  0.00    -0.252 OA
ATOM      2  N   UNL     1      -3.805   3.213  25.640  0.00  0.00    -0.278 N 
ATOM      3  N   UNL     1      -1.055   3.029  25.081  0.00  0.00    -0.293 NA
ATOM      4  N   UNL     1      -5.571   2.034  24.907  0.00  0.00    -0.287 N 
ATOM      6  C   UNL     1      -3.252   1.932  25.254  0.00  0.00    +0.109 C 
ATOM      7  C   UNL     1      -2.004   2.129  24.394  0.00  0.00    +0.109 C 
ATOM      8  C   UNL     1      -4.412   1.233  24.550  0.00  0.00    +0.132 C 
ATOM      9  C   UNL     1      -2.930   4.227  26.190  0.00  0.00    +0.125 C 
ATOM     10  C   UNL     1      -1.668   4.348  25.332  0.00  0.00    +0.104 C 
ATOM     11  C   UNL     1      -5.200   3.253  25.510  0.00  0.00    +0.305 C 
ATOM     13  C   UNL     1      -6.914   1.652  24.529  0.00  0.00    +0.133 C 
ENDROOT
BRANCH   3  12
ATOM     12  C   UNL     1       0.169   3.176  24.294  0.00  0.00    +0.140 C 
BRANCH  12  14
ATOM      5  N   UNL     1       2.007   1.809  23.475  0.00  0.00    -0.255 NA
ATOM     14  C   UNL     1       0.705   1.846  23.836  0.00  0.00    +0.056 A 
ATOM     15  C   UNL     1      -0.138   0.747  23.808  0.00  0.00    +0.024 A 
ATOM     16  C   UNL     1       2.483   0.611  23.066  0.00  0.00    +0.039 A 
ATOM     17  C   UNL     1       0.388  -0.467  23.382  0.00  0.00    +0.004 A 
ATOM     18  C   UNL     1       1.723  -0.545  23.002  0.00  0.00    +0.023 A 
ATOM     19  C   UNL     1       3.921   0.565  22.666  0.00  0.00    +0.065 C 
ENDBRANCH  12  14
ENDBRANCH   3  12
TORSDOF 2
ENDMDL
MODEL 7
REMARK VINA RESULT:      -2.3      2.464      5.828
REMARK  Name = 75537118
REMARK  4 active torsions:
REMARK  status: ('A' for Active; 'I' for Inactive)
REMARK    1  A    between atoms: N_3  and  C_12
REMARK    2  A    between atoms: N_4  and  C_13
REMARK    3  A    between atoms: C_12  and  C_14
REMARK    4  A    between atoms: C_16  and  C_19
REMARK                            x       y       z     vdW  Elec       q    Type
REMARK                         _______ _______ _______ _____ _____    ______ ____
ROOT
ATOM      1  O   UNL     1      -1.706  -3.415  23.560  0.00  0.00    -0.252 OA
ATOM      2  N   UNL     1      -2.853  -1.700  24.683  0.00  0.00    -0.278 N 
ATOM      3  N   UNL     1      -4.455   0.583  25.054  0.00  0.00    -0.293 NA
ATOM      4  N   UNL     1      -0.762  -2.192  25.342  0.00  0.00    -0.287 N 
ATOM      6  C   UNL     1      -2.634  -0.870  25.850  0.00  0.00    +0.109 C 
ATOM      7  C   UNL     1      -3.071   0.568  25.571  0.00  0.00    +0.109 C 
ATOM      8  C   UNL     1      -1.146  -1.043  26.144  0.00  0.00    +0.132 C 
ATOM      9  C   UNL     1      -4.132  -1.650  24.008  0.00  0.00    +0.125 C 
ATOM     10  C   UNL     1      -4.558  -0.194  23.802  0.00  0.00    +0.104 C 
ATOM     11  C   UNL     1      -1.769  -2.549  24.422  0.00  0.00    +0.305 C 
ATOM     13  C   UNL     1       0.563  -2.768  25.412  0.00  0.00    +0.133 C 
ENDROOT
BRANCH   3  12
ATOM     12  C   UNL     1      -4.904   1.958  24.839  0.00  0.00    +0.140 C 
BRANCH  12  14
ATOM      5  N   UNL     1      -2.646   2.738  24.382  0.00  0.00    -0.255 NA
ATOM     14  C   UNL     1      -3.794   2.951  25.062  0.00  0.00    +0.056 A 
ATOM     15  C   UNL     1      -3.995   4.011  25.931  0.00  0.00    +0.024 A 
ATOM     16  C   UNL     1      -1.653   3.633  24.585  0.00  0.00    +0.039 A 
ATOM     17  C   UNL     1      -2.951   4.910  26.114  0.00  0.00    +0.004 A 
ATOM     18  C   UNL     1      -1.754   4.725  25.431  0.00  0.00    +0.023 A 
ATOM     19  C   UNL     1      -0.382   3.403  23.836  0.00  0.00    +0.065 C 
ENDBRANCH  12  14
ENDBRANCH   3  12
TORSDOF 2
ENDMDL
MODEL 8
REMARK VINA RESULT:      -1.9      2.736      5.046
REMARK  Name = 75537118
REMARK  4 active torsions:
REMARK  status: ('A' for Active; 'I' for Inactive)
REMARK    1  A    between atoms: N_3  and  C_12
REMARK    2  A    between atoms: N_4  and  C_13
REMARK    3  A    between atoms: C_12  and  C_14
REMARK    4  A    between atoms: C_16  and  C_19
REMARK                            x       y       z     vdW  Elec       q    Type
REMARK                         _______ _______ _______ _____ _____    ______ ____
ROOT
ATOM      1  O   UNL     1      -6.374   2.081  26.651  0.00  0.00    -0.252 OA
ATOM      2  N   UNL     1      -4.824   1.076  25.200  0.00  0.00    -0.278 N 
ATOM      3  N   UNL     1      -2.737  -0.604  24.343  0.00  0.00    -0.293 NA
ATOM      4  N   UNL     1      -5.110   3.301  25.076  0.00  0.00    -0.287 N 
ATOM      6  C   UNL     1      -4.011   1.485  24.074  0.00  0.00    +0.109 C 
ATOM      7  C   UNL     1      -2.620   0.858  24.165  0.00  0.00    +0.109 C 
ATOM      8  C   UNL     1      -4.033   3.010  24.146  0.00  0.00    +0.132 C 
ATOM      9  C   UNL     1      -4.891  -0.326  25.553  0.00  0.00    +0.125 C 
ATOM     10  C   UNL     1      -3.483  -0.927  25.575  0.00  0.00    +0.104 C 
ATOM     11  C   UNL     1      -5.545   2.142  25.753  0.00  0.00    +0.305 C 
ATOM     13  C   UNL     1      -5.544   4.653  25.350  0.00  0.00    +0.133 C 
ENDROOT
BRANCH   3  12
ATOM     12  C   UNL     1      -1.412  -1.222  24.372  0.00  0.00    +0.140 C 
BRANCH  12  14
ATOM      5  N   UNL     1       0.629  -0.580  23.213  0.00  0.00    -0.255 NA
ATOM     14  C   UNL     1      -0.320  -0.219  24.106  0.00  0.00    +0.056 A 
ATOM     15  C   UNL     1      -0.338   0.997  24.769  0.00  0.00    +0.024 A 
ATOM     16  C   UNL     1       1.606   0.325  22.977  0.00  0.00    +0.039 A 
ATOM     17  C   UNL     1       0.683   1.900  24.500  0.00  0.00    +0.004 A 
ATOM     18  C   UNL     1       1.677   1.565  23.588  0.00  0.00    +0.023 A 
ATOM     19  C   UNL     1       2.656  -0.069  21.992  0.00  0.00    +0.065 C 
ENDBRANCH  12  14
ENDBRANCH   3  12
TORSDOF 2
ENDMDL
MODEL 9
REMARK VINA RESULT:      -1.9      2.532      5.366
REMARK  Name = 75537118
REMARK  4 active torsions:
REMARK  status: ('A' for Active; 'I' for Inactive)
REMARK    1  A    between atoms: N_3  and  C_12
REMARK    2  A    between atoms: N_4  and  C_13
REMARK    3  A    between atoms: C_12  and  C_14
REMARK    4  A    between atoms: C_16  and  C_19
REMARK                            x       y       z     vdW  Elec       q    Type
REMARK                         _______ _______ _______ _____ _____    ______ ____
ROOT
ATOM      1  O   UNL     1      -0.664  -2.914  25.303  0.00  0.00    -0.252 OA
ATOM      2  N   UNL     1      -1.144  -0.936  24.131  0.00  0.00    -0.278 N 
ATOM      3  N   UNL     1      -1.124   1.801  23.481  0.00  0.00    -0.293 NA
ATOM      4  N   UNL     1      -2.824  -2.376  24.521  0.00  0.00    -0.287 N 
ATOM      6  C   UNL     1      -2.276  -0.374  23.426  0.00  0.00    +0.109 C 
ATOM      7  C   UNL     1      -2.409   1.118  23.734  0.00  0.00    +0.109 C 
ATOM      8  C   UNL     1      -3.453  -1.231  23.886  0.00  0.00    +0.132 C 
ATOM      9  C   UNL     1       0.135  -0.260  24.071  0.00  0.00    +0.125 C 
ATOM     10  C   UNL     1      -0.053   1.238  24.327  0.00  0.00    +0.104 C 
ATOM     11  C   UNL     1      -1.443  -2.171  24.721  0.00  0.00    +0.305 C 
ATOM     13  C   UNL     1      -3.591  -3.501  25.008  0.00  0.00    +0.133 C 
ENDROOT
BRANCH   3  12
ATOM     12  C   UNL     1      -1.256   3.239  23.716  0.00  0.00    +0.140 C 
BRANCH  12  14
ATOM      5  N   UNL     1      -3.538   2.922  24.497  0.00  0.00    -0.255 NA
ATOM     14  C   UNL     1      -2.356   3.547  24.697  0.00  0.00    +0.056 A 
ATOM     15  C   UNL     1      -2.114   4.434  25.733  0.00  0.00    +0.024 A 
ATOM     16  C   UNL     1      -4.522   3.202  25.381  0.00  0.00    +0.039 A 
ATOM     17  C   UNL     1      -3.150   4.696  26.622  0.00  0.00    +0.004 A 
ATOM     18  C   UNL     1      -4.381   4.072  26.449  0.00  0.00    +0.023 A 
ATOM     19  C   UNL     1      -5.830   2.515  25.165  0.00  0.00    +0.065 C 
ENDBRANCH  12  14
ENDBRANCH   3  12
TORSDOF 2
ENDMDL
MODEL 10
REMARK VINA RESULT:      -1.7      2.247      4.321
REMARK  Name = 75537118
REMARK  4 active torsions:
REMARK  status: ('A' for Active; 'I' for Inactive)
REMARK    1  A    between atoms: N_3  and  C_12
REMARK    2  A    between atoms: N_4  and  C_13
REMARK    3  A    between atoms: C_12  and  C_14
REMARK    4  A    between atoms: C_16  and  C_19
REMARK                            x       y       z     vdW  Elec       q    Type
REMARK                         _______ _______ _______ _____ _____    ______ ____
ROOT
ATOM      1  O   UNL     1       2.136  -1.357  23.180  0.00  0.00    -0.252 OA
ATOM      2  N   UNL     1       0.200  -0.485  24.185  0.00  0.00    -0.278 N 
ATOM      3  N   UNL     1      -2.530  -0.159  24.779  0.00  0.00    -0.293 NA
ATOM      4  N   UNL     1       1.764   0.955  23.459  0.00  0.00    -0.287 N 
ATOM      6  C   UNL     1      -0.274   0.813  24.615  0.00  0.00    +0.109 C 
ATOM      7  C   UNL     1      -1.751   0.985  24.261  0.00  0.00    +0.109 C 
ATOM      8  C   UNL     1       0.670   1.793  23.921  0.00  0.00    +0.132 C 
ATOM      9  C   UNL     1      -0.570  -1.666  24.514  0.00  0.00    +0.125 C 
ATOM     10  C   UNL     1      -2.049  -1.429  24.199  0.00  0.00    +0.104 C 
ATOM     11  C   UNL     1       1.455  -0.417  23.564  0.00  0.00    +0.305 C 
ATOM     13  C   UNL     1       2.944   1.510  22.833  0.00  0.00    +0.133 C 
ENDROOT
BRANCH   3  12
ATOM     12  C   UNL     1      -3.953   0.024  24.498  0.00  0.00    +0.140 C 
BRANCH  12  14
ATOM      5  N   UNL     1      -3.494   2.313  25.183  0.00  0.00    -0.255 NA
ATOM     14  C   UNL     1      -4.441   1.380  24.935  0.00  0.00    +0.056 A 
ATOM     15  C   UNL     1      -5.802   1.606  25.058  0.00  0.00    +0.024 A 
ATOM     16  C   UNL     1      -3.937   3.529  25.574  0.00  0.00    +0.039 A 
ATOM     17  C   UNL     1      -6.218   2.870  25.462  0.00  0.00    +0.004 A 
ATOM     18  C   UNL     1      -5.274   3.855  25.727  0.00  0.00    +0.023 A 
ATOM     19  C   UNL     1      -2.895   4.562  25.850  0.00  0.00    +0.065 C 
ENDBRANCH  12  14
ENDBRANCH   3  12
TORSDOF 2
ENDMDL
