MODEL 1
REMARK VINA RESULT:       4.1      0.000      0.000
REMARK  Name = 7155616
REMARK  3 active torsions:
REMARK  status: ('A' for Active; 'I' for Inactive)
REMARK    1  A    between atoms: N_7  and  C_22
REMARK    2  A    between atoms: N_8  and  C_20
REMARK    3  A    between atoms: C_23  and  C_26
REMARK                            x       y       z     vdW  Elec       q    Type
REMARK                         _______ _______ _______ _____ _____    ______ ____
ROOT
ATOM      2  O   UNL     1       0.115   2.399  26.300  0.00  0.00    -0.266 OA
ATOM      3  O   UNL     1      -4.561   0.082  26.569  0.00  0.00    -0.252 OA
ATOM      5  N   UNL     1      -4.782   2.011  25.309  0.00  0.00    -0.284 N 
ATOM      6  N   UNL     1      -1.802   3.145  25.191  0.00  0.00    -0.310 N 
ATOM      7  N   UNL     1      -4.612  -0.096  24.258  0.00  0.00    -0.269 N 
ATOM     10  C   UNL     1      -3.854   4.047  26.424  0.00  0.00    +0.027 C 
ATOM     11  C   UNL     1      -3.872   3.904  23.970  0.00  0.00    +0.054 C 
ATOM     12  C   UNL     1      -4.098   4.846  25.150  0.00  0.00    +0.018 C 
ATOM     13  C   UNL     1      -4.827   2.858  26.503  0.00  0.00    +0.114 C 
ATOM     14  C   UNL     1      -2.389   3.597  26.458  0.00  0.00    +0.130 C 
ATOM     15  C   UNL     1      -4.882   2.738  24.030  0.00  0.00    +0.119 C 
ATOM     16  C   UNL     1      -2.458   3.353  23.973  0.00  0.00    +0.027 A 
ATOM     17  C   UNL     1      -1.851   3.038  22.816  0.00  0.00    +0.024 A 
ATOM     18  C   UNL     1      -0.508   2.586  25.255  0.00  0.00    +0.273 A 
ATOM     19  C   UNL     1      -4.639   0.613  25.458  0.00  0.00    +0.306 C 
ATOM     20  C   UNL     1       0.121   2.225  23.945  0.00  0.00    +0.099 A 
ATOM     21  C   UNL     1      -0.537   2.461  22.805  0.00  0.00    +0.030 A 
ATOM     34  H   UNL     1      -5.099   0.294  23.458  0.00  0.00    +0.156 HD
ENDROOT
BRANCH   7  22
ATOM      1  F   UNL     1      -2.275  -5.034  23.332  0.00  0.00    -0.205 F 
ATOM     22  C   UNL     1      -4.015  -1.359  24.022  0.00  0.00    +0.035 A 
ATOM     24  C   UNL     1      -2.663  -1.547  24.297  0.00  0.00    +0.026 A 
ATOM     25  C   UNL     1      -4.783  -2.404  23.515  0.00  0.00    +0.026 A 
ATOM     27  C   UNL     1      -2.074  -2.789  24.063  0.00  0.00    +0.040 A 
ATOM     28  C   UNL     1      -4.194  -3.647  23.282  0.00  0.00    +0.040 A 
ATOM     29  C   UNL     1      -2.840  -3.839  23.556  0.00  0.00    +0.124 A 
ENDBRANCH   7  22
BRANCH  20   8
ATOM      4  O   UNL     1       0.960  -0.080  22.485  0.00  0.00    -0.270 OA
ATOM      8  N   UNL     1       1.366   1.668  23.966  0.00  0.00    -0.277 N 
ATOM     23  C   UNL     1       1.713   0.542  23.231  0.00  0.00    +0.248 C 
ATOM     35  H   UNL     1       1.992   2.036  24.673  0.00  0.00    +0.155 HD
BRANCH  23  26
ATOM      9  N   UNL     1       5.746  -0.737  23.614  0.00  0.00    -0.263 NA
ATOM     26  C   UNL     1       3.123   0.095  23.365  0.00  0.00    +0.040 A 
ATOM     30  C   UNL     1       4.134   0.996  23.128  0.00  0.00    +0.033 A 
ATOM     31  C   UNL     1       3.377  -1.208  23.723  0.00  0.00    +0.033 A 
ATOM     32  C   UNL     1       5.431   0.530  23.267  0.00  0.00    +0.111 A 
ATOM     33  C   UNL     1       4.708  -1.576  23.833  0.00  0.00    +0.111 A 
ENDBRANCH  23  26
ENDBRANCH  20   8
TORSDOF 3
ENDMDL
