MODEL 1
REMARK VINA RESULT:      -0.6      0.000      0.000
REMARK  Name = 11911999
REMARK  4 active torsions:
REMARK  status: ('A' for Active; 'I' for Inactive)
REMARK    1  A    between atoms: N_6  and  C_12
REMARK    2  A    between atoms: N_7  and  C_13
REMARK    3  A    between atoms: C_17  and  C_18
REMARK    4  A    between atoms: C_19  and  C_24
REMARK                            x       y       z     vdW  Elec       q    Type
REMARK                         _______ _______ _______ _____ _____    ______ ____
ROOT
ATOM      2  O   UNL     1      -2.428   0.880  23.465  0.00  0.00    -0.370 OA
ATOM      3  O   UNL     1      -1.598  -1.563  25.219  0.00  0.00    -0.370 OA
ATOM     10  C   UNL     1      -2.633  -0.573  25.338  0.00  0.00    +0.171 C 
ATOM     11  C   UNL     1      -2.057   0.741  24.847  0.00  0.00    +0.171 C 
ATOM     12  C   UNL     1      -3.755  -0.869  24.372  0.00  0.00    +0.130 C 
ATOM     13  C   UNL     1      -0.562   0.558  24.972  0.00  0.00    +0.130 C 
ATOM     14  C   UNL     1      -3.270  -0.219  23.089  0.00  0.00    +0.185 C 
ATOM     15  C   UNL     1      -0.397  -0.934  24.746  0.00  0.00    +0.185 C 
ENDROOT
BRANCH  12   6
ATOM      6  N   UNL     1      -4.975  -0.236  24.823  0.00  0.00    -0.306 N 
ATOM      8  N   UNL     1      -3.966   1.881  24.930  0.00  0.00    -0.211 NA
ATOM      9  N   UNL     1      -6.287   1.583  25.512  0.00  0.00    -0.223 NA
ATOM     16  C   UNL     1      -5.080   1.116  25.096  0.00  0.00    +0.216 A 
ATOM     19  C   UNL     1      -4.105   3.195  25.205  0.00  0.00    +0.111 A 
ATOM     21  C   UNL     1      -6.354   2.906  25.769  0.00  0.00    +0.116 A 
ATOM     22  C   UNL     1      -5.285   3.769  25.632  0.00  0.00    +0.051 A 
ATOM     29  H   UNL     1      -5.823  -0.786  24.900  0.00  0.00    +0.149 HD
BRANCH  19  24
ATOM      5  O   UNL     1      -2.193   3.684  23.908  0.00  0.00    -0.461 OA
ATOM     24  C   UNL     1      -2.912   3.977  25.021  0.00  0.00    +0.153 A 
ATOM     26  C   UNL     1      -2.313   4.984  25.736  0.00  0.00    +0.051 A 
ATOM     27  C   UNL     1      -1.146   5.336  25.016  0.00  0.00    +0.042 A 
ATOM     28  C   UNL     1      -1.119   4.516  23.912  0.00  0.00    +0.196 A 
ENDBRANCH  19  24
ENDBRANCH  12   6
BRANCH  13   7
ATOM      4  O   UNL     1       0.643   3.034  25.658  0.00  0.00    -0.270 OA
ATOM      7  N   UNL     1      -0.097   0.942  26.284  0.00  0.00    -0.303 N 
ATOM     17  C   UNL     1       0.485   2.182  26.531  0.00  0.00    +0.251 C 
ATOM     30  H   UNL     1      -0.162   0.247  27.018  0.00  0.00    +0.149 HD
BRANCH  17  18
ATOM      1  S   UNL     1       2.563   2.797  28.158  0.00  0.00    -0.092 S 
ATOM     18  C   UNL     1       0.935   2.408  27.912  0.00  0.00    +0.074 A 
ATOM     20  C   UNL     1       0.193   2.342  29.039  0.00  0.00    +0.021 A 
ATOM     23  C   UNL     1       0.993   2.626  30.184  0.00  0.00    +0.008 A 
ATOM     25  C   UNL     1       2.302   2.891  29.848  0.00  0.00    +0.046 A 
ENDBRANCH  17  18
ENDBRANCH  13   7
TORSDOF 4
ENDMDL
MODEL 2
REMARK VINA RESULT:      -0.4      2.501      3.710
REMARK  Name = 11911999
REMARK  4 active torsions:
REMARK  status: ('A' for Active; 'I' for Inactive)
REMARK    1  A    between atoms: N_6  and  C_12
REMARK    2  A    between atoms: N_7  and  C_13
REMARK    3  A    between atoms: C_17  and  C_18
REMARK    4  A    between atoms: C_19  and  C_24
REMARK                            x       y       z     vdW  Elec       q    Type
REMARK                         _______ _______ _______ _____ _____    ______ ____
ROOT
ATOM      2  O   UNL     1      -3.434  -1.886  23.406  0.00  0.00    -0.370 OA
ATOM      3  O   UNL     1      -2.129  -1.382  26.194  0.00  0.00    -0.370 OA
ATOM     10  C   UNL     1      -2.760  -0.520  25.233  0.00  0.00    +0.171 C 
ATOM     11  C   UNL     1      -2.376  -1.023  23.856  0.00  0.00    +0.171 C 
ATOM     12  C   UNL     1      -4.260  -0.689  25.284  0.00  0.00    +0.130 C 
ATOM     13  C   UNL     1      -1.115  -1.821  24.094  0.00  0.00    +0.130 C 
ATOM     14  C   UNL     1      -4.491  -1.883  24.376  0.00  0.00    +0.185 C 
ATOM     15  C   UNL     1      -1.324  -2.348  25.502  0.00  0.00    +0.185 C 
ENDROOT
BRANCH  12   6
ATOM      6  N   UNL     1      -4.909   0.484  24.741  0.00  0.00    -0.306 N 
ATOM      8  N   UNL     1      -3.033   1.839  25.137  0.00  0.00    -0.211 NA
ATOM      9  N   UNL     1      -5.028   2.748  24.133  0.00  0.00    -0.223 NA
ATOM     16  C   UNL     1      -4.305   1.728  24.668  0.00  0.00    +0.216 A 
ATOM     19  C   UNL     1      -2.476   3.065  25.049  0.00  0.00    +0.111 A 
ATOM     21  C   UNL     1      -4.409   3.945  24.076  0.00  0.00    +0.116 A 
ATOM     22  C   UNL     1      -3.122   4.165  24.522  0.00  0.00    +0.051 A 
ATOM     29  H   UNL     1      -5.836   0.402  24.341  0.00  0.00    +0.149 HD
BRANCH  19  24
ATOM      5  O   UNL     1      -0.791   2.205  26.462  0.00  0.00    -0.461 OA
ATOM     24  C   UNL     1      -1.132   3.153  25.553  0.00  0.00    +0.153 A 
ATOM     26  C   UNL     1      -0.079   4.002  25.318  0.00  0.00    +0.051 A 
ATOM     27  C   UNL     1       0.981   3.548  26.138  0.00  0.00    +0.042 A 
ATOM     28  C   UNL     1       0.498   2.452  26.815  0.00  0.00    +0.196 A 
ENDBRANCH  19  24
ENDBRANCH  12   6
BRANCH  13   7
ATOM      4  O   UNL     1       0.294  -1.121  21.731  0.00  0.00    -0.270 OA
ATOM      7  N   UNL     1       0.057  -0.980  24.020  0.00  0.00    -0.303 N 
ATOM     17  C   UNL     1       0.687  -0.688  22.815  0.00  0.00    +0.251 C 
ATOM     30  H   UNL     1       0.442  -0.647  24.897  0.00  0.00    +0.149 HD
BRANCH  17  18
ATOM      1  S   UNL     1       3.395  -0.597  22.779  0.00  0.00    -0.092 S 
ATOM     18  C   UNL     1       1.886   0.156  22.912  0.00  0.00    +0.074 A 
ATOM     20  C   UNL     1       1.936   1.493  23.100  0.00  0.00    +0.021 A 
ATOM     23  C   UNL     1       3.287   1.944  23.138  0.00  0.00    +0.008 A 
ATOM     25  C   UNL     1       4.183   0.910  22.977  0.00  0.00    +0.046 A 
ENDBRANCH  17  18
ENDBRANCH  13   7
TORSDOF 4
ENDMDL
MODEL 3
REMARK VINA RESULT:      -0.2      2.578      4.044
REMARK  Name = 11911999
REMARK  4 active torsions:
REMARK  status: ('A' for Active; 'I' for Inactive)
REMARK    1  A    between atoms: N_6  and  C_12
REMARK    2  A    between atoms: N_7  and  C_13
REMARK    3  A    between atoms: C_17  and  C_18
REMARK    4  A    between atoms: C_19  and  C_24
REMARK                            x       y       z     vdW  Elec       q    Type
REMARK                         _______ _______ _______ _____ _____    ______ ____
ROOT
ATOM      2  O   UNL     1      -3.279  -1.210  23.124  0.00  0.00    -0.370 OA
ATOM      3  O   UNL     1      -1.981  -1.386  25.955  0.00  0.00    -0.370 OA
ATOM     10  C   UNL     1      -2.421  -0.286  25.142  0.00  0.00    +0.171 C 
ATOM     11  C   UNL     1      -2.096  -0.633  23.702  0.00  0.00    +0.171 C 
ATOM     12  C   UNL     1      -3.927  -0.186  25.167  0.00  0.00    +0.130 C 
ATOM     13  C   UNL     1      -1.005  -1.673  23.811  0.00  0.00    +0.130 C 
ATOM     14  C   UNL     1      -4.345  -1.164  24.084  0.00  0.00    +0.185 C 
ATOM     15  C   UNL     1      -1.344  -2.364  25.119  0.00  0.00    +0.185 C 
ENDROOT
BRANCH  12   6
ATOM      6  N   UNL     1      -4.340   1.155  24.815  0.00  0.00    -0.306 N 
ATOM      8  N   UNL     1      -2.389   2.107  25.707  0.00  0.00    -0.211 NA
ATOM      9  N   UNL     1      -4.088   3.485  24.694  0.00  0.00    -0.223 NA
ATOM     16  C   UNL     1      -3.583   2.283  25.080  0.00  0.00    +0.216 A 
ATOM     19  C   UNL     1      -1.677   3.228  25.948  0.00  0.00    +0.111 A 
ATOM     21  C   UNL     1      -3.324   4.563  24.967  0.00  0.00    +0.116 A 
ATOM     22  C   UNL     1      -2.098   4.494  25.597  0.00  0.00    +0.051 A 
ATOM     29  H   UNL     1      -5.203   1.293  24.302  0.00  0.00    +0.149 HD
BRANCH  19  24
ATOM      5  O   UNL     1      -0.508   2.675  27.924  0.00  0.00    -0.461 OA
ATOM     24  C   UNL     1      -0.420   3.011  26.612  0.00  0.00    +0.153 A 
ATOM     26  C   UNL     1       0.893   3.068  26.211  0.00  0.00    +0.051 A 
ATOM     27  C   UNL     1       1.665   2.747  27.352  0.00  0.00    +0.042 A 
ATOM     28  C   UNL     1       0.766   2.515  28.368  0.00  0.00    +0.196 A 
ENDBRANCH  19  24
ENDBRANCH  12   6
BRANCH  13   7
ATOM      4  O   UNL     1       0.524  -0.788  21.589  0.00  0.00    -0.270 OA
ATOM      7  N   UNL     1       0.300  -1.058  23.868  0.00  0.00    -0.303 N 
ATOM     17  C   UNL     1       0.980  -0.653  22.724  0.00  0.00    +0.251 C 
ATOM     30  H   UNL     1       0.732  -0.978  24.781  0.00  0.00    +0.149 HD
BRANCH  17  18
ATOM      1  S   UNL     1       3.546  -1.106  23.468  0.00  0.00    -0.092 S 
ATOM     18  C   UNL     1       2.312  -0.073  22.948  0.00  0.00    +0.074 A 
ATOM     20  C   UNL     1       2.684   1.216  22.789  0.00  0.00    +0.021 A 
ATOM     23  C   UNL     1       4.063   1.384  23.107  0.00  0.00    +0.008 A 
ATOM     25  C   UNL     1       4.653   0.201  23.492  0.00  0.00    +0.046 A 
ENDBRANCH  17  18
ENDBRANCH  13   7
TORSDOF 4
ENDMDL
MODEL 4
REMARK VINA RESULT:       0.5      2.632      5.125
REMARK  Name = 11911999
REMARK  4 active torsions:
REMARK  status: ('A' for Active; 'I' for Inactive)
REMARK    1  A    between atoms: N_6  and  C_12
REMARK    2  A    between atoms: N_7  and  C_13
REMARK    3  A    between atoms: C_17  and  C_18
REMARK    4  A    between atoms: C_19  and  C_24
REMARK                            x       y       z     vdW  Elec       q    Type
REMARK                         _______ _______ _______ _____ _____    ______ ____
ROOT
ATOM      2  O   UNL     1       0.158   3.219  26.391  0.00  0.00    -0.370 OA
ATOM      3  O   UNL     1      -0.141   2.746  23.322  0.00  0.00    -0.370 OA
ATOM     10  C   UNL     1      -1.074   3.089  24.361  0.00  0.00    +0.171 C 
ATOM     11  C   UNL     1      -0.658   2.333  25.607  0.00  0.00    +0.171 C 
ATOM     12  C   UNL     1      -0.924   4.542  24.742  0.00  0.00    +0.130 C 
ATOM     13  C   UNL     1       0.172   1.184  25.081  0.00  0.00    +0.130 C 
ATOM     14  C   UNL     1       0.204   4.505  25.757  0.00  0.00    +0.185 C 
ATOM     15  C   UNL     1       0.789   1.776  23.826  0.00  0.00    +0.185 C 
ENDROOT
BRANCH  12   6
ATOM      6  N   UNL     1      -2.140   5.019  25.364  0.00  0.00    -0.306 N 
ATOM      8  N   UNL     1      -3.308   3.050  24.843  0.00  0.00    -0.211 NA
ATOM      9  N   UNL     1      -4.383   4.851  26.031  0.00  0.00    -0.223 NA
ATOM     16  C   UNL     1      -3.312   4.285  25.414  0.00  0.00    +0.216 A 
ATOM     19  C   UNL     1      -4.467   2.363  24.911  0.00  0.00    +0.111 A 
ATOM     21  C   UNL     1      -5.509   4.108  26.063  0.00  0.00    +0.116 A 
ATOM     22  C   UNL     1      -5.610   2.846  25.515  0.00  0.00    +0.051 A 
ATOM     29  H   UNL     1      -2.139   5.914  25.838  0.00  0.00    +0.149 HD
BRANCH  19  24
ATOM      5  O   UNL     1      -3.472   0.891  23.355  0.00  0.00    -0.461 OA
ATOM     24  C   UNL     1      -4.432   1.062  24.299  0.00  0.00    +0.153 A 
ATOM     26  C   UNL     1      -5.171  -0.085  24.454  0.00  0.00    +0.051 A 
ATOM     27  C   UNL     1      -4.631  -1.025  23.544  0.00  0.00    +0.042 A 
ATOM     28  C   UNL     1      -3.600  -0.382  22.899  0.00  0.00    +0.196 A 
ENDBRANCH  19  24
ENDBRANCH  12   6
BRANCH  13   7
ATOM      4  O   UNL     1      -0.919  -0.652  26.950  0.00  0.00    -0.270 OA
ATOM      7  N   UNL     1      -0.654   0.043  24.768  0.00  0.00    -0.303 N 
ATOM     17  C   UNL     1      -1.148  -0.809  25.751  0.00  0.00    +0.251 C 
ATOM     30  H   UNL     1      -0.822  -0.151  23.787  0.00  0.00    +0.149 HD
BRANCH  17  18
ATOM      1  S   UNL     1      -1.426  -2.738  23.868  0.00  0.00    -0.092 S 
ATOM     18  C   UNL     1      -1.948  -1.943  25.268  0.00  0.00    +0.074 A 
ATOM     20  C   UNL     1      -3.078  -2.443  25.813  0.00  0.00    +0.021 A 
ATOM     23  C   UNL     1      -3.557  -3.548  25.051  0.00  0.00    +0.008 A 
ATOM     25  C   UNL     1      -2.754  -3.815  23.965  0.00  0.00    +0.046 A 
ENDBRANCH  17  18
ENDBRANCH  13   7
TORSDOF 4
ENDMDL
MODEL 5
REMARK VINA RESULT:       0.7      2.626      4.905
REMARK  Name = 11911999
REMARK  4 active torsions:
REMARK  status: ('A' for Active; 'I' for Inactive)
REMARK    1  A    between atoms: N_6  and  C_12
REMARK    2  A    between atoms: N_7  and  C_13
REMARK    3  A    between atoms: C_17  and  C_18
REMARK    4  A    between atoms: C_19  and  C_24
REMARK                            x       y       z     vdW  Elec       q    Type
REMARK                         _______ _______ _______ _____ _____    ______ ____
ROOT
ATOM      2  O   UNL     1      -1.036   4.573  25.825  0.00  0.00    -0.370 OA
ATOM      3  O   UNL     1      -1.388   2.983  23.164  0.00  0.00    -0.370 OA
ATOM     10  C   UNL     1      -2.237   3.193  24.304  0.00  0.00    +0.171 C 
ATOM     11  C   UNL     1      -1.349   3.201  25.532  0.00  0.00    +0.171 C 
ATOM     12  C   UNL     1      -2.829   4.582  24.267  0.00  0.00    +0.130 C 
ATOM     13  C   UNL     1      -0.106   2.462  25.091  0.00  0.00    +0.130 C 
ATOM     14  C   UNL     1      -1.742   5.424  24.911  0.00  0.00    +0.185 C 
ATOM     15  C   UNL     1      -0.038   2.794  23.612  0.00  0.00    +0.185 C 
ENDROOT
BRANCH  12   6
ATOM      6  N   UNL     1      -4.035   4.628  25.064  0.00  0.00    -0.306 N 
ATOM      8  N   UNL     1      -4.298   2.296  24.997  0.00  0.00    -0.211 NA
ATOM      9  N   UNL     1      -5.873   3.687  26.179  0.00  0.00    -0.223 NA
ATOM     16  C   UNL     1      -4.757   3.504  25.424  0.00  0.00    +0.216 A 
ATOM     19  C   UNL     1      -5.026   1.222  25.367  0.00  0.00    +0.111 A 
ATOM     21  C   UNL     1      -6.553   2.570  26.512  0.00  0.00    +0.116 A 
ATOM     22  C   UNL     1      -6.173   1.299  26.132  0.00  0.00    +0.051 A 
ATOM     29  H   UNL     1      -4.357   5.516  25.432  0.00  0.00    +0.149 HD
BRANCH  19  24
ATOM      5  O   UNL     1      -4.058  -0.873  25.869  0.00  0.00    -0.461 OA
ATOM     24  C   UNL     1      -4.517  -0.040  24.901  0.00  0.00    +0.153 A 
ATOM     26  C   UNL     1      -4.384  -0.615  23.661  0.00  0.00    +0.051 A 
ATOM     27  C   UNL     1      -3.804  -1.886  23.879  0.00  0.00    +0.042 A 
ATOM     28  C   UNL     1      -3.625  -1.996  25.238  0.00  0.00    +0.196 A 
ENDBRANCH  19  24
ENDBRANCH  12   6
BRANCH  13   7
ATOM      4  O   UNL     1       0.431   0.430  23.183  0.00  0.00    -0.270 OA
ATOM      7  N   UNL     1      -0.241   1.040  25.302  0.00  0.00    -0.303 N 
ATOM     17  C   UNL     1       0.045   0.111  24.307  0.00  0.00    +0.251 C 
ATOM     30  H   UNL     1      -0.607   0.739  26.198  0.00  0.00    +0.149 HD
BRANCH  17  18
ATOM      1  S   UNL     1      -0.865  -2.313  23.506  0.00  0.00    -0.092 S 
ATOM     18  C   UNL     1      -0.173  -1.297  24.669  0.00  0.00    +0.074 A 
ATOM     20  C   UNL     1       0.114  -1.896  25.845  0.00  0.00    +0.021 A 
ATOM     23  C   UNL     1      -0.245  -3.275  25.806  0.00  0.00    +0.008 A 
ATOM     25  C   UNL     1      -0.790  -3.634  24.594  0.00  0.00    +0.046 A 
ENDBRANCH  17  18
ENDBRANCH  13   7
TORSDOF 4
ENDMDL
MODEL 6
REMARK VINA RESULT:       1.3      2.439      4.893
REMARK  Name = 11911999
REMARK  4 active torsions:
REMARK  status: ('A' for Active; 'I' for Inactive)
REMARK    1  A    between atoms: N_6  and  C_12
REMARK    2  A    between atoms: N_7  and  C_13
REMARK    3  A    between atoms: C_17  and  C_18
REMARK    4  A    between atoms: C_19  and  C_24
REMARK                            x       y       z     vdW  Elec       q    Type
REMARK                         _______ _______ _______ _____ _____    ______ ____
ROOT
ATOM      2  O   UNL     1      -2.705   3.410  26.753  0.00  0.00    -0.370 OA
ATOM      3  O   UNL     1      -1.803   5.037  24.249  0.00  0.00    -0.370 OA
ATOM     10  C   UNL     1      -2.817   4.041  24.463  0.00  0.00    +0.171 C 
ATOM     11  C   UNL     1      -2.256   3.030  25.442  0.00  0.00    +0.171 C 
ATOM     12  C   UNL     1      -3.997   4.643  25.188  0.00  0.00    +0.130 C 
ATOM     13  C   UNL     1      -0.758   3.201  25.330  0.00  0.00    +0.130 C 
ATOM     14  C   UNL     1      -3.580   4.541  26.644  0.00  0.00    +0.185 C 
ATOM     15  C   UNL     1      -0.624   4.673  24.983  0.00  0.00    +0.185 C 
ENDROOT
BRANCH  12   6
ATOM      6  N   UNL     1      -5.182   3.847  24.951  0.00  0.00    -0.306 N 
ATOM      8  N   UNL     1      -3.982   1.832  25.056  0.00  0.00    -0.211 NA
ATOM      9  N   UNL     1      -6.360   1.839  24.659  0.00  0.00    -0.223 NA
ATOM     16  C   UNL     1      -5.174   2.465  24.886  0.00  0.00    +0.216 A 
ATOM     19  C   UNL     1      -4.012   0.485  24.988  0.00  0.00    +0.111 A 
ATOM     21  C   UNL     1      -6.317   0.491  24.603  0.00  0.00    +0.116 A 
ATOM     22  C   UNL     1      -5.161  -0.246  24.762  0.00  0.00    +0.051 A 
ATOM     29  H   UNL     1      -6.083   4.304  24.876  0.00  0.00    +0.149 HD
BRANCH  19  24
ATOM      5  O   UNL     1      -2.364  -0.997  24.172  0.00  0.00    -0.461 OA
ATOM     24  C   UNL     1      -2.737  -0.156  25.169  0.00  0.00    +0.153 A 
ATOM     26  C   UNL     1      -1.779  -0.111  26.152  0.00  0.00    +0.051 A 
ATOM     27  C   UNL     1      -0.747  -0.983  25.733  0.00  0.00    +0.042 A 
ATOM     28  C   UNL     1      -1.151  -1.498  24.523  0.00  0.00    +0.196 A 
ENDBRANCH  19  24
ENDBRANCH  12   6
BRANCH  13   7
ATOM      4  O   UNL     1       1.592   1.619  25.511  0.00  0.00    -0.270 OA
ATOM      7  N   UNL     1      -0.213   2.366  24.286  0.00  0.00    -0.303 N 
ATOM     17  C   UNL     1       0.949   1.621  24.462  0.00  0.00    +0.251 C 
ATOM     30  H   UNL     1      -0.685   2.382  23.389  0.00  0.00    +0.149 HD
BRANCH  17  18
ATOM      1  S   UNL     1       3.033   0.895  22.888  0.00  0.00    -0.092 S 
ATOM     18  C   UNL     1       1.391   0.847  23.293  0.00  0.00    +0.074 A 
ATOM     20  C   UNL     1       0.630   0.083  22.479  0.00  0.00    +0.021 A 
ATOM     23  C   UNL     1       1.427  -0.508  21.456  0.00  0.00    +0.008 A 
ATOM     25  C   UNL     1       2.753  -0.149  21.561  0.00  0.00    +0.046 A 
ENDBRANCH  17  18
ENDBRANCH  13   7
TORSDOF 4
ENDMDL
MODEL 7
REMARK VINA RESULT:       1.3      2.786      5.149
REMARK  Name = 11911999
REMARK  4 active torsions:
REMARK  status: ('A' for Active; 'I' for Inactive)
REMARK    1  A    between atoms: N_6  and  C_12
REMARK    2  A    between atoms: N_7  and  C_13
REMARK    3  A    between atoms: C_17  and  C_18
REMARK    4  A    between atoms: C_19  and  C_24
REMARK                            x       y       z     vdW  Elec       q    Type
REMARK                         _______ _______ _______ _____ _____    ______ ____
ROOT
ATOM      2  O   UNL     1       0.454   0.301  23.002  0.00  0.00    -0.370 OA
ATOM      3  O   UNL     1      -0.180   0.913  25.994  0.00  0.00    -0.370 OA
ATOM     10  C   UNL     1      -0.759   0.019  25.029  0.00  0.00    +0.171 C 
ATOM     11  C   UNL     1      -0.734   0.728  23.688  0.00  0.00    +0.171 C 
ATOM     12  C   UNL     1       0.131  -1.183  24.828  0.00  0.00    +0.130 C 
ATOM     13  C   UNL     1      -0.634   2.192  24.048  0.00  0.00    +0.130 C 
ATOM     14  C   UNL     1       1.125  -0.693  23.790  0.00  0.00    +0.185 C 
ATOM     15  C   UNL     1       0.143   2.155  25.352  0.00  0.00    +0.185 C 
ENDROOT
BRANCH  12   6
ATOM      6  N   UNL     1      -0.640  -2.287  24.299  0.00  0.00    -0.306 N 
ATOM      8  N   UNL     1      -2.674  -1.158  24.610  0.00  0.00    -0.211 NA
ATOM      9  N   UNL     1      -2.620  -3.379  23.674  0.00  0.00    -0.223 NA
ATOM     16  C   UNL     1      -2.019  -2.274  24.191  0.00  0.00    +0.216 A 
ATOM     19  C   UNL     1      -4.018  -1.180  24.489  0.00  0.00    +0.111 A 
ATOM     21  C   UNL     1      -3.966  -3.332  23.583  0.00  0.00    +0.116 A 
ATOM     22  C   UNL     1      -4.724  -2.249  23.977  0.00  0.00    +0.051 A 
ATOM     29  H   UNL     1      -0.159  -3.102  23.936  0.00  0.00    +0.149 HD
BRANCH  19  24
ATOM      5  O   UNL     1      -5.801   0.350  24.250  0.00  0.00    -0.461 OA
ATOM     24  C   UNL     1      -4.682   0.013  24.940  0.00  0.00    +0.153 A 
ATOM     26  C   UNL     1      -4.436   0.921  25.941  0.00  0.00    +0.051 A 
ATOM     27  C   UNL     1      -5.473   1.881  25.862  0.00  0.00    +0.042 A 
ATOM     28  C   UNL     1      -6.277   1.489  24.817  0.00  0.00    +0.196 A 
ENDBRANCH  19  24
ENDBRANCH  12   6
BRANCH  13   7
ATOM      4  O   UNL     1      -1.193   4.677  25.302  0.00  0.00    -0.270 OA
ATOM      7  N   UNL     1      -1.942   2.775  24.235  0.00  0.00    -0.303 N 
ATOM     17  C   UNL     1      -2.125   4.002  24.864  0.00  0.00    +0.251 C 
ATOM     30  H   UNL     1      -2.739   2.225  23.935  0.00  0.00    +0.149 HD
BRANCH  17  18
ATOM      1  S   UNL     1      -4.122   4.670  26.570  0.00  0.00    -0.092 S 
ATOM     18  C   UNL     1      -3.520   4.443  25.006  0.00  0.00    +0.074 A 
ATOM     20  C   UNL     1      -4.406   4.694  24.017  0.00  0.00    +0.021 A 
ATOM     23  C   UNL     1      -5.660   5.101  24.558  0.00  0.00    +0.008 A 
ATOM     25  C   UNL     1      -5.644   5.130  25.935  0.00  0.00    +0.046 A 
ENDBRANCH  17  18
ENDBRANCH  13   7
TORSDOF 4
ENDMDL
MODEL 8
REMARK VINA RESULT:       1.5      2.016      4.273
REMARK  Name = 11911999
REMARK  4 active torsions:
REMARK  status: ('A' for Active; 'I' for Inactive)
REMARK    1  A    between atoms: N_6  and  C_12
REMARK    2  A    between atoms: N_7  and  C_13
REMARK    3  A    between atoms: C_17  and  C_18
REMARK    4  A    between atoms: C_19  and  C_24
REMARK                            x       y       z     vdW  Elec       q    Type
REMARK                         _______ _______ _______ _____ _____    ______ ____
ROOT
ATOM      2  O   UNL     1      -5.051   2.812  25.945  0.00  0.00    -0.370 OA
ATOM      3  O   UNL     1      -2.657   3.478  24.059  0.00  0.00    -0.370 OA
ATOM     10  C   UNL     1      -3.080   2.277  24.725  0.00  0.00    +0.171 C 
ATOM     11  C   UNL     1      -3.626   2.682  26.080  0.00  0.00    +0.171 C 
ATOM     12  C   UNL     1      -4.266   1.673  24.013  0.00  0.00    +0.130 C 
ATOM     13  C   UNL     1      -2.998   4.033  26.340  0.00  0.00    +0.130 C 
ATOM     14  C   UNL     1      -5.436   2.429  24.617  0.00  0.00    +0.185 C 
ATOM     15  C   UNL     1      -2.845   4.596  24.939  0.00  0.00    +0.185 C 
ENDROOT
BRANCH  12   6
ATOM      6  N   UNL     1      -4.367   0.264  24.326  0.00  0.00    -0.306 N 
ATOM      8  N   UNL     1      -2.081  -0.098  23.936  0.00  0.00    -0.211 NA
ATOM      9  N   UNL     1      -3.525  -1.907  24.608  0.00  0.00    -0.223 NA
ATOM     16  C   UNL     1      -3.292  -0.606  24.289  0.00  0.00    +0.216 A 
ATOM     19  C   UNL     1      -1.056  -0.975  23.911  0.00  0.00    +0.111 A 
ATOM     21  C   UNL     1      -2.455  -2.729  24.562  0.00  0.00    +0.116 A 
ATOM     22  C   UNL     1      -1.185  -2.314  24.218  0.00  0.00    +0.051 A 
ATOM     29  H   UNL     1      -5.253  -0.114  24.641  0.00  0.00    +0.149 HD
BRANCH  19  24
ATOM      5  O   UNL     1       0.445   0.846  23.994  0.00  0.00    -0.461 OA
ATOM     24  C   UNL     1       0.211  -0.409  23.534  0.00  0.00    +0.153 A 
ATOM     26  C   UNL     1       1.274  -0.860  22.790  0.00  0.00    +0.051 A 
ATOM     27  C   UNL     1       2.226   0.187  22.792  0.00  0.00    +0.042 A 
ATOM     28  C   UNL     1       1.674   1.203  23.537  0.00  0.00    +0.196 A 
ENDBRANCH  19  24
ENDBRANCH  12   6
BRANCH  13   7
ATOM      4  O   UNL     1      -1.230   1.825  26.106  0.00  0.00    -0.270 OA
ATOM      7  N   UNL     1      -1.718   3.897  26.992  0.00  0.00    -0.303 N 
ATOM     17  C   UNL     1      -0.912   2.775  26.821  0.00  0.00    +0.251 C 
ATOM     30  H   UNL     1      -1.444   4.635  27.631  0.00  0.00    +0.149 HD
BRANCH  17  18
ATOM      1  S   UNL     1       0.263   2.544  29.252  0.00  0.00    -0.092 S 
ATOM     18  C   UNL     1       0.348   2.775  27.578  0.00  0.00    +0.074 A 
ATOM     20  C   UNL     1       1.597   2.943  27.093  0.00  0.00    +0.021 A 
ATOM     23  C   UNL     1       2.557   2.879  28.144  0.00  0.00    +0.008 A 
ATOM     25  C   UNL     1       1.967   2.666  29.370  0.00  0.00    +0.046 A 
ENDBRANCH  17  18
ENDBRANCH  13   7
TORSDOF 4
ENDMDL
MODEL 9
REMARK VINA RESULT:       1.6      2.749      6.285
REMARK  Name = 11911999
REMARK  4 active torsions:
REMARK  status: ('A' for Active; 'I' for Inactive)
REMARK    1  A    between atoms: N_6  and  C_12
REMARK    2  A    between atoms: N_7  and  C_13
REMARK    3  A    between atoms: C_17  and  C_18
REMARK    4  A    between atoms: C_19  and  C_24
REMARK                            x       y       z     vdW  Elec       q    Type
REMARK                         _______ _______ _______ _____ _____    ______ ____
ROOT
ATOM      2  O   UNL     1      -4.340   4.513  23.845  0.00  0.00    -0.370 OA
ATOM      3  O   UNL     1      -3.839   3.362  26.701  0.00  0.00    -0.370 OA
ATOM     10  C   UNL     1      -3.026   3.452  25.520  0.00  0.00    +0.171 C 
ATOM     11  C   UNL     1      -3.935   3.221  24.328  0.00  0.00    +0.171 C 
ATOM     12  C   UNL     1      -2.524   4.864  25.335  0.00  0.00    +0.130 C 
ATOM     13  C   UNL     1      -5.119   2.482  24.907  0.00  0.00    +0.130 C 
ATOM     14  C   UNL     1      -3.673   5.532  24.603  0.00  0.00    +0.185 C 
ATOM     15  C   UNL     1      -5.182   3.027  26.323  0.00  0.00    +0.185 C 
ENDROOT
BRANCH  12   6
ATOM      6  N   UNL     1      -1.338   4.863  24.507  0.00  0.00    -0.306 N 
ATOM      8  N   UNL     1      -0.924   2.588  24.912  0.00  0.00    -0.211 NA
ATOM      9  N   UNL     1       0.537   3.880  23.495  0.00  0.00    -0.223 NA
ATOM     16  C   UNL     1      -0.551   3.743  24.298  0.00  0.00    +0.216 A 
ATOM     19  C   UNL     1      -0.134   1.517  24.685  0.00  0.00    +0.111 A 
ATOM     21  C   UNL     1       1.282   2.769  23.312  0.00  0.00    +0.116 A 
ATOM     22  C   UNL     1       0.991   1.549  23.887  0.00  0.00    +0.051 A 
ATOM     29  H   UNL     1      -1.080   5.704  24.003  0.00  0.00    +0.149 HD
BRANCH  19  24
ATOM      5  O   UNL     1      -0.179  -0.844  24.739  0.00  0.00    -0.461 OA
ATOM     24  C   UNL     1      -0.553   0.311  25.347  0.00  0.00    +0.153 A 
ATOM     26  C   UNL     1      -1.267   0.049  26.491  0.00  0.00    +0.051 A 
ATOM     27  C   UNL     1      -1.339  -1.361  26.593  0.00  0.00    +0.042 A 
ATOM     28  C   UNL     1      -0.662  -1.858  25.504  0.00  0.00    +0.196 A 
ENDBRANCH  19  24
ENDBRANCH  12   6
BRANCH  13   7
ATOM      4  O   UNL     1      -3.427   1.057  23.129  0.00  0.00    -0.270 OA
ATOM      7  N   UNL     1      -4.897   1.056  24.905  0.00  0.00    -0.303 N 
ATOM     17  C   UNL     1      -4.047   0.438  23.993  0.00  0.00    +0.251 C 
ATOM     30  H   UNL     1      -5.431   0.505  25.568  0.00  0.00    +0.149 HD
BRANCH  17  18
ATOM      1  S   UNL     1      -3.842  -1.696  25.651  0.00  0.00    -0.092 S 
ATOM     18  C   UNL     1      -3.953  -1.025  24.102  0.00  0.00    +0.074 A 
ATOM     20  C   UNL     1      -3.942  -1.924  23.094  0.00  0.00    +0.021 A 
ATOM     23  C   UNL     1      -3.839  -3.250  23.605  0.00  0.00    +0.008 A 
ATOM     25  C   UNL     1      -3.776  -3.271  24.981  0.00  0.00    +0.046 A 
ENDBRANCH  17  18
ENDBRANCH  13   7
TORSDOF 4
ENDMDL
MODEL 10
REMARK VINA RESULT:       2.7      2.600      5.486
REMARK  Name = 11911999
REMARK  4 active torsions:
REMARK  status: ('A' for Active; 'I' for Inactive)
REMARK    1  A    between atoms: N_6  and  C_12
REMARK    2  A    between atoms: N_7  and  C_13
REMARK    3  A    between atoms: C_17  and  C_18
REMARK    4  A    between atoms: C_19  and  C_24
REMARK                            x       y       z     vdW  Elec       q    Type
REMARK                         _______ _______ _______ _____ _____    ______ ____
ROOT
ATOM      2  O   UNL     1      -0.967  -1.675  25.968  0.00  0.00    -0.370 OA
ATOM      3  O   UNL     1      -3.304  -1.451  23.914  0.00  0.00    -0.370 OA
ATOM     10  C   UNL     1      -1.927  -1.043  23.885  0.00  0.00    +0.171 C 
ATOM     11  C   UNL     1      -1.568  -0.567  25.279  0.00  0.00    +0.171 C 
ATOM     12  C   UNL     1      -1.031  -2.238  23.661  0.00  0.00    +0.130 C 
ATOM     13  C   UNL     1      -2.901  -0.221  25.904  0.00  0.00    +0.130 C 
ATOM     14  C   UNL     1      -0.848  -2.784  25.065  0.00  0.00    +0.185 C 
ATOM     15  C   UNL     1      -3.842  -1.197  25.220  0.00  0.00    +0.185 C 
ENDROOT
BRANCH  12   6
ATOM      6  N   UNL     1       0.241  -1.810  23.122  0.00  0.00    -0.306 N 
ATOM      8  N   UNL     1      -0.013   0.368  23.963  0.00  0.00    -0.211 NA
ATOM      9  N   UNL     1       1.953  -0.257  22.715  0.00  0.00    -0.223 NA
ATOM     16  C   UNL     1       0.742  -0.528  23.271  0.00  0.00    +0.216 A 
ATOM     19  C   UNL     1       0.507   1.606  24.089  0.00  0.00    +0.111 A 
ATOM     21  C   UNL     1       2.412   1.001  22.879  0.00  0.00    +0.116 A 
ATOM     22  C   UNL     1       1.727   1.983  23.564  0.00  0.00    +0.051 A 
ATOM     29  H   UNL     1       0.835  -2.482  22.650  0.00  0.00    +0.149 HD
BRANCH  19  24
ATOM      5  O   UNL     1      -0.500   2.226  26.133  0.00  0.00    -0.461 OA
ATOM     24  C   UNL     1      -0.313   2.531  24.824  0.00  0.00    +0.153 A 
ATOM     26  C   UNL     1      -0.973   3.690  24.496  0.00  0.00    +0.051 A 
ATOM     27  C   UNL     1      -1.609   4.127  25.681  0.00  0.00    +0.042 A 
ATOM     28  C   UNL     1      -1.291   3.203  26.649  0.00  0.00    +0.196 A 
ENDBRANCH  19  24
ENDBRANCH  12   6
BRANCH  13   7
ATOM      4  O   UNL     1      -5.470   0.685  25.108  0.00  0.00    -0.270 OA
ATOM      7  N   UNL     1      -3.271   1.146  25.624  0.00  0.00    -0.303 N 
ATOM     17  C   UNL     1      -4.559   1.502  25.238  0.00  0.00    +0.251 C 
ATOM     30  H   UNL     1      -2.535   1.841  25.668  0.00  0.00    +0.149 HD
BRANCH  17  18
ATOM      1  S   UNL     1      -4.091   3.565  23.544  0.00  0.00    -0.092 S 
ATOM     18  C   UNL     1      -4.767   2.930  24.958  0.00  0.00    +0.074 A 
ATOM     20  C   UNL     1      -5.447   3.823  25.710  0.00  0.00    +0.021 A 
ATOM     23  C   UNL     1      -5.424   5.112  25.103  0.00  0.00    +0.008 A 
ATOM     25  C   UNL     1      -4.719   5.113  23.919  0.00  0.00    +0.046 A 
ENDBRANCH  17  18
ENDBRANCH  13   7
TORSDOF 4
ENDMDL
