MODEL 1
REMARK VINA RESULT:      -3.6      0.000      0.000
REMARK  Name = 75367021
REMARK  8 active torsions:
REMARK  status: ('A' for Active; 'I' for Inactive)
REMARK    1  A    between atoms: O_3  and  C_12
REMARK    2  A    between atoms: N_7  and  C_16
REMARK    3  A    between atoms: N_8  and  C_19
REMARK    4  A    between atoms: C_10  and  C_15
REMARK    5  A    between atoms: C_11  and  C_16
REMARK    6  A    between atoms: C_15  and  C_17
REMARK    7  A    between atoms: C_19  and  C_20
REMARK    8  A    between atoms: C_25  and  C_26
REMARK                            x       y       z     vdW  Elec       q    Type
REMARK                         _______ _______ _______ _____ _____    ______ ____
ROOT
ATOM      2  O   UNL     1      -2.569   2.934  25.997  0.00  0.00    -0.369 OA
ATOM     10  C   UNL     1      -1.433   3.187  25.166  0.00  0.00    +0.125 C 
ATOM     11  C   UNL     1      -3.768   3.619  25.617  0.00  0.00    +0.164 C 
ATOM     12  C   UNL     1      -3.543   5.134  25.534  0.00  0.00    +0.145 C 
ATOM     13  C   UNL     1      -1.100   4.678  25.149  0.00  0.00    +0.034 C 
ATOM     14  C   UNL     1      -2.311   5.495  24.707  0.00  0.00    +0.036 C 
ENDROOT
BRANCH  12   3
ATOM      3  O   UNL     1      -3.345   5.645  26.854  0.00  0.00    -0.389 OA
ATOM     32  H   UNL     1      -3.941   6.405  26.968  0.00  0.00    +0.210 HD
ENDBRANCH  12   3
BRANCH  10  15
ATOM     15  C   UNL     1      -0.268   2.377  25.722  0.00  0.00    +0.090 C 
BRANCH  15  17
ATOM      4  O   UNL     1       0.445  -0.428  23.576  0.00  0.00    -0.358 OA
ATOM      9  N   UNL     1      -0.279   0.196  24.585  0.00  0.00    -0.083 NA
ATOM     17  C   UNL     1       0.271   1.407  24.707  0.00  0.00    +0.086 A 
ATOM     18  C   UNL     1       1.338   1.600  23.811  0.00  0.00    +0.072 A 
ATOM     20  C   UNL     1       1.405   0.418  23.124  0.00  0.00    +0.151 A 
BRANCH  20  19
ATOM     19  C   UNL     1       2.268  -0.085  22.048  0.00  0.00    +0.161 C 
BRANCH  19   8
ATOM      5  O   UNL     1       5.679  -0.449  24.466  0.00  0.00    -0.377 OA
ATOM      8  N   UNL     1       3.628  -0.386  22.494  0.00  0.00    -0.291 NA
ATOM     21  C   UNL     1       3.612  -1.366  23.589  0.00  0.00    +0.113 C 
ATOM     22  C   UNL     1       4.318   0.838  22.926  0.00  0.00    +0.113 C 
ATOM     23  C   UNL     1       5.039  -1.655  24.048  0.00  0.00    +0.175 C 
ATOM     24  C   UNL     1       5.728   0.498  23.398  0.00  0.00    +0.175 C 
ENDBRANCH  19   8
ENDBRANCH  20  19
ENDBRANCH  15  17
ENDBRANCH  10  15
BRANCH  11  16
ATOM     16  C   UNL     1      -4.355   3.032  24.335  0.00  0.00    +0.138 C 
BRANCH  16   7
ATOM      6  O   UNL     1      -5.412   0.758  25.734  0.00  0.00    -0.270 OA
ATOM      7  N   UNL     1      -3.960   1.666  24.168  0.00  0.00    -0.309 N 
ATOM     25  C   UNL     1      -4.528   0.621  24.892  0.00  0.00    +0.244 C 
ATOM     33  H   UNL     1      -3.261   1.478  23.457  0.00  0.00    +0.149 HD
BRANCH  25  26
ATOM      1  F   UNL     1      -1.071  -2.760  25.416  0.00  0.00    -0.205 F 
ATOM     26  C   UNL     1      -3.989  -0.738  24.622  0.00  0.00    +0.039 A 
ATOM     27  C   UNL     1      -2.758  -1.118  25.157  0.00  0.00    +0.051 A 
ATOM     28  C   UNL     1      -4.712  -1.630  23.832  0.00  0.00    +0.013 A 
ATOM     29  C   UNL     1      -2.251  -2.393  24.901  0.00  0.00    +0.124 A 
ATOM     30  C   UNL     1      -4.206  -2.905  23.577  0.00  0.00    +0.004 A 
ATOM     31  C   UNL     1      -2.975  -3.287  24.112  0.00  0.00    +0.038 A 
ENDBRANCH  25  26
ENDBRANCH  16   7
ENDBRANCH  11  16
TORSDOF 8
ENDMDL
MODEL 2
REMARK VINA RESULT:      -3.6      2.186      6.942
REMARK  Name = 75367021
REMARK  8 active torsions:
REMARK  status: ('A' for Active; 'I' for Inactive)
REMARK    1  A    between atoms: O_3  and  C_12
REMARK    2  A    between atoms: N_7  and  C_16
REMARK    3  A    between atoms: N_8  and  C_19
REMARK    4  A    between atoms: C_10  and  C_15
REMARK    5  A    between atoms: C_11  and  C_16
REMARK    6  A    between atoms: C_15  and  C_17
REMARK    7  A    between atoms: C_19  and  C_20
REMARK    8  A    between atoms: C_25  and  C_26
REMARK                            x       y       z     vdW  Elec       q    Type
REMARK                         _______ _______ _______ _____ _____    ______ ____
ROOT
ATOM      2  O   UNL     1      -2.966  -0.384  24.989  0.00  0.00    -0.369 OA
ATOM     10  C   UNL     1      -4.030  -0.668  24.076  0.00  0.00    +0.125 C 
ATOM     11  C   UNL     1      -1.714  -1.006  24.678  0.00  0.00    +0.164 C 
ATOM     12  C   UNL     1      -1.862  -2.527  24.548  0.00  0.00    +0.145 C 
ATOM     13  C   UNL     1      -4.292  -2.171  24.004  0.00  0.00    +0.034 C 
ATOM     14  C   UNL     1      -3.017  -2.922  23.630  0.00  0.00    +0.036 C 
ENDROOT
BRANCH  12   3
ATOM      3  O   UNL     1      -2.126  -3.078  25.841  0.00  0.00    -0.389 OA
ATOM     32  H   UNL     1      -3.043  -3.401  25.841  0.00  0.00    +0.210 HD
ENDBRANCH  12   3
BRANCH  10  15
ATOM     15  C   UNL     1      -5.266   0.076  24.567  0.00  0.00    +0.090 C 
BRANCH  15  17
ATOM      4  O   UNL     1      -5.215   3.363  26.041  0.00  0.00    -0.358 OA
ATOM      9  N   UNL     1      -5.855   2.179  25.698  0.00  0.00    -0.083 NA
ATOM     17  C   UNL     1      -4.923   1.447  25.083  0.00  0.00    +0.086 A 
ATOM     18  C   UNL     1      -3.687   2.113  25.008  0.00  0.00    +0.072 A 
ATOM     20  C   UNL     1      -3.924   3.311  25.625  0.00  0.00    +0.151 A 
BRANCH  20  19
ATOM     19  C   UNL     1      -3.096   4.490  25.909  0.00  0.00    +0.161 C 
BRANCH  19   8
ATOM      5  O   UNL     1       0.529   2.721  24.750  0.00  0.00    -0.377 OA
ATOM      8  N   UNL     1      -1.666   4.247  25.726  0.00  0.00    -0.291 NA
ATOM     21  C   UNL     1      -1.319   4.227  24.298  0.00  0.00    +0.113 C 
ATOM     22  C   UNL     1      -1.267   2.982  26.359  0.00  0.00    +0.113 C 
ATOM     23  C   UNL     1       0.174   3.959  24.132  0.00  0.00    +0.175 C 
ATOM     24  C   UNL     1       0.224   2.744  26.145  0.00  0.00    +0.175 C 
ENDBRANCH  19   8
ENDBRANCH  20  19
ENDBRANCH  15  17
ENDBRANCH  10  15
BRANCH  11  16
ATOM     16  C   UNL     1      -1.068  -0.362  23.453  0.00  0.00    +0.138 C 
BRANCH  16   7
ATOM      6  O   UNL     1       0.938  -0.492  21.402  0.00  0.00    -0.270 OA
ATOM      7  N   UNL     1       0.345  -0.223  23.630  0.00  0.00    -0.309 N 
ATOM     25  C   UNL     1       1.251  -0.300  22.574  0.00  0.00    +0.244 C 
ATOM     33  H   UNL     1       0.668  -0.022  24.570  0.00  0.00    +0.149 HD
BRANCH  25  26
ATOM      1  F   UNL     1       5.394  -2.154  24.320  0.00  0.00    -0.205 F 
ATOM     26  C   UNL     1       2.688  -0.162  22.928  0.00  0.00    +0.039 A 
ATOM     27  C   UNL     1       3.380  -1.245  23.469  0.00  0.00    +0.051 A 
ATOM     28  C   UNL     1       3.342   1.052  22.719  0.00  0.00    +0.013 A 
ATOM     29  C   UNL     1       4.728  -1.114  23.802  0.00  0.00    +0.124 A 
ATOM     30  C   UNL     1       4.691   1.182  23.051  0.00  0.00    +0.004 A 
ATOM     31  C   UNL     1       5.384   0.100  23.593  0.00  0.00    +0.038 A 
ENDBRANCH  25  26
ENDBRANCH  16   7
ENDBRANCH  11  16
TORSDOF 8
ENDMDL
MODEL 3
REMARK VINA RESULT:      -2.1      2.256      4.860
REMARK  Name = 75367021
REMARK  8 active torsions:
REMARK  status: ('A' for Active; 'I' for Inactive)
REMARK    1  A    between atoms: O_3  and  C_12
REMARK    2  A    between atoms: N_7  and  C_16
REMARK    3  A    between atoms: N_8  and  C_19
REMARK    4  A    between atoms: C_10  and  C_15
REMARK    5  A    between atoms: C_11  and  C_16
REMARK    6  A    between atoms: C_15  and  C_17
REMARK    7  A    between atoms: C_19  and  C_20
REMARK    8  A    between atoms: C_25  and  C_26
REMARK                            x       y       z     vdW  Elec       q    Type
REMARK                         _______ _______ _______ _____ _____    ______ ____
ROOT
ATOM      2  O   UNL     1      -2.417  -0.728  24.205  0.00  0.00    -0.369 OA
ATOM     10  C   UNL     1      -2.417  -0.825  25.632  0.00  0.00    +0.125 C 
ATOM     11  C   UNL     1      -3.583  -1.253  23.558  0.00  0.00    +0.164 C 
ATOM     12  C   UNL     1      -3.833  -2.713  23.955  0.00  0.00    +0.145 C 
ATOM     13  C   UNL     1      -2.546  -2.282  26.073  0.00  0.00    +0.034 C 
ATOM     14  C   UNL     1      -3.794  -2.919  25.468  0.00  0.00    +0.036 C 
ENDROOT
BRANCH  12   3
ATOM      3  O   UNL     1      -2.812  -3.529  23.378  0.00  0.00    -0.389 OA
ATOM     32  H   UNL     1      -3.067  -4.458  23.512  0.00  0.00    +0.210 HD
ENDBRANCH  12   3
BRANCH  10  15
ATOM     15  C   UNL     1      -1.111  -0.219  26.132  0.00  0.00    +0.090 C 
BRANCH  15  17
ATOM      4  O   UNL     1       0.915   1.449  23.663  0.00  0.00    -0.358 OA
ATOM      9  N   UNL     1       0.061   1.451  24.759  0.00  0.00    -0.083 NA
ATOM     17  C   UNL     1      -0.203   0.164  24.995  0.00  0.00    +0.086 A 
ATOM     18  C   UNL     1       0.449  -0.689  24.087  0.00  0.00    +0.072 A 
ATOM     20  C   UNL     1       1.139   0.168  23.272  0.00  0.00    +0.151 A 
BRANCH  20  19
ATOM     19  C   UNL     1       2.027  -0.020  22.118  0.00  0.00    +0.161 C 
BRANCH  19   8
ATOM      5  O   UNL     1       5.546  -0.349  24.380  0.00  0.00    -0.377 OA
ATOM      8  N   UNL     1       3.414  -0.282  22.496  0.00  0.00    -0.291 NA
ATOM     21  C   UNL     1       3.484  -1.312  23.541  0.00  0.00    +0.113 C 
ATOM     22  C   UNL     1       4.071   0.949  22.958  0.00  0.00    +0.113 C 
ATOM     23  C   UNL     1       4.939  -1.560  23.929  0.00  0.00    +0.175 C 
ATOM     24  C   UNL     1       5.512   0.648  23.358  0.00  0.00    +0.175 C 
ENDBRANCH  19   8
ENDBRANCH  20  19
ENDBRANCH  15  17
ENDBRANCH  10  15
BRANCH  11  16
ATOM     16  C   UNL     1      -4.795  -0.354  23.795  0.00  0.00    +0.138 C 
BRANCH  16   7
ATOM      6  O   UNL     1      -3.242   1.793  22.688  0.00  0.00    -0.270 OA
ATOM      7  N   UNL     1      -4.416   0.857  24.457  0.00  0.00    -0.309 N 
ATOM     25  C   UNL     1      -3.657   1.850  23.842  0.00  0.00    +0.244 C 
ATOM     33  H   UNL     1      -4.761   0.986  25.403  0.00  0.00    +0.149 HD
BRANCH  25  26
ATOM      1  F   UNL     1      -0.688   5.520  25.012  0.00  0.00    -0.205 F 
ATOM     26  C   UNL     1      -3.323   3.035  24.675  0.00  0.00    +0.039 A 
ATOM     27  C   UNL     1      -2.138   3.735  24.448  0.00  0.00    +0.051 A 
ATOM     28  C   UNL     1      -4.194   3.445  25.683  0.00  0.00    +0.013 A 
ATOM     29  C   UNL     1      -1.825   4.846  25.230  0.00  0.00    +0.124 A 
ATOM     30  C   UNL     1      -3.881   4.558  26.465  0.00  0.00    +0.004 A 
ATOM     31  C   UNL     1      -2.697   5.258  26.239  0.00  0.00    +0.038 A 
ENDBRANCH  25  26
ENDBRANCH  16   7
ENDBRANCH  11  16
TORSDOF 8
ENDMDL
MODEL 4
REMARK VINA RESULT:      -1.0      1.289      1.696
REMARK  Name = 75367021
REMARK  8 active torsions:
REMARK  status: ('A' for Active; 'I' for Inactive)
REMARK    1  A    between atoms: O_3  and  C_12
REMARK    2  A    between atoms: N_7  and  C_16
REMARK    3  A    between atoms: N_8  and  C_19
REMARK    4  A    between atoms: C_10  and  C_15
REMARK    5  A    between atoms: C_11  and  C_16
REMARK    6  A    between atoms: C_15  and  C_17
REMARK    7  A    between atoms: C_19  and  C_20
REMARK    8  A    between atoms: C_25  and  C_26
REMARK                            x       y       z     vdW  Elec       q    Type
REMARK                         _______ _______ _______ _____ _____    ______ ____
ROOT
ATOM      2  O   UNL     1      -3.746   3.108  25.911  0.00  0.00    -0.369 OA
ATOM     10  C   UNL     1      -2.759   3.749  25.098  0.00  0.00    +0.125 C 
ATOM     11  C   UNL     1      -5.089   3.193  25.420  0.00  0.00    +0.164 C 
ATOM     12  C   UNL     1      -5.509   4.650  25.190  0.00  0.00    +0.145 C 
ATOM     13  C   UNL     1      -3.076   5.236  24.940  0.00  0.00    +0.034 C 
ATOM     14  C   UNL     1      -4.480   5.430  24.374  0.00  0.00    +0.036 C 
ENDROOT
BRANCH  12   3
ATOM      3  O   UNL     1      -5.640   5.298  26.457  0.00  0.00    -0.389 OA
ATOM     32  H   UNL     1      -6.470   5.805  26.444  0.00  0.00    +0.210 HD
ENDBRANCH  12   3
BRANCH  10  15
ATOM     15  C   UNL     1      -1.408   3.551  25.775  0.00  0.00    +0.090 C 
BRANCH  15  17
ATOM      4  O   UNL     1       0.105   0.402  24.894  0.00  0.00    -0.358 OA
ATOM      9  N   UNL     1      -0.708   1.194  25.694  0.00  0.00    -0.083 NA
ATOM     17  C   UNL     1      -0.638   2.415  25.158  0.00  0.00    +0.086 A 
ATOM     18  C   UNL     1       0.199   2.454  24.029  0.00  0.00    +0.072 A 
ATOM     20  C   UNL     1       0.640   1.164  23.905  0.00  0.00    +0.151 A 
BRANCH  20  19
ATOM     19  C   UNL     1       1.532   0.480  22.961  0.00  0.00    +0.161 C 
BRANCH  19   8
ATOM      5  O   UNL     1       5.606  -0.493  23.211  0.00  0.00    -0.377 OA
ATOM      8  N   UNL     1       2.879   0.274  23.488  0.00  0.00    -0.291 NA
ATOM     21  C   UNL     1       3.850   1.125  22.785  0.00  0.00    +0.113 C 
ATOM     22  C   UNL     1       3.274  -1.138  23.374  0.00  0.00    +0.113 C 
ATOM     23  C   UNL     1       5.250   0.884  23.342  0.00  0.00    +0.175 C 
ATOM     24  C   UNL     1       4.687  -1.325  23.919  0.00  0.00    +0.175 C 
ENDBRANCH  19   8
ENDBRANCH  20  19
ENDBRANCH  15  17
ENDBRANCH  10  15
BRANCH  11  16
ATOM     16  C   UNL     1      -5.281   2.314  24.185  0.00  0.00    +0.138 C 
BRANCH  16   7
ATOM      6  O   UNL     1      -2.998   1.097  22.941  0.00  0.00    -0.270 OA
ATOM      7  N   UNL     1      -4.787   0.991  24.415  0.00  0.00    -0.309 N 
ATOM     25  C   UNL     1      -3.667   0.478  23.764  0.00  0.00    +0.244 C 
ATOM     33  H   UNL     1      -5.271   0.440  25.115  0.00  0.00    +0.149 HD
BRANCH  25  26
ATOM      1  F   UNL     1      -0.455  -2.806  25.359  0.00  0.00    -0.205 F 
ATOM     26  C   UNL     1      -3.298  -0.923  24.093  0.00  0.00    +0.039 A 
ATOM     27  C   UNL     1      -2.024  -1.212  24.581  0.00  0.00    +0.051 A 
ATOM     28  C   UNL     1      -4.225  -1.949  23.912  0.00  0.00    +0.013 A 
ATOM     29  C   UNL     1      -1.677  -2.528  24.889  0.00  0.00    +0.124 A 
ATOM     30  C   UNL     1      -3.879  -3.264  24.220  0.00  0.00    +0.004 A 
ATOM     31  C   UNL     1      -2.605  -3.555  24.709  0.00  0.00    +0.038 A 
ENDBRANCH  25  26
ENDBRANCH  16   7
ENDBRANCH  11  16
TORSDOF 8
ENDMDL
