MODEL 1
REMARK VINA RESULT:       4.6      0.000      0.000
REMARK  Name = 75537021
REMARK  3 active torsions:
REMARK  status: ('A' for Active; 'I' for Inactive)
REMARK    1  A    between atoms: N_3  and  C_8
REMARK    2  A    between atoms: N_6  and  C_20
REMARK    3  A    between atoms: C_20  and  C_21
REMARK                            x       y       z     vdW  Elec       q    Type
REMARK                         _______ _______ _______ _____ _____    ______ ____
ROOT
ATOM      1  O   UNL     1      -1.790  -8.492   9.224  0.00  0.00    -0.252 OA
ATOM      2  O   UNL     1      -8.507  -9.227  10.688  0.00  0.00    -0.253 OA
ATOM      3  N   UNL     1      -1.756  -8.994  11.528  0.00  0.00    -0.281 N 
ATOM      4  N   UNL     1      -3.729  -8.990  10.453  0.00  0.00    -0.278 N 
ATOM      5  N   UNL     1      -6.345  -8.728  11.358  0.00  0.00    -0.282 N 
ATOM      6  N   UNL     1      -7.885  -9.753  12.831  0.00  0.00    -0.295 N 
ATOM      7  C   UNL     1      -4.044  -9.448  11.797  0.00  0.00    +0.112 C 
ATOM      9  C   UNL     1      -2.743  -9.231  12.566  0.00  0.00    +0.133 C 
ATOM     12  C   UNL     1      -5.246  -8.685  12.344  0.00  0.00    +0.133 C 
ATOM     13  C   UNL     1      -2.354  -8.792  10.268  0.00  0.00    +0.305 C 
ATOM     14  C   UNL     1      -4.783  -8.889   9.457  0.00  0.00    +0.128 C 
ATOM     18  C   UNL     1      -5.992  -8.163  10.046  0.00  0.00    +0.128 C 
ATOM     19  C   UNL     1      -7.639  -9.234  11.567  0.00  0.00    +0.303 C 
ATOM     27  H   UNL     1      -7.161  -9.778  13.535  0.00  0.00    +0.151 HD
ENDROOT
BRANCH   3   8
ATOM      8  C   UNL     1      -0.352  -8.845  11.827  0.00  0.00    +0.078 C 
ATOM     10  C   UNL     1      -0.082  -7.481  12.469  0.00  0.00    +0.022 C 
ATOM     11  C   UNL     1       0.495  -9.044  10.567  0.00  0.00    +0.022 C 
ATOM     15  C   UNL     1       1.404  -7.275  12.748  0.00  0.00    +0.002 C 
ATOM     16  C   UNL     1       1.981  -8.837  10.851  0.00  0.00    +0.002 C 
ATOM     17  C   UNL     1       2.246  -7.478  11.492  0.00  0.00    +0.000 C 
ENDBRANCH   3   8
BRANCH   6  20
ATOM     20  C   UNL     1      -9.166 -10.314  13.196  0.00  0.00    +0.141 C 
BRANCH  20  21
ATOM     21  C   UNL     1      -9.306 -10.478  14.682  0.00  0.00    -0.030 A 
ATOM     22  C   UNL     1      -8.171 -10.627  15.478  0.00  0.00    +0.005 A 
ATOM     23  C   UNL     1     -10.573 -10.480  15.267  0.00  0.00    +0.005 A 
ATOM     24  C   UNL     1      -8.302 -10.779  16.859  0.00  0.00    +0.000 A 
ATOM     25  C   UNL     1     -10.704 -10.631  16.647  0.00  0.00    +0.000 A 
ATOM     26  C   UNL     1      -9.568 -10.781  17.443  0.00  0.00    +0.000 A 
ENDBRANCH  20  21
ENDBRANCH   6  20
TORSDOF 3
ENDMDL
MODEL 2
REMARK VINA RESULT:       5.6     14.995     18.313
REMARK  Name = 75537021
REMARK  3 active torsions:
REMARK  status: ('A' for Active; 'I' for Inactive)
REMARK    1  A    between atoms: N_3  and  C_8
REMARK    2  A    between atoms: N_6  and  C_20
REMARK    3  A    between atoms: C_20  and  C_21
REMARK                            x       y       z     vdW  Elec       q    Type
REMARK                         _______ _______ _______ _____ _____    ______ ____
ROOT
ATOM      1  O   UNL     1      -4.244  -0.630  24.358  0.00  0.00    -0.252 OA
ATOM      2  O   UNL     1       2.525  -1.058  23.023  0.00  0.00    -0.253 OA
ATOM      3  N   UNL     1      -3.617   1.637  24.186  0.00  0.00    -0.281 N 
ATOM      4  N   UNL     1      -2.067   0.055  23.802  0.00  0.00    -0.278 N 
ATOM      5  N   UNL     1       0.712   0.113  23.867  0.00  0.00    -0.282 N 
ATOM      6  N   UNL     1       2.545   1.230  22.877  0.00  0.00    -0.295 N 
ATOM      7  C   UNL     1      -1.395   1.308  23.499  0.00  0.00    +0.112 C 
ATOM      9  C   UNL     1      -2.382   2.372  23.975  0.00  0.00    +0.133 C 
ATOM     12  C   UNL     1      -0.030   1.351  24.179  0.00  0.00    +0.133 C 
ATOM     13  C   UNL     1      -3.415   0.242  24.139  0.00  0.00    +0.305 C 
ATOM     14  C   UNL     1      -1.360  -1.205  23.638  0.00  0.00    +0.128 C 
ATOM     18  C   UNL     1       0.021  -1.117  24.286  0.00  0.00    +0.128 C 
ATOM     19  C   UNL     1       1.967   0.022  23.243  0.00  0.00    +0.303 C 
ATOM     27  H   UNL     1       2.068   2.106  23.035  0.00  0.00    +0.151 HD
ENDROOT
BRANCH   3   8
ATOM      8  C   UNL     1      -4.848   2.298  24.543  0.00  0.00    +0.078 C 
ATOM     10  C   UNL     1      -4.589   3.769  24.880  0.00  0.00    +0.022 C 
ATOM     11  C   UNL     1      -5.534   1.574  25.705  0.00  0.00    +0.022 C 
ATOM     15  C   UNL     1      -5.868   4.481  25.313  0.00  0.00    +0.002 C 
ATOM     16  C   UNL     1      -6.813   2.289  26.136  0.00  0.00    +0.002 C 
ATOM     17  C   UNL     1      -6.552   3.756  26.468  0.00  0.00    +0.000 C 
ENDBRANCH   3   8
BRANCH   6  20
ATOM     20  C   UNL     1       3.831   1.300  22.219  0.00  0.00    +0.141 C 
BRANCH  20  21
ATOM     21  C   UNL     1       4.874   0.495  22.939  0.00  0.00    -0.030 A 
ATOM     22  C   UNL     1       5.813  -0.238  22.214  0.00  0.00    +0.005 A 
ATOM     23  C   UNL     1       4.904   0.482  24.334  0.00  0.00    +0.005 A 
ATOM     24  C   UNL     1       6.783  -0.985  22.884  0.00  0.00    +0.000 A 
ATOM     25  C   UNL     1       5.873  -0.266  25.003  0.00  0.00    +0.000 A 
ATOM     26  C   UNL     1       6.813  -0.999  24.278  0.00  0.00    +0.000 A 
ENDBRANCH  20  21
ENDBRANCH   6  20
TORSDOF 3
ENDMDL
MODEL 3
REMARK VINA RESULT:       7.8     15.139     18.044
REMARK  Name = 75537021
REMARK  3 active torsions:
REMARK  status: ('A' for Active; 'I' for Inactive)
REMARK    1  A    between atoms: N_3  and  C_8
REMARK    2  A    between atoms: N_6  and  C_20
REMARK    3  A    between atoms: C_20  and  C_21
REMARK                            x       y       z     vdW  Elec       q    Type
REMARK                         _______ _______ _______ _____ _____    ______ ____
ROOT
ATOM      1  O   UNL     1      -5.570  -0.100  24.789  0.00  0.00    -0.252 OA
ATOM      2  O   UNL     1       0.413  -3.546  25.139  0.00  0.00    -0.253 OA
ATOM      3  N   UNL     1      -3.980   1.609  24.458  0.00  0.00    -0.281 N 
ATOM      4  N   UNL     1      -3.261  -0.510  24.667  0.00  0.00    -0.278 N 
ATOM      5  N   UNL     1      -0.792  -1.580  25.369  0.00  0.00    -0.282 N 
ATOM      6  N   UNL     1       1.472  -1.564  24.687  0.00  0.00    -0.295 N 
ATOM      7  C   UNL     1      -2.064   0.256  24.359  0.00  0.00    +0.112 C 
ATOM      9  C   UNL     1      -2.531   1.707  24.441  0.00  0.00    +0.133 C 
ATOM     12  C   UNL     1      -0.941  -0.111  25.325  0.00  0.00    +0.133 C 
ATOM     13  C   UNL     1      -4.417   0.283  24.651  0.00  0.00    +0.305 C 
ATOM     14  C   UNL     1      -3.174  -1.950  24.847  0.00  0.00    +0.128 C 
ATOM     18  C   UNL     1      -2.013  -2.291  25.780  0.00  0.00    +0.128 C 
ATOM     19  C   UNL     1       0.368  -2.314  25.072  0.00  0.00    +0.303 C 
ATOM     27  H   UNL     1       1.418  -0.559  24.609  0.00  0.00    +0.151 HD
ENDROOT
BRANCH   3   8
ATOM      8  C   UNL     1      -4.826   2.778  24.424  0.00  0.00    +0.078 C 
ATOM     10  C   UNL     1      -3.986   4.041  24.218  0.00  0.00    +0.022 C 
ATOM     11  C   UNL     1      -5.670   2.872  25.698  0.00  0.00    +0.022 C 
ATOM     15  C   UNL     1      -4.850   5.299  24.232  0.00  0.00    +0.002 C 
ATOM     16  C   UNL     1      -6.533   4.132  25.707  0.00  0.00    +0.002 C 
ATOM     17  C   UNL     1      -5.694   5.389  25.500  0.00  0.00    +0.000 C 
ENDBRANCH   3   8
BRANCH   6  20
ATOM     20  C   UNL     1       2.736  -2.176  24.345  0.00  0.00    +0.141 C 
BRANCH  20  21
ATOM     21  C   UNL     1       3.730  -1.170  23.840  0.00  0.00    -0.030 A 
ATOM     22  C   UNL     1       5.079  -1.296  24.170  0.00  0.00    +0.005 A 
ATOM     23  C   UNL     1       3.302  -0.109  23.041  0.00  0.00    +0.005 A 
ATOM     24  C   UNL     1       6.002  -0.361  23.700  0.00  0.00    +0.000 A 
ATOM     25  C   UNL     1       4.225   0.825  22.572  0.00  0.00    +0.000 A 
ATOM     26  C   UNL     1       5.575   0.700  22.901  0.00  0.00    +0.000 A 
ENDBRANCH  20  21
ENDBRANCH   6  20
TORSDOF 3
ENDMDL
MODEL 4
REMARK VINA RESULT:       8.4     15.141     16.413
REMARK  Name = 75537021
REMARK  3 active torsions:
REMARK  status: ('A' for Active; 'I' for Inactive)
REMARK    1  A    between atoms: N_3  and  C_8
REMARK    2  A    between atoms: N_6  and  C_20
REMARK    3  A    between atoms: C_20  and  C_21
REMARK                            x       y       z     vdW  Elec       q    Type
REMARK                         _______ _______ _______ _____ _____    ______ ____
ROOT
ATOM      1  O   UNL     1       1.912  -2.668  24.971  0.00  0.00    -0.252 OA
ATOM      2  O   UNL     1      -4.741  -0.852  25.450  0.00  0.00    -0.253 OA
ATOM      3  N   UNL     1       1.827  -0.706  23.666  0.00  0.00    -0.281 N 
ATOM      4  N   UNL     1      -0.035  -1.377  24.730  0.00  0.00    -0.278 N 
ATOM      5  N   UNL     1      -2.728  -0.829  24.303  0.00  0.00    -0.282 N 
ATOM      6  N   UNL     1      -4.230   0.992  24.187  0.00  0.00    -0.295 N 
ATOM      7  C   UNL     1      -0.394  -0.101  24.133  0.00  0.00    +0.112 C 
ATOM      9  C   UNL     1       0.799   0.227  23.239  0.00  0.00    +0.133 C 
ATOM     12  C   UNL     1      -1.728  -0.218  23.403  0.00  0.00    +0.133 C 
ATOM     13  C   UNL     1       1.311  -1.704  24.518  0.00  0.00    +0.305 C 
ATOM     14  C   UNL     1      -1.009  -2.102  25.531  0.00  0.00    +0.128 C 
ATOM     18  C   UNL     1      -2.348  -2.162  24.798  0.00  0.00    +0.128 C 
ATOM     19  C   UNL     1      -3.954  -0.270  24.696  0.00  0.00    +0.303 C 
ATOM     27  H   UNL     1      -3.569   1.471  23.594  0.00  0.00    +0.151 HD
ENDROOT
BRANCH   3   8
ATOM      8  C   UNL     1       3.168  -0.660  23.138  0.00  0.00    +0.078 C 
ATOM     10  C   UNL     1       4.130  -1.428  24.049  0.00  0.00    +0.022 C 
ATOM     11  C   UNL     1       3.625   0.788  22.943  0.00  0.00    +0.022 C 
ATOM     15  C   UNL     1       5.567  -1.352  23.542  0.00  0.00    +0.002 C 
ATOM     16  C   UNL     1       5.063   0.860  22.435  0.00  0.00    +0.002 C 
ATOM     17  C   UNL     1       6.018   0.092  23.343  0.00  0.00    +0.000 C 
ENDBRANCH   3   8
BRANCH   6  20
ATOM     20  C   UNL     1      -5.450   1.700  24.506  0.00  0.00    +0.141 C 
BRANCH  20  21
ATOM     21  C   UNL     1      -5.177   3.030  25.148  0.00  0.00    -0.030 A 
ATOM     22  C   UNL     1      -6.213   3.949  25.317  0.00  0.00    +0.005 A 
ATOM     23  C   UNL     1      -3.887   3.346  25.575  0.00  0.00    +0.005 A 
ATOM     24  C   UNL     1      -5.958   5.184  25.913  0.00  0.00    +0.000 A 
ATOM     25  C   UNL     1      -3.633   4.581  26.170  0.00  0.00    +0.000 A 
ATOM     26  C   UNL     1      -4.669   5.500  26.340  0.00  0.00    +0.000 A 
ENDBRANCH  20  21
ENDBRANCH   6  20
TORSDOF 3
ENDMDL
