MODEL 1
REMARK VINA RESULT:       2.3      0.000      0.000
REMARK  Name = 11912816
REMARK  6 active torsions:
REMARK  status: ('A' for Active; 'I' for Inactive)
REMARK    1  A    between atoms: O_5  and  C_30
REMARK    2  A    between atoms: O_5  and  C_31
REMARK    3  A    between atoms: N_6  and  C_12
REMARK    4  A    between atoms: N_7  and  C_13
REMARK    5  A    between atoms: C_17  and  C_18
REMARK    6  A    between atoms: C_19  and  C_23
REMARK                            x       y       z     vdW  Elec       q    Type
REMARK                         _______ _______ _______ _____ _____    ______ ____
ROOT
ATOM      1  O   UNL     1      -5.264   2.837  25.953  0.00  0.00    -0.370 OA
ATOM      2  O   UNL     1      -2.912   3.485  24.009  0.00  0.00    -0.370 OA
ATOM     10  C   UNL     1      -3.327   2.287  24.685  0.00  0.00    +0.171 C 
ATOM     11  C   UNL     1      -3.837   2.696  26.053  0.00  0.00    +0.171 C 
ATOM     12  C   UNL     1      -4.537   1.694  24.002  0.00  0.00    +0.130 C 
ATOM     13  C   UNL     1      -3.192   4.041  26.299  0.00  0.00    +0.130 C 
ATOM     14  C   UNL     1      -5.685   2.460  24.635  0.00  0.00    +0.185 C 
ATOM     15  C   UNL     1      -3.069   4.604  24.895  0.00  0.00    +0.185 C 
ENDROOT
BRANCH  12   6
ATOM      6  N   UNL     1      -4.641   0.286  24.316  0.00  0.00    -0.306 N 
ATOM      8  N   UNL     1      -2.337  -0.060  24.033  0.00  0.00    -0.214 NA
ATOM      9  N   UNL     1      -3.796  -1.878  24.645  0.00  0.00    -0.223 NA
ATOM     16  C   UNL     1      -3.559  -0.577  24.332  0.00  0.00    +0.216 A 
ATOM     19  C   UNL     1      -1.306  -0.928  24.058  0.00  0.00    +0.076 A 
ATOM     21  C   UNL     1      -2.718  -2.691  24.651  0.00  0.00    +0.116 A 
ATOM     22  C   UNL     1      -1.438  -2.268  24.363  0.00  0.00    +0.048 A 
ATOM     32  H   UNL     1      -5.538  -0.098  24.591  0.00  0.00    +0.149 HD
BRANCH  19  23
ATOM     23  C   UNL     1      -0.018  -0.359  23.739  0.00  0.00    +0.001 A 
ATOM     26  C   UNL     1       0.969  -1.149  23.144  0.00  0.00    +0.013 A 
ATOM     27  C   UNL     1       0.245   0.982  24.023  0.00  0.00    +0.013 A 
ATOM     28  C   UNL     1       2.214  -0.599  22.837  0.00  0.00    +0.046 A 
ATOM     29  C   UNL     1       1.490   1.532  23.716  0.00  0.00    +0.046 A 
ATOM     30  C   UNL     1       2.474   0.742  23.123  0.00  0.00    +0.120 A 
BRANCH  30   5
ATOM      5  O   UNL     1       3.688   1.278  22.824  0.00  0.00    -0.495 OA
ATOM     31  C   UNL     1       4.840   0.514  23.176  0.00  0.00    +0.277 C 
ENDBRANCH  30   5
ENDBRANCH  19  23
ENDBRANCH  12   6
BRANCH  13   7
ATOM      3  O   UNL     1      -1.599   1.714  26.259  0.00  0.00    -0.267 OA
ATOM      7  N   UNL     1      -1.897   3.893  26.919  0.00  0.00    -0.301 N 
ATOM     17  C   UNL     1      -1.171   2.705  26.853  0.00  0.00    +0.280 C 
ATOM     33  H   UNL     1      -1.482   4.702  27.376  0.00  0.00    +0.150 HD
BRANCH  17  18
ATOM      4  O   UNL     1       0.163   2.407  28.806  0.00  0.00    -0.458 OA
ATOM     18  C   UNL     1       0.146   2.722  27.505  0.00  0.00    +0.189 A 
ATOM     20  C   UNL     1       1.359   3.006  27.000  0.00  0.00    +0.054 A 
ATOM     24  C   UNL     1       2.246   2.859  28.093  0.00  0.00    +0.042 A 
ATOM     25  C   UNL     1       1.470   2.492  29.168  0.00  0.00    +0.196 A 
ENDBRANCH  17  18
ENDBRANCH  13   7
TORSDOF 5
ENDMDL
MODEL 2
REMARK VINA RESULT:       3.8      1.703      5.102
REMARK  Name = 11912816
REMARK  6 active torsions:
REMARK  status: ('A' for Active; 'I' for Inactive)
REMARK    1  A    between atoms: O_5  and  C_30
REMARK    2  A    between atoms: O_5  and  C_31
REMARK    3  A    between atoms: N_6  and  C_12
REMARK    4  A    between atoms: N_7  and  C_13
REMARK    5  A    between atoms: C_17  and  C_18
REMARK    6  A    between atoms: C_19  and  C_23
REMARK                            x       y       z     vdW  Elec       q    Type
REMARK                         _______ _______ _______ _____ _____    ______ ____
ROOT
ATOM      1  O   UNL     1      -1.390   1.160  23.428  0.00  0.00    -0.370 OA
ATOM      2  O   UNL     1       1.720   1.000  23.236  0.00  0.00    -0.370 OA
ATOM     10  C   UNL     1       0.723   0.127  23.791  0.00  0.00    +0.171 C 
ATOM     11  C   UNL     1      -0.350   1.003  24.408  0.00  0.00    +0.171 C 
ATOM     12  C   UNL     1       0.005  -0.615  22.688  0.00  0.00    +0.130 C 
ATOM     13  C   UNL     1       0.347   2.322  24.650  0.00  0.00    +0.130 C 
ATOM     14  C   UNL     1      -1.074   0.368  22.274  0.00  0.00    +0.185 C 
ATOM     15  C   UNL     1       1.368   2.361  23.527  0.00  0.00    +0.185 C 
ENDROOT
BRANCH  12   6
ATOM      6  N   UNL     1      -0.593  -1.823  23.214  0.00  0.00    -0.306 N 
ATOM      8  N   UNL     1      -2.391  -0.651  24.162  0.00  0.00    -0.214 NA
ATOM      9  N   UNL     1      -2.225  -3.046  24.374  0.00  0.00    -0.223 NA
ATOM     16  C   UNL     1      -1.772  -1.840  23.938  0.00  0.00    +0.216 A 
ATOM     19  C   UNL     1      -3.538  -0.705  24.871  0.00  0.00    +0.076 A 
ATOM     21  C   UNL     1      -3.378  -3.025  25.077  0.00  0.00    +0.116 A 
ATOM     22  C   UNL     1      -4.084  -1.875  25.358  0.00  0.00    +0.048 A 
ATOM     32  H   UNL     1      -0.168  -2.720  23.009  0.00  0.00    +0.149 HD
BRANCH  19  23
ATOM     23  C   UNL     1      -4.179   0.568  25.095  0.00  0.00    +0.001 A 
ATOM     26  C   UNL     1      -3.435   1.749  25.032  0.00  0.00    +0.013 A 
ATOM     27  C   UNL     1      -5.545   0.625  25.378  0.00  0.00    +0.013 A 
ATOM     28  C   UNL     1      -4.055   2.980  25.250  0.00  0.00    +0.046 A 
ATOM     29  C   UNL     1      -6.165   1.855  25.596  0.00  0.00    +0.046 A 
ATOM     30  C   UNL     1      -5.421   3.032  25.533  0.00  0.00    +0.120 A 
BRANCH  30   5
ATOM      5  O   UNL     1      -6.025   4.232  25.746  0.00  0.00    -0.495 OA
ATOM     31  C   UNL     1      -5.530   5.349  25.011  0.00  0.00    +0.277 C 
ENDBRANCH  30   5
ENDBRANCH  19  23
ENDBRANCH  12   6
BRANCH  13   7
ATOM      3  O   UNL     1      -0.909   2.911  27.106  0.00  0.00    -0.267 OA
ATOM      7  N   UNL     1       0.989   2.345  25.942  0.00  0.00    -0.301 N 
ATOM     17  C   UNL     1       0.295   2.646  27.113  0.00  0.00    +0.280 C 
ATOM     33  H   UNL     1       1.970   2.083  26.003  0.00  0.00    +0.150 HD
BRANCH  17  18
ATOM      4  O   UNL     1       2.375   2.915  28.246  0.00  0.00    -0.458 OA
ATOM     18  C   UNL     1       1.080   2.596  28.354  0.00  0.00    +0.189 A 
ATOM     20  C   UNL     1       0.703   2.276  29.605  0.00  0.00    +0.054 A 
ATOM     24  C   UNL     1       1.882   2.404  30.378  0.00  0.00    +0.042 A 
ATOM     25  C   UNL     1       2.870   2.796  29.505  0.00  0.00    +0.196 A 
ENDBRANCH  17  18
ENDBRANCH  13   7
TORSDOF 5
ENDMDL
MODEL 3
REMARK VINA RESULT:       4.0      2.001      5.308
REMARK  Name = 11912816
REMARK  6 active torsions:
REMARK  status: ('A' for Active; 'I' for Inactive)
REMARK    1  A    between atoms: O_5  and  C_30
REMARK    2  A    between atoms: O_5  and  C_31
REMARK    3  A    between atoms: N_6  and  C_12
REMARK    4  A    between atoms: N_7  and  C_13
REMARK    5  A    between atoms: C_17  and  C_18
REMARK    6  A    between atoms: C_19  and  C_23
REMARK                            x       y       z     vdW  Elec       q    Type
REMARK                         _______ _______ _______ _____ _____    ______ ____
ROOT
ATOM      1  O   UNL     1      -3.494  -1.609  23.085  0.00  0.00    -0.370 OA
ATOM      2  O   UNL     1      -2.251  -1.520  25.946  0.00  0.00    -0.370 OA
ATOM     10  C   UNL     1      -2.743  -0.505  25.056  0.00  0.00    +0.171 C 
ATOM     11  C   UNL     1      -2.364  -0.920  23.647  0.00  0.00    +0.171 C 
ATOM     12  C   UNL     1      -4.254  -0.504  25.046  0.00  0.00    +0.130 C 
ATOM     13  C   UNL     1      -1.210  -1.876  23.843  0.00  0.00    +0.130 C 
ATOM     14  C   UNL     1      -4.581  -1.575  24.021  0.00  0.00    +0.185 C 
ATOM     15  C   UNL     1      -1.534  -2.505  25.186  0.00  0.00    +0.185 C 
ENDROOT
BRANCH  12   6
ATOM      6  N   UNL     1      -4.745   0.781  24.601  0.00  0.00    -0.306 N 
ATOM      8  N   UNL     1      -2.887   1.916  25.478  0.00  0.00    -0.214 NA
ATOM      9  N   UNL     1      -4.645   3.111  24.342  0.00  0.00    -0.223 NA
ATOM     16  C   UNL     1      -4.072   1.972  24.813  0.00  0.00    +0.216 A 
ATOM     19  C   UNL     1      -2.259   3.095  25.666  0.00  0.00    +0.076 A 
ATOM     21  C   UNL     1      -3.962   4.253  24.566  0.00  0.00    +0.116 A 
ATOM     22  C   UNL     1      -2.753   4.306  25.228  0.00  0.00    +0.048 A 
ATOM     32  H   UNL     1      -5.600   0.828  24.061  0.00  0.00    +0.149 HD
BRANCH  19  23
ATOM     23  C   UNL     1      -1.003   3.013  26.372  0.00  0.00    +0.001 A 
ATOM     26  C   UNL     1       0.202   3.144  25.677  0.00  0.00    +0.013 A 
ATOM     27  C   UNL     1      -0.986   2.803  27.752  0.00  0.00    +0.013 A 
ATOM     28  C   UNL     1       1.416   3.064  26.359  0.00  0.00    +0.046 A 
ATOM     29  C   UNL     1       0.228   2.723  28.434  0.00  0.00    +0.046 A 
ATOM     30  C   UNL     1       1.429   2.853  27.738  0.00  0.00    +0.120 A 
BRANCH  30   5
ATOM      5  O   UNL     1       2.612   2.774  28.404  0.00  0.00    -0.495 OA
ATOM     31  C   UNL     1       2.568   2.327  29.757  0.00  0.00    +0.277 C 
ENDBRANCH  30   5
ENDBRANCH  19  23
ENDBRANCH  12   6
BRANCH  13   7
ATOM      3  O   UNL     1       0.175  -0.840  21.615  0.00  0.00    -0.267 OA
ATOM      7  N   UNL     1       0.049  -1.173  23.884  0.00  0.00    -0.301 N 
ATOM     17  C   UNL     1       0.671  -0.690  22.733  0.00  0.00    +0.280 C 
ATOM     33  H   UNL     1       0.471  -0.981  24.790  0.00  0.00    +0.150 HD
BRANCH  17  18
ATOM      4  O   UNL     1       3.045  -0.711  22.945  0.00  0.00    -0.458 OA
ATOM     18  C   UNL     1       1.932   0.034  22.941  0.00  0.00    +0.189 A 
ATOM     20  C   UNL     1       2.158   1.346  23.132  0.00  0.00    +0.054 A 
ATOM     24  C   UNL     1       3.561   1.452  23.273  0.00  0.00    +0.042 A 
ATOM     25  C   UNL     1       4.056   0.174  23.151  0.00  0.00    +0.196 A 
ENDBRANCH  17  18
ENDBRANCH  13   7
TORSDOF 5
ENDMDL
MODEL 4
REMARK VINA RESULT:       4.1      2.835      5.084
REMARK  Name = 11912816
REMARK  6 active torsions:
REMARK  status: ('A' for Active; 'I' for Inactive)
REMARK    1  A    between atoms: O_5  and  C_30
REMARK    2  A    between atoms: O_5  and  C_31
REMARK    3  A    between atoms: N_6  and  C_12
REMARK    4  A    between atoms: N_7  and  C_13
REMARK    5  A    between atoms: C_17  and  C_18
REMARK    6  A    between atoms: C_19  and  C_23
REMARK                            x       y       z     vdW  Elec       q    Type
REMARK                         _______ _______ _______ _____ _____    ______ ____
ROOT
ATOM      1  O   UNL     1      -1.334   5.095  25.532  0.00  0.00    -0.370 OA
ATOM      2  O   UNL     1      -1.550   3.095  23.147  0.00  0.00    -0.370 OA
ATOM     10  C   UNL     1      -2.384   3.361  24.287  0.00  0.00    +0.171 C 
ATOM     11  C   UNL     1      -1.467   3.667  25.455  0.00  0.00    +0.171 C 
ATOM     12  C   UNL     1      -3.159   4.641  24.080  0.00  0.00    +0.130 C 
ATOM     13  C   UNL     1      -0.150   3.036  25.063  0.00  0.00    +0.130 C 
ATOM     14  C   UNL     1      -2.176   5.703  24.541  0.00  0.00    +0.185 C 
ATOM     15  C   UNL     1      -0.173   3.151  23.549  0.00  0.00    +0.185 C 
ENDROOT
BRANCH  12   6
ATOM      6  N   UNL     1      -4.335   4.649  24.923  0.00  0.00    -0.306 N 
ATOM      8  N   UNL     1      -4.423   2.305  25.008  0.00  0.00    -0.214 NA
ATOM      9  N   UNL     1      -6.055   3.648  26.166  0.00  0.00    -0.223 NA
ATOM     16  C   UNL     1      -4.956   3.499  25.379  0.00  0.00    +0.216 A 
ATOM     19  C   UNL     1      -5.053   1.206  25.471  0.00  0.00    +0.076 A 
ATOM     21  C   UNL     1      -6.635   2.507  26.593  0.00  0.00    +0.116 A 
ATOM     22  C   UNL     1      -6.174   1.247  26.275  0.00  0.00    +0.048 A 
ATOM     32  H   UNL     1      -4.710   5.532  25.248  0.00  0.00    +0.149 HD
BRANCH  19  23
ATOM     23  C   UNL     1      -4.471  -0.050  25.066  0.00  0.00    +0.001 A 
ATOM     26  C   UNL     1      -4.273  -0.327  23.711  0.00  0.00    +0.013 A 
ATOM     27  C   UNL     1      -4.103  -0.995  26.027  0.00  0.00    +0.013 A 
ATOM     28  C   UNL     1      -3.710  -1.542  23.320  0.00  0.00    +0.046 A 
ATOM     29  C   UNL     1      -3.541  -2.210  25.635  0.00  0.00    +0.046 A 
ATOM     30  C   UNL     1      -3.345  -2.484  24.282  0.00  0.00    +0.120 A 
BRANCH  30   5
ATOM      5  O   UNL     1      -2.797  -3.669  23.901  0.00  0.00    -0.495 OA
ATOM     31  C   UNL     1      -1.640  -3.612  23.069  0.00  0.00    +0.277 C 
ENDBRANCH  30   5
ENDBRANCH  19  23
ENDBRANCH  12   6
BRANCH  13   7
ATOM      3  O   UNL     1      -0.570   0.788  23.412  0.00  0.00    -0.267 OA
ATOM      7  N   UNL     1      -0.086   1.657  25.483  0.00  0.00    -0.301 N 
ATOM     17  C   UNL     1      -0.306   0.599  24.601  0.00  0.00    +0.280 C 
ATOM     33  H   UNL     1       0.179   1.452  26.443  0.00  0.00    +0.150 HD
BRANCH  17  18
ATOM      4  O   UNL     1       0.609  -1.599  24.495  0.00  0.00    -0.458 OA
ATOM     18  C   UNL     1      -0.173  -0.748  25.171  0.00  0.00    +0.189 A 
ATOM     20  C   UNL     1      -0.717  -1.278  26.281  0.00  0.00    +0.054 A 
ATOM     24  C   UNL     1      -0.233  -2.607  26.319  0.00  0.00    +0.042 A 
ATOM     25  C   UNL     1       0.570  -2.753  25.212  0.00  0.00    +0.196 A 
ENDBRANCH  17  18
ENDBRANCH  13   7
TORSDOF 5
ENDMDL
MODEL 5
REMARK VINA RESULT:       5.4      2.138      6.041
REMARK  Name = 11912816
REMARK  6 active torsions:
REMARK  status: ('A' for Active; 'I' for Inactive)
REMARK    1  A    between atoms: O_5  and  C_30
REMARK    2  A    between atoms: O_5  and  C_31
REMARK    3  A    between atoms: N_6  and  C_12
REMARK    4  A    between atoms: N_7  and  C_13
REMARK    5  A    between atoms: C_17  and  C_18
REMARK    6  A    between atoms: C_19  and  C_23
REMARK                            x       y       z     vdW  Elec       q    Type
REMARK                         _______ _______ _______ _____ _____    ______ ____
ROOT
ATOM      1  O   UNL     1       0.916  -0.647  23.605  0.00  0.00    -0.370 OA
ATOM      2  O   UNL     1      -0.222   0.658  26.201  0.00  0.00    -0.370 OA
ATOM     10  C   UNL     1      -0.803  -0.170  25.180  0.00  0.00    +0.171 C 
ATOM     11  C   UNL     1      -0.183   0.243  23.859  0.00  0.00    +0.171 C 
ATOM     12  C   UNL     1      -0.367  -1.605  25.360  0.00  0.00    +0.130 C 
ATOM     13  C   UNL     1       0.321   1.645  24.112  0.00  0.00    +0.130 C 
ATOM     14  C   UNL     1       0.969  -1.640  24.640  0.00  0.00    +0.185 C 
ATOM     15  C   UNL     1       0.669   1.603  25.589  0.00  0.00    +0.185 C 
ENDROOT
BRANCH  12   6
ATOM      6  N   UNL     1      -1.307  -2.492  24.712  0.00  0.00    -0.306 N 
ATOM      8  N   UNL     1      -3.044  -0.918  24.834  0.00  0.00    -0.214 NA
ATOM      9  N   UNL     1      -3.403  -3.083  23.836  0.00  0.00    -0.223 NA
ATOM     16  C   UNL     1      -2.624  -2.154  24.453  0.00  0.00    +0.216 A 
ATOM     19  C   UNL     1      -4.332  -0.622  24.565  0.00  0.00    +0.076 A 
ATOM     21  C   UNL     1      -4.681  -2.719  23.599  0.00  0.00    +0.116 A 
ATOM     22  C   UNL     1      -5.205  -1.491  23.944  0.00  0.00    +0.048 A 
ATOM     32  H   UNL     1      -0.992  -3.396  24.378  0.00  0.00    +0.149 HD
BRANCH  19  23
ATOM     23  C   UNL     1      -4.756   0.695  24.977  0.00  0.00    +0.001 A 
ATOM     26  C   UNL     1      -3.822   1.611  25.466  0.00  0.00    +0.013 A 
ATOM     27  C   UNL     1      -6.101   1.057  24.888  0.00  0.00    +0.013 A 
ATOM     28  C   UNL     1      -4.232   2.883  25.865  0.00  0.00    +0.046 A 
ATOM     29  C   UNL     1      -6.511   2.330  25.286  0.00  0.00    +0.046 A 
ATOM     30  C   UNL     1      -5.578   3.243  25.775  0.00  0.00    +0.120 A 
BRANCH  30   5
ATOM      5  O   UNL     1      -5.978   4.483  26.164  0.00  0.00    -0.495 OA
ATOM     31  C   UNL     1      -6.510   5.340  25.155  0.00  0.00    +0.277 C 
ENDBRANCH  30   5
ENDBRANCH  19  23
ENDBRANCH  12   6
BRANCH  13   7
ATOM      3  O   UNL     1      -0.220   3.935  25.666  0.00  0.00    -0.267 OA
ATOM      7  N   UNL     1      -0.702   2.626  23.842  0.00  0.00    -0.301 N 
ATOM     17  C   UNL     1      -0.905   3.734  24.662  0.00  0.00    +0.280 C 
ATOM     33  H   UNL     1      -1.258   2.528  22.996  0.00  0.00    +0.150 HD
BRANCH  17  18
ATOM      4  O   UNL     1      -2.933   4.138  23.477  0.00  0.00    -0.458 OA
ATOM     18  C   UNL     1      -1.964   4.661  24.238  0.00  0.00    +0.189 A 
ATOM     20  C   UNL     1      -2.121   5.972  24.492  0.00  0.00    +0.054 A 
ATOM     24  C   UNL     1      -3.317   6.326  23.824  0.00  0.00    +0.042 A 
ATOM     25  C   UNL     1      -3.774   5.176  23.222  0.00  0.00    +0.196 A 
ENDBRANCH  17  18
ENDBRANCH  13   7
TORSDOF 5
ENDMDL
MODEL 6
REMARK VINA RESULT:       5.4      2.237      4.443
REMARK  Name = 11912816
REMARK  6 active torsions:
REMARK  status: ('A' for Active; 'I' for Inactive)
REMARK    1  A    between atoms: O_5  and  C_30
REMARK    2  A    between atoms: O_5  and  C_31
REMARK    3  A    between atoms: N_6  and  C_12
REMARK    4  A    between atoms: N_7  and  C_13
REMARK    5  A    between atoms: C_17  and  C_18
REMARK    6  A    between atoms: C_19  and  C_23
REMARK                            x       y       z     vdW  Elec       q    Type
REMARK                         _______ _______ _______ _____ _____    ______ ____
ROOT
ATOM      1  O   UNL     1      -2.773   3.454  26.804  0.00  0.00    -0.370 OA
ATOM      2  O   UNL     1      -1.807   5.054  24.306  0.00  0.00    -0.370 OA
ATOM     10  C   UNL     1      -2.884   4.128  24.525  0.00  0.00    +0.171 C 
ATOM     11  C   UNL     1      -2.376   3.065  25.479  0.00  0.00    +0.171 C 
ATOM     12  C   UNL     1      -4.006   4.799  25.282  0.00  0.00    +0.130 C 
ATOM     13  C   UNL     1      -0.872   3.133  25.339  0.00  0.00    +0.130 C 
ATOM     14  C   UNL     1      -3.569   4.646  26.728  0.00  0.00    +0.185 C 
ATOM     15  C   UNL     1      -0.643   4.598  25.011  0.00  0.00    +0.185 C 
ENDROOT
BRANCH  12   6
ATOM      6  N   UNL     1      -5.247   4.091  25.057  0.00  0.00    -0.306 N 
ATOM      8  N   UNL     1      -4.183   1.999  25.073  0.00  0.00    -0.214 NA
ATOM      9  N   UNL     1      -6.564   2.174  24.742  0.00  0.00    -0.223 NA
ATOM     16  C   UNL     1      -5.334   2.713  24.955  0.00  0.00    +0.216 A 
ATOM     19  C   UNL     1      -4.305   0.660  24.968  0.00  0.00    +0.076 A 
ATOM     21  C   UNL     1      -6.612   0.829  24.648  0.00  0.00    +0.116 A 
ATOM     22  C   UNL     1      -5.505   0.013  24.753  0.00  0.00    +0.048 A 
ATOM     32  H   UNL     1      -6.117   4.609  25.019  0.00  0.00    +0.149 HD
BRANCH  19  23
ATOM     23  C   UNL     1      -3.072  -0.080  25.097  0.00  0.00    +0.001 A 
ATOM     26  C   UNL     1      -2.216   0.168  26.174  0.00  0.00    +0.013 A 
ATOM     27  C   UNL     1      -2.729  -1.044  24.148  0.00  0.00    +0.013 A 
ATOM     28  C   UNL     1      -1.024  -0.546  26.299  0.00  0.00    +0.046 A 
ATOM     29  C   UNL     1      -1.537  -1.758  24.272  0.00  0.00    +0.046 A 
ATOM     30  C   UNL     1      -0.685  -1.509  25.347  0.00  0.00    +0.120 A 
BRANCH  30   5
ATOM      5  O   UNL     1       0.477  -2.204  25.468  0.00  0.00    -0.495 OA
ATOM     31  C   UNL     1       0.384  -3.628  25.488  0.00  0.00    +0.277 C 
ENDBRANCH  30   5
ENDBRANCH  19  23
ENDBRANCH  12   6
BRANCH  13   7
ATOM      3  O   UNL     1       1.586   1.751  25.287  0.00  0.00    -0.267 OA
ATOM      7  N   UNL     1      -0.407   2.279  24.274  0.00  0.00    -0.301 N 
ATOM     17  C   UNL     1       0.825   1.629  24.325  0.00  0.00    +0.280 C 
ATOM     33  H   UNL     1      -1.023   2.108  23.483  0.00  0.00    +0.150 HD
BRANCH  17  18
ATOM      4  O   UNL     1       2.438   0.678  22.850  0.00  0.00    -0.458 OA
ATOM     18  C   UNL     1       1.144   0.767  23.179  0.00  0.00    +0.189 A 
ATOM     20  C   UNL     1       0.333   0.039  22.390  0.00  0.00    +0.054 A 
ATOM     24  C   UNL     1       1.200  -0.580  21.459  0.00  0.00    +0.042 A 
ATOM     25  C   UNL     1       2.470  -0.161  21.782  0.00  0.00    +0.196 A 
ENDBRANCH  17  18
ENDBRANCH  13   7
TORSDOF 5
ENDMDL
MODEL 7
REMARK VINA RESULT:       5.6      2.773      5.254
REMARK  Name = 11912816
REMARK  6 active torsions:
REMARK  status: ('A' for Active; 'I' for Inactive)
REMARK    1  A    between atoms: O_5  and  C_30
REMARK    2  A    between atoms: O_5  and  C_31
REMARK    3  A    between atoms: N_6  and  C_12
REMARK    4  A    between atoms: N_7  and  C_13
REMARK    5  A    between atoms: C_17  and  C_18
REMARK    6  A    between atoms: C_19  and  C_23
REMARK                            x       y       z     vdW  Elec       q    Type
REMARK                         _______ _______ _______ _____ _____    ______ ____
ROOT
ATOM      1  O   UNL     1      -5.817   4.507  24.798  0.00  0.00    -0.370 OA
ATOM      2  O   UNL     1      -4.755   2.593  27.022  0.00  0.00    -0.370 OA
ATOM     10  C   UNL     1      -4.109   3.351  25.986  0.00  0.00    +0.171 C 
ATOM     11  C   UNL     1      -5.014   3.315  24.770  0.00  0.00    +0.171 C 
ATOM     12  C   UNL     1      -4.056   4.813  26.364  0.00  0.00    +0.130 C 
ATOM     13  C   UNL     1      -5.877   2.094  24.991  0.00  0.00    +0.130 C 
ATOM     14  C   UNL     1      -5.410   5.324  25.905  0.00  0.00    +0.185 C 
ATOM     15  C   UNL     1      -5.972   2.033  26.505  0.00  0.00    +0.185 C 
ENDROOT
BRANCH  12   6
ATOM      6  N   UNL     1      -2.998   5.475  25.632  0.00  0.00    -0.306 N 
ATOM      8  N   UNL     1      -1.849   3.463  25.259  0.00  0.00    -0.214 NA
ATOM      9  N   UNL     1      -0.988   5.553  24.423  0.00  0.00    -0.223 NA
ATOM     16  C   UNL     1      -1.913   4.810  25.088  0.00  0.00    +0.216 A 
ATOM     19  C   UNL     1      -0.779   2.848  24.716  0.00  0.00    +0.076 A 
ATOM     21  C   UNL     1       0.056   4.873  23.906  0.00  0.00    +0.116 A 
ATOM     22  C   UNL     1       0.214   3.508  24.021  0.00  0.00    +0.048 A 
ATOM     32  H   UNL     1      -3.062   6.470  25.455  0.00  0.00    +0.149 HD
BRANCH  19  23
ATOM     23  C   UNL     1      -0.732   1.418  24.907  0.00  0.00    +0.001 A 
ATOM     26  C   UNL     1      -0.169   0.598  23.926  0.00  0.00    +0.013 A 
ATOM     27  C   UNL     1      -1.250   0.849  26.072  0.00  0.00    +0.013 A 
ATOM     28  C   UNL     1      -0.124  -0.784  24.110  0.00  0.00    +0.046 A 
ATOM     29  C   UNL     1      -1.205  -0.533  26.256  0.00  0.00    +0.046 A 
ATOM     30  C   UNL     1      -0.643  -1.350  25.276  0.00  0.00    +0.120 A 
BRANCH  30   5
ATOM      5  O   UNL     1      -0.600  -2.697  25.455  0.00  0.00    -0.495 OA
ATOM     31  C   UNL     1       0.687  -3.312  25.456  0.00  0.00    +0.277 C 
ENDBRANCH  30   5
ENDBRANCH  19  23
ENDBRANCH  12   6
BRANCH  13   7
ATOM      3  O   UNL     1      -4.732   0.009  26.505  0.00  0.00    -0.267 OA
ATOM      7  N   UNL     1      -5.253   0.908  24.457  0.00  0.00    -0.301 N 
ATOM     17  C   UNL     1      -4.709  -0.080  25.276  0.00  0.00    +0.280 C 
ATOM     33  H   UNL     1      -5.257   0.768  23.449  0.00  0.00    +0.150 HD
BRANCH  17  18
ATOM      4  O   UNL     1      -3.908  -2.324  25.339  0.00  0.00    -0.458 OA
ATOM     18  C   UNL     1      -4.138  -1.243  24.584  0.00  0.00    +0.189 A 
ATOM     20  C   UNL     1      -3.802  -1.404  23.291  0.00  0.00    +0.054 A 
ATOM     24  C   UNL     1      -3.304  -2.726  23.211  0.00  0.00    +0.042 A 
ATOM     25  C   UNL     1      -3.390  -3.244  24.483  0.00  0.00    +0.196 A 
ENDBRANCH  17  18
ENDBRANCH  13   7
TORSDOF 5
ENDMDL
MODEL 8
REMARK VINA RESULT:       5.6      2.469      4.453
REMARK  Name = 11912816
REMARK  6 active torsions:
REMARK  status: ('A' for Active; 'I' for Inactive)
REMARK    1  A    between atoms: O_5  and  C_30
REMARK    2  A    between atoms: O_5  and  C_31
REMARK    3  A    between atoms: N_6  and  C_12
REMARK    4  A    between atoms: N_7  and  C_13
REMARK    5  A    between atoms: C_17  and  C_18
REMARK    6  A    between atoms: C_19  and  C_23
REMARK                            x       y       z     vdW  Elec       q    Type
REMARK                         _______ _______ _______ _____ _____    ______ ____
ROOT
ATOM      1  O   UNL     1      -2.617   0.418  23.654  0.00  0.00    -0.370 OA
ATOM      2  O   UNL     1      -1.811  -1.874  25.611  0.00  0.00    -0.370 OA
ATOM     10  C   UNL     1      -2.787  -0.822  25.679  0.00  0.00    +0.171 C 
ATOM     11  C   UNL     1      -2.176   0.401  25.022  0.00  0.00    +0.171 C 
ATOM     12  C   UNL     1      -3.975  -1.154  24.807  0.00  0.00    +0.130 C 
ATOM     13  C   UNL     1      -0.687   0.150  25.091  0.00  0.00    +0.130 C 
ATOM     14  C   UNL     1      -3.531  -0.667  23.439  0.00  0.00    +0.185 C 
ATOM     15  C   UNL     1      -0.609  -1.364  25.015  0.00  0.00    +0.185 C 
ENDROOT
BRANCH  12   6
ATOM      6  N   UNL     1      -5.135  -0.413  25.249  0.00  0.00    -0.306 N 
ATOM      8  N   UNL     1      -4.052   1.652  24.986  0.00  0.00    -0.214 NA
ATOM      9  N   UNL     1      -6.329   1.540  25.769  0.00  0.00    -0.223 NA
ATOM     16  C   UNL     1      -5.173   0.968  25.337  0.00  0.00    +0.216 A 
ATOM     19  C   UNL     1      -4.124   2.996  25.084  0.00  0.00    +0.076 A 
ATOM     21  C   UNL     1      -6.331   2.887  25.842  0.00  0.00    +0.116 A 
ATOM     22  C   UNL     1      -5.248   3.674  25.509  0.00  0.00    +0.048 A 
ATOM     32  H   UNL     1      -5.992  -0.909  25.464  0.00  0.00    +0.149 HD
BRANCH  19  23
ATOM     23  C   UNL     1      -2.925   3.703  24.705  0.00  0.00    +0.001 A 
ATOM     26  C   UNL     1      -2.491   4.800  25.455  0.00  0.00    +0.013 A 
ATOM     27  C   UNL     1      -2.193   3.294  23.589  0.00  0.00    +0.013 A 
ATOM     28  C   UNL     1      -1.332   5.483  25.088  0.00  0.00    +0.046 A 
ATOM     29  C   UNL     1      -1.033   3.978  23.222  0.00  0.00    +0.046 A 
ATOM     30  C   UNL     1      -0.603   5.072  23.971  0.00  0.00    +0.120 A 
BRANCH  30   5
ATOM      5  O   UNL     1       0.527   5.740  23.613  0.00  0.00    -0.495 OA
ATOM     31  C   UNL     1       0.914   5.673  22.242  0.00  0.00    +0.277 C 
ENDBRANCH  30   5
ENDBRANCH  19  23
ENDBRANCH  12   6
BRANCH  13   7
ATOM      3  O   UNL     1       0.457   2.697  25.490  0.00  0.00    -0.267 OA
ATOM      7  N   UNL     1      -0.131   0.641  26.329  0.00  0.00    -0.301 N 
ATOM     17  C   UNL     1       0.417   1.918  26.444  0.00  0.00    +0.280 C 
ATOM     33  H   UNL     1      -0.189   0.052  27.156  0.00  0.00    +0.150 HD
BRANCH  17  18
ATOM      4  O   UNL     1       2.174   2.730  27.836  0.00  0.00    -0.458 OA
ATOM     18  C   UNL     1       0.913   2.285  27.778  0.00  0.00    +0.189 A 
ATOM     20  C   UNL     1       0.296   2.246  28.972  0.00  0.00    +0.054 A 
ATOM     24  C   UNL     1       1.264   2.715  29.891  0.00  0.00    +0.042 A 
ATOM     25  C   UNL     1       2.389   2.998  29.151  0.00  0.00    +0.196 A 
ENDBRANCH  17  18
ENDBRANCH  13   7
TORSDOF 5
ENDMDL
