MODEL 1
REMARK VINA RESULT:      -2.2      0.000      0.000
REMARK  Name = 51136650
REMARK  12 active torsions:
REMARK  status: ('A' for Active; 'I' for Inactive)
REMARK    1  A    between atoms: O_2  and  C_17
REMARK    2  A    between atoms: O_4  and  C_29
REMARK    3  A    between atoms: O_4  and  C_30
REMARK    4  A    between atoms: C_7  and  C_12
REMARK    5  A    between atoms: C_8  and  C_13
REMARK    6  A    between atoms: C_12  and  C_15
REMARK    7  A    between atoms: C_13  and  C_17
REMARK    8  A    between atoms: C_14  and  C_16
REMARK    9  A    between atoms: C_16  and  C_19
REMARK   10  A    between atoms: C_16  and  C_20
REMARK   11  A    between atoms: C_19  and  C_25
REMARK   12  A    between atoms: C_20  and  C_26
REMARK                            x       y       z     vdW  Elec       q    Type
REMARK                         _______ _______ _______ _____ _____    ______ ____
ROOT
ATOM      1  O   UNL     1      10.240  -5.854  32.873  0.00  0.00    -0.275 OA
ATOM      5  N   UNL     1      12.021  -5.979  31.387  0.00  0.00    -0.301 N 
ATOM      7  C   UNL     1      14.367  -6.585  30.836  0.00  0.00    +0.016 C 
ATOM      8  C   UNL     1      14.739  -5.083  30.938  0.00  0.00    +0.006 C 
ATOM      9  C   UNL     1      12.880  -6.730  30.463  0.00  0.00    +0.112 C 
ATOM     10  C   UNL     1      13.784  -4.325  31.875  0.00  0.00    +0.023 C 
ATOM     11  C   UNL     1      12.326  -4.551  31.481  0.00  0.00    +0.108 C 
ATOM     14  C   UNL     1      10.964  -6.513  32.123  0.00  0.00    +0.219 C 
ENDROOT
BRANCH   7  12
ATOM     12  C   UNL     1      14.680  -7.392  32.102  0.00  0.00    +0.061 C 
BRANCH  12  15
ATOM      6  N   UNL     1      15.645  -9.514  32.678  0.00  0.00    -0.287 NA
ATOM     15  C   UNL     1      15.396  -8.668  31.733  0.00  0.00    +0.044 C 
ATOM     18  C   UNL     1      15.784  -8.886  30.316  0.00  0.00    -0.001 A 
ATOM     21  C   UNL     1      16.762  -9.858  30.073  0.00  0.00    -0.033 A 
ATOM     22  C   UNL     1      16.287 -10.781  32.309  0.00  0.00    +0.146 C 
ATOM     23  C   UNL     1      17.355 -10.593  31.239  0.00  0.00    +0.059 C 
ATOM     24  C   UNL     1      15.228  -8.161  29.261  0.00  0.00    +0.013 A 
ATOM     27  C   UNL     1      17.201 -10.083  28.765  0.00  0.00    +0.050 A 
ATOM     28  C   UNL     1      15.662  -8.404  27.956  0.00  0.00    +0.046 A 
ATOM     29  C   UNL     1      16.647  -9.360  27.710  0.00  0.00    +0.120 A 
BRANCH  29   4
ATOM      4  O   UNL     1      17.070  -9.585  26.435  0.00  0.00    -0.495 OA
ATOM     30  C   UNL     1      17.069  -8.470  25.544  0.00  0.00    +0.277 C 
ENDBRANCH  29   4
ENDBRANCH  12  15
ENDBRANCH   7  12
BRANCH   8  13
ATOM     13  C   UNL     1      16.194  -4.852  31.348  0.00  0.00    +0.124 C 
BRANCH  13  17
ATOM      3  O   UNL     1      17.304  -3.064  30.119  0.00  0.00    -0.251 OA
ATOM     17  C   UNL     1      16.994  -4.240  30.232  0.00  0.00    +0.305 C 
BRANCH  17   2
ATOM      2  O   UNL     1      17.337  -5.201  29.335  0.00  0.00    -0.481 OA
ATOM     31  H   UNL     1      16.671  -5.287  28.619  0.00  0.00    +0.295 HD
ENDBRANCH  17   2
ENDBRANCH  13  17
ENDBRANCH   8  13
BRANCH  14  16
ATOM     16  C   UNL     1      10.716  -7.993  31.973  0.00  0.00    +0.075 C 
BRANCH  16  19
ATOM     19  C   UNL     1      11.706  -8.757  32.860  0.00  0.00    +0.009 C 
ATOM     25  C   UNL     1      12.178 -10.062  32.229  0.00  0.00    +0.004 C 
ENDBRANCH  16  19
BRANCH  16  20
ATOM     20  C   UNL     1       9.269  -8.306  32.375  0.00  0.00    +0.009 C 
ATOM     26  C   UNL     1       8.697  -9.503  31.627  0.00  0.00    +0.004 C 
ENDBRANCH  16  20
ENDBRANCH  14  16
TORSDOF 9
ENDMDL
MODEL 2
REMARK VINA RESULT:      -1.7     16.559     20.037
REMARK  Name = 51136650
REMARK  12 active torsions:
REMARK  status: ('A' for Active; 'I' for Inactive)
REMARK    1  A    between atoms: O_2  and  C_17
REMARK    2  A    between atoms: O_4  and  C_29
REMARK    3  A    between atoms: O_4  and  C_30
REMARK    4  A    between atoms: C_7  and  C_12
REMARK    5  A    between atoms: C_8  and  C_13
REMARK    6  A    between atoms: C_12  and  C_15
REMARK    7  A    between atoms: C_13  and  C_17
REMARK    8  A    between atoms: C_14  and  C_16
REMARK    9  A    between atoms: C_16  and  C_19
REMARK   10  A    between atoms: C_16  and  C_20
REMARK   11  A    between atoms: C_19  and  C_25
REMARK   12  A    between atoms: C_20  and  C_26
REMARK                            x       y       z     vdW  Elec       q    Type
REMARK                         _______ _______ _______ _____ _____    ______ ____
ROOT
ATOM      1  O   UNL     1      -1.999  -2.915  23.524  0.00  0.00    -0.275 OA
ATOM      5  N   UNL     1      -0.630  -1.281  24.448  0.00  0.00    -0.301 N 
ATOM      7  C   UNL     1       0.297   1.023  24.490  0.00  0.00    +0.016 C 
ATOM      8  C   UNL     1       1.609   0.467  23.880  0.00  0.00    +0.006 C 
ATOM      9  C   UNL     1      -0.426  -0.086  25.276  0.00  0.00    +0.112 C 
ATOM     10  C   UNL     1       1.357  -0.812  23.065  0.00  0.00    +0.023 C 
ATOM     11  C   UNL     1       0.595  -1.851  23.884  0.00  0.00    +0.108 C 
ATOM     14  C   UNL     1      -1.857  -1.894  24.203  0.00  0.00    +0.219 C 
ENDROOT
BRANCH   7  12
ATOM     12  C   UNL     1      -0.651   1.651  23.461  0.00  0.00    +0.061 C 
BRANCH  12  15
ATOM      6  N   UNL     1      -0.530   3.979  24.039  0.00  0.00    -0.287 NA
ATOM     15  C   UNL     1      -1.259   2.912  24.026  0.00  0.00    +0.044 C 
ATOM     18  C   UNL     1      -2.652   2.866  24.541  0.00  0.00    -0.001 A 
ATOM     21  C   UNL     1      -3.044   3.907  25.392  0.00  0.00    -0.033 A 
ATOM     22  C   UNL     1      -1.142   5.218  24.532  0.00  0.00    +0.146 C 
ATOM     23  C   UNL     1      -2.046   4.974  25.733  0.00  0.00    +0.059 C 
ATOM     24  C   UNL     1      -3.541   1.838  24.221  0.00  0.00    +0.013 A 
ATOM     27  C   UNL     1      -4.328   3.900  25.944  0.00  0.00    +0.050 A 
ATOM     28  C   UNL     1      -4.827   1.849  24.765  0.00  0.00    +0.046 A 
ATOM     29  C   UNL     1      -5.218   2.875  25.625  0.00  0.00    +0.120 A 
BRANCH  29   4
ATOM      4  O   UNL     1      -6.471   2.873  26.158  0.00  0.00    -0.495 OA
ATOM     30  C   UNL     1      -6.830   1.758  26.971  0.00  0.00    +0.277 C 
ENDBRANCH  29   4
ENDBRANCH  12  15
ENDBRANCH   7  12
BRANCH   8  13
ATOM     13  C   UNL     1       2.368   1.499  23.045  0.00  0.00    +0.124 C 
BRANCH  13  17
ATOM      3  O   UNL     1       4.690   0.898  23.481  0.00  0.00    -0.251 OA
ATOM     17  C   UNL     1       3.754   1.026  22.706  0.00  0.00    +0.305 C 
BRANCH  17   2
ATOM      2  O   UNL     1       3.831   0.750  21.378  0.00  0.00    -0.481 OA
ATOM     31  H   UNL     1       4.609   0.192  21.165  0.00  0.00    +0.295 HD
ENDBRANCH  17   2
ENDBRANCH  13  17
ENDBRANCH   8  13
BRANCH  14  16
ATOM     16  C   UNL     1      -3.072  -1.245  24.817  0.00  0.00    +0.075 C 
BRANCH  16  19
ATOM     19  C   UNL     1      -4.220  -1.272  23.801  0.00  0.00    +0.009 C 
ATOM     25  C   UNL     1      -4.764  -2.676  23.562  0.00  0.00    +0.004 C 
ENDBRANCH  16  19
BRANCH  16  20
ATOM     20  C   UNL     1      -3.457  -1.999  26.095  0.00  0.00    +0.009 C 
ATOM     26  C   UNL     1      -2.763  -1.449  27.335  0.00  0.00    +0.004 C 
ENDBRANCH  16  20
ENDBRANCH  14  16
TORSDOF 9
ENDMDL
MODEL 3
REMARK VINA RESULT:       0.5     16.759     19.956
REMARK  Name = 51136650
REMARK  12 active torsions:
REMARK  status: ('A' for Active; 'I' for Inactive)
REMARK    1  A    between atoms: O_2  and  C_17
REMARK    2  A    between atoms: O_4  and  C_29
REMARK    3  A    between atoms: O_4  and  C_30
REMARK    4  A    between atoms: C_7  and  C_12
REMARK    5  A    between atoms: C_8  and  C_13
REMARK    6  A    between atoms: C_12  and  C_15
REMARK    7  A    between atoms: C_13  and  C_17
REMARK    8  A    between atoms: C_14  and  C_16
REMARK    9  A    between atoms: C_16  and  C_19
REMARK   10  A    between atoms: C_16  and  C_20
REMARK   11  A    between atoms: C_19  and  C_25
REMARK   12  A    between atoms: C_20  and  C_26
REMARK                            x       y       z     vdW  Elec       q    Type
REMARK                         _______ _______ _______ _____ _____    ______ ____
ROOT
ATOM      1  O   UNL     1      -5.407   4.034  24.700  0.00  0.00    -0.275 OA
ATOM      5  N   UNL     1      -4.721   1.936  25.425  0.00  0.00    -0.301 N 
ATOM      7  C   UNL     1      -3.362  -0.128  25.164  0.00  0.00    +0.016 C 
ATOM      8  C   UNL     1      -4.641  -0.865  24.689  0.00  0.00    +0.006 C 
ATOM      9  C   UNL     1      -3.748   1.051  26.077  0.00  0.00    +0.112 C 
ATOM     10  C   UNL     1      -5.653   0.107  24.059  0.00  0.00    +0.023 C 
ATOM     11  C   UNL     1      -5.954   1.276  24.993  0.00  0.00    +0.108 C 
ATOM     14  C   UNL     1      -4.561   3.307  25.228  0.00  0.00    +0.219 C 
ENDROOT
BRANCH   7  12
ATOM     12  C   UNL     1      -2.461   0.356  24.021  0.00  0.00    +0.061 C 
BRANCH  12  15
ATOM      6  N   UNL     1      -1.326   1.706  25.651  0.00  0.00    -0.287 NA
ATOM     15  C   UNL     1      -1.210   0.984  24.586  0.00  0.00    +0.044 C 
ATOM     18  C   UNL     1       0.083   0.751  23.892  0.00  0.00    -0.001 A 
ATOM     21  C   UNL     1       1.128   1.634  24.193  0.00  0.00    -0.033 A 
ATOM     22  C   UNL     1      -0.101   2.266  26.234  0.00  0.00    +0.146 C 
ATOM     23  C   UNL     1       0.875   2.745  25.168  0.00  0.00    +0.059 C 
ATOM     24  C   UNL     1       0.270  -0.280  22.969  0.00  0.00    +0.013 A 
ATOM     27  C   UNL     1       2.358   1.494  23.544  0.00  0.00    +0.050 A 
ATOM     28  C   UNL     1       1.507  -0.421  22.338  0.00  0.00    +0.046 A 
ATOM     29  C   UNL     1       2.546   0.465  22.622  0.00  0.00    +0.120 A 
BRANCH  29   4
ATOM      4  O   UNL     1       3.747   0.325  21.995  0.00  0.00    -0.495 OA
ATOM     30  C   UNL     1       4.912   0.315  22.818  0.00  0.00    +0.277 C 
ENDBRANCH  29   4
ENDBRANCH  12  15
ENDBRANCH   7  12
BRANCH   8  13
ATOM     13  C   UNL     1      -4.346  -2.027  23.740  0.00  0.00    +0.124 C 
BRANCH  13  17
ATOM      3  O   UNL     1      -2.114  -3.005  23.718  0.00  0.00    -0.251 OA
ATOM     17  C   UNL     1      -3.211  -2.876  24.240  0.00  0.00    +0.305 C 
BRANCH  17   2
ATOM      2  O   UNL     1      -3.580  -3.503  25.387  0.00  0.00    -0.481 OA
ATOM     31  H   UNL     1      -3.133  -3.121  26.172  0.00  0.00    +0.295 HD
ENDBRANCH  17   2
ENDBRANCH  13  17
ENDBRANCH   8  13
BRANCH  14  16
ATOM     16  C   UNL     1      -3.261   3.911  25.697  0.00  0.00    +0.075 C 
BRANCH  16  19
ATOM     19  C   UNL     1      -2.658   4.742  24.560  0.00  0.00    +0.009 C 
ATOM     25  C   UNL     1      -1.375   5.457  24.967  0.00  0.00    +0.004 C 
ENDBRANCH  16  19
BRANCH  16  20
ATOM     20  C   UNL     1      -3.526   4.783  26.930  0.00  0.00    +0.009 C 
ATOM     26  C   UNL     1      -3.176   4.080  28.235  0.00  0.00    +0.004 C 
ENDBRANCH  16  20
ENDBRANCH  14  16
TORSDOF 9
ENDMDL
MODEL 4
REMARK VINA RESULT:       1.3     16.428     19.763
REMARK  Name = 51136650
REMARK  12 active torsions:
REMARK  status: ('A' for Active; 'I' for Inactive)
REMARK    1  A    between atoms: O_2  and  C_17
REMARK    2  A    between atoms: O_4  and  C_29
REMARK    3  A    between atoms: O_4  and  C_30
REMARK    4  A    between atoms: C_7  and  C_12
REMARK    5  A    between atoms: C_8  and  C_13
REMARK    6  A    between atoms: C_12  and  C_15
REMARK    7  A    between atoms: C_13  and  C_17
REMARK    8  A    between atoms: C_14  and  C_16
REMARK    9  A    between atoms: C_16  and  C_19
REMARK   10  A    between atoms: C_16  and  C_20
REMARK   11  A    between atoms: C_19  and  C_25
REMARK   12  A    between atoms: C_20  and  C_26
REMARK                            x       y       z     vdW  Elec       q    Type
REMARK                         _______ _______ _______ _____ _____    ______ ____
ROOT
ATOM      1  O   UNL     1      -0.206   4.246  24.852  0.00  0.00    -0.275 OA
ATOM      5  N   UNL     1       0.046   2.367  23.508  0.00  0.00    -0.301 N 
ATOM      7  C   UNL     1       0.201  -0.093  23.202  0.00  0.00    +0.016 C 
ATOM      8  C   UNL     1       1.734   0.062  23.029  0.00  0.00    +0.006 C 
ATOM      9  C   UNL     1      -0.506   1.211  22.791  0.00  0.00    +0.112 C 
ATOM     10  C   UNL     1       2.261   1.313  23.754  0.00  0.00    +0.023 C 
ATOM     11  C   UNL     1       1.486   2.561  23.339  0.00  0.00    +0.108 C 
ATOM     14  C   UNL     1      -0.690   3.265  24.280  0.00  0.00    +0.219 C 
ENDROOT
BRANCH   7  12
ATOM     12  C   UNL     1      -0.228  -0.510  24.614  0.00  0.00    +0.061 C 
BRANCH  12  15
ATOM      6  N   UNL     1      -1.498  -2.511  24.225  0.00  0.00    -0.287 NA
ATOM     15  C   UNL     1      -1.536  -1.261  24.553  0.00  0.00    +0.044 C 
ATOM     18  C   UNL     1      -2.794  -0.534  24.862  0.00  0.00    -0.001 A 
ATOM     21  C   UNL     1      -3.987  -1.126  24.428  0.00  0.00    -0.033 A 
ATOM     22  C   UNL     1      -2.762  -3.256  24.224  0.00  0.00    +0.146 C 
ATOM     23  C   UNL     1      -3.917  -2.425  23.681  0.00  0.00    +0.059 C 
ATOM     24  C   UNL     1      -2.813   0.688  25.536  0.00  0.00    +0.013 A 
ATOM     27  C   UNL     1      -5.202  -0.472  24.652  0.00  0.00    +0.050 A 
ATOM     28  C   UNL     1      -4.033   1.325  25.768  0.00  0.00    +0.046 A 
ATOM     29  C   UNL     1      -5.223   0.748  25.325  0.00  0.00    +0.120 A 
BRANCH  29   4
ATOM      4  O   UNL     1      -6.408   1.381  25.548  0.00  0.00    -0.495 OA
ATOM     30  C   UNL     1      -6.357   2.782  25.811  0.00  0.00    +0.277 C 
ENDBRANCH  29   4
ENDBRANCH  12  15
ENDBRANCH   7  12
BRANCH   8  13
ATOM     13  C   UNL     1       2.515  -1.180  23.458  0.00  0.00    +0.124 C 
BRANCH  13  17
ATOM      3  O   UNL     1       4.584  -0.009  22.920  0.00  0.00    -0.251 OA
ATOM     17  C   UNL     1       3.996  -0.923  23.479  0.00  0.00    +0.305 C 
BRANCH  17   2
ATOM      2  O   UNL     1       4.615  -1.873  24.226  0.00  0.00    -0.481 OA
ATOM     31  H   UNL     1       4.844  -2.665  23.694  0.00  0.00    +0.295 HD
ENDBRANCH  17   2
ENDBRANCH  13  17
ENDBRANCH   8  13
BRANCH  14  16
ATOM     16  C   UNL     1      -2.168   2.995  24.408  0.00  0.00    +0.075 C 
BRANCH  16  19
ATOM     19  C   UNL     1      -2.862   4.254  24.940  0.00  0.00    +0.009 C 
ATOM     25  C   UNL     1      -2.961   4.277  26.461  0.00  0.00    +0.004 C 
ENDBRANCH  16  19
BRANCH  16  20
ATOM     20  C   UNL     1      -2.730   2.599  23.038  0.00  0.00    +0.009 C 
ATOM     26  C   UNL     1      -4.089   3.228  22.755  0.00  0.00    +0.004 C 
ENDBRANCH  16  20
ENDBRANCH  14  16
TORSDOF 9
ENDMDL
MODEL 5
REMARK VINA RESULT:       1.5     16.074     19.229
REMARK  Name = 51136650
REMARK  12 active torsions:
REMARK  status: ('A' for Active; 'I' for Inactive)
REMARK    1  A    between atoms: O_2  and  C_17
REMARK    2  A    between atoms: O_4  and  C_29
REMARK    3  A    between atoms: O_4  and  C_30
REMARK    4  A    between atoms: C_7  and  C_12
REMARK    5  A    between atoms: C_8  and  C_13
REMARK    6  A    between atoms: C_12  and  C_15
REMARK    7  A    between atoms: C_13  and  C_17
REMARK    8  A    between atoms: C_14  and  C_16
REMARK    9  A    between atoms: C_16  and  C_19
REMARK   10  A    between atoms: C_16  and  C_20
REMARK   11  A    between atoms: C_19  and  C_25
REMARK   12  A    between atoms: C_20  and  C_26
REMARK                            x       y       z     vdW  Elec       q    Type
REMARK                         _______ _______ _______ _____ _____    ______ ____
ROOT
ATOM      1  O   UNL     1      -3.741   4.723  24.333  0.00  0.00    -0.275 OA
ATOM      5  N   UNL     1      -3.730   2.570  25.206  0.00  0.00    -0.301 N 
ATOM      7  C   UNL     1      -2.992   0.198  25.160  0.00  0.00    +0.016 C 
ATOM      8  C   UNL     1      -4.387  -0.186  24.602  0.00  0.00    +0.006 C 
ATOM      9  C   UNL     1      -3.098   1.496  25.982  0.00  0.00    +0.112 C 
ATOM     10  C   UNL     1      -5.034   0.984  23.841  0.00  0.00    +0.023 C 
ATOM     11  C   UNL     1      -5.063   2.250  24.693  0.00  0.00    +0.108 C 
ATOM     14  C   UNL     1      -3.177   3.827  24.966  0.00  0.00    +0.219 C 
ENDROOT
BRANCH   7  12
ATOM     12  C   UNL     1      -1.907   0.336  24.085  0.00  0.00    +0.061 C 
BRANCH  12  15
ATOM      6  N   UNL     1      -1.230  -1.837  24.852  0.00  0.00    -0.287 NA
ATOM     15  C   UNL     1      -0.868  -0.745  24.263  0.00  0.00    +0.044 C 
ATOM     18  C   UNL     1       0.510  -0.502  23.764  0.00  0.00    -0.001 A 
ATOM     21  C   UNL     1       1.519  -1.327  24.275  0.00  0.00    -0.033 A 
ATOM     22  C   UNL     1      -0.237  -2.910  24.972  0.00  0.00    +0.146 C 
ATOM     23  C   UNL     1       1.153  -2.374  25.285  0.00  0.00    +0.059 C 
ATOM     24  C   UNL     1       0.813   0.502  22.843  0.00  0.00    +0.013 A 
ATOM     27  C   UNL     1       2.844  -1.124  23.877  0.00  0.00    +0.050 A 
ATOM     28  C   UNL     1       2.136   0.687  22.440  0.00  0.00    +0.046 A 
ATOM     29  C   UNL     1       3.149  -0.121  22.957  0.00  0.00    +0.120 A 
BRANCH  29   4
ATOM      4  O   UNL     1       4.438   0.072  22.565  0.00  0.00    -0.495 OA
ATOM     30  C   UNL     1       5.435   0.069  23.585  0.00  0.00    +0.277 C 
ENDBRANCH  29   4
ENDBRANCH  12  15
ENDBRANCH   7  12
BRANCH   8  13
ATOM     13  C   UNL     1      -4.360  -1.445  23.735  0.00  0.00    +0.124 C 
BRANCH  13  17
ATOM      3  O   UNL     1      -3.782  -3.785  24.094  0.00  0.00    -0.251 OA
ATOM     17  C   UNL     1      -3.940  -2.653  24.525  0.00  0.00    +0.305 C 
BRANCH  17   2
ATOM      2  O   UNL     1      -3.754  -2.308  25.825  0.00  0.00    -0.481 OA
ATOM     31  H   UNL     1      -4.589  -2.017  26.249  0.00  0.00    +0.295 HD
ENDBRANCH  17   2
ENDBRANCH  13  17
ENDBRANCH   8  13
BRANCH  14  16
ATOM     16  C   UNL     1      -1.799   4.077  25.526  0.00  0.00    +0.075 C 
BRANCH  16  19
ATOM     19  C   UNL     1      -0.840   3.008  24.990  0.00  0.00    +0.009 C 
ATOM     25  C   UNL     1       0.151   2.522  26.041  0.00  0.00    +0.004 C 
ENDBRANCH  16  19
BRANCH  16  20
ATOM     20  C   UNL     1      -1.334   5.481  25.118  0.00  0.00    +0.009 C 
ATOM     26  C   UNL     1      -0.301   5.457  23.999  0.00  0.00    +0.004 C 
ENDBRANCH  16  20
ENDBRANCH  14  16
TORSDOF 9
ENDMDL
MODEL 6
REMARK VINA RESULT:       1.7      1.779      2.653
REMARK  Name = 51136650
REMARK  12 active torsions:
REMARK  status: ('A' for Active; 'I' for Inactive)
REMARK    1  A    between atoms: O_2  and  C_17
REMARK    2  A    between atoms: O_4  and  C_29
REMARK    3  A    between atoms: O_4  and  C_30
REMARK    4  A    between atoms: C_7  and  C_12
REMARK    5  A    between atoms: C_8  and  C_13
REMARK    6  A    between atoms: C_12  and  C_15
REMARK    7  A    between atoms: C_13  and  C_17
REMARK    8  A    between atoms: C_14  and  C_16
REMARK    9  A    between atoms: C_16  and  C_19
REMARK   10  A    between atoms: C_16  and  C_20
REMARK   11  A    between atoms: C_19  and  C_25
REMARK   12  A    between atoms: C_20  and  C_26
REMARK                            x       y       z     vdW  Elec       q    Type
REMARK                         _______ _______ _______ _____ _____    ______ ____
ROOT
ATOM      1  O   UNL     1      12.228  -6.527  32.872  0.00  0.00    -0.275 OA
ATOM      5  N   UNL     1      13.711  -5.276  31.594  0.00  0.00    -0.301 N 
ATOM      7  C   UNL     1      16.014  -4.564  30.994  0.00  0.00    +0.016 C 
ATOM      8  C   UNL     1      15.758  -3.232  31.746  0.00  0.00    +0.006 C 
ATOM      9  C   UNL     1      14.679  -5.149  30.498  0.00  0.00    +0.112 C 
ATOM     10  C   UNL     1      14.701  -3.400  32.850  0.00  0.00    +0.023 C 
ATOM     11  C   UNL     1      13.422  -4.029  32.303  0.00  0.00    +0.108 C 
ATOM     14  C   UNL     1      13.059  -6.452  31.963  0.00  0.00    +0.219 C 
ENDROOT
BRANCH   7  12
ATOM     12  C   UNL     1      16.779  -5.607  31.818  0.00  0.00    +0.061 C 
BRANCH  12  15
ATOM      6  N   UNL     1      16.099  -7.889  32.129  0.00  0.00    -0.287 NA
ATOM     15  C   UNL     1      16.492  -6.991  31.288  0.00  0.00    +0.044 C 
ATOM     18  C   UNL     1      16.680  -7.255  29.838  0.00  0.00    -0.001 A 
ATOM     21  C   UNL     1      16.786  -8.596  29.450  0.00  0.00    -0.033 A 
ATOM     22  C   UNL     1      15.761  -9.217  31.604  0.00  0.00    +0.146 C 
ATOM     23  C   UNL     1      16.718  -9.660  30.505  0.00  0.00    +0.059 C 
ATOM     24  C   UNL     1      16.765  -6.233  28.890  0.00  0.00    +0.013 A 
ATOM     27  C   UNL     1      17.004  -8.910  28.105  0.00  0.00    +0.050 A 
ATOM     28  C   UNL     1      16.968  -6.558  27.548  0.00  0.00    +0.046 A 
ATOM     29  C   UNL     1      17.090  -7.891  27.157  0.00  0.00    +0.120 A 
BRANCH  29   4
ATOM      4  O   UNL     1      17.296  -8.198  25.847  0.00  0.00    -0.495 OA
ATOM     30  C   UNL     1      17.405  -7.108  24.933  0.00  0.00    +0.277 C 
ENDBRANCH  29   4
ENDBRANCH  12  15
ENDBRANCH   7  12
BRANCH   8  13
ATOM     13  C   UNL     1      17.033  -2.607  32.310  0.00  0.00    +0.124 C 
BRANCH  13  17
ATOM      3  O   UNL     1      17.405  -0.932  30.578  0.00  0.00    -0.251 OA
ATOM     17  C   UNL     1      17.267  -1.229  31.755  0.00  0.00    +0.305 C 
BRANCH  17   2
ATOM      2  O   UNL     1      17.307  -0.327  32.770  0.00  0.00    -0.481 OA
ATOM     31  H   UNL     1      17.533  -0.750  33.626  0.00  0.00    +0.295 HD
ENDBRANCH  17   2
ENDBRANCH  13  17
ENDBRANCH   8  13
BRANCH  14  16
ATOM     16  C   UNL     1      13.413  -7.695  31.186  0.00  0.00    +0.075 C 
BRANCH  16  19
ATOM     19  C   UNL     1      12.527  -8.851  31.662  0.00  0.00    +0.009 C 
ATOM     25  C   UNL     1      11.112  -8.405  32.012  0.00  0.00    +0.004 C 
ENDBRANCH  16  19
BRANCH  16  20
ATOM     20  C   UNL     1      13.208  -7.431  29.689  0.00  0.00    +0.009 C 
ATOM     26  C   UNL     1      13.726  -8.566  28.815  0.00  0.00    +0.004 C 
ENDBRANCH  16  20
ENDBRANCH  14  16
TORSDOF 9
ENDMDL
