MODEL 1
REMARK VINA RESULT:      -7.3      0.000      0.000
REMARK  Name = 56775241
REMARK  3 active torsions:
REMARK  status: ('A' for Active; 'I' for Inactive)
REMARK    1  A    between atoms: N_5  and  C_17
REMARK    2  A    between atoms: C_8  and  C_14
REMARK    3  A    between atoms: C_17  and  C_18
REMARK                            x       y       z     vdW  Elec       q    Type
REMARK                         _______ _______ _______ _____ _____    ______ ____
ROOT
ATOM      1  O   UNL     1       0.290   1.950  25.302  0.00  0.00    -0.364 OA
ATOM      2  O   UNL     1      -0.777  -2.659  24.651  0.00  0.00    -0.275 OA
ATOM      3  O   UNL     1      -1.588   4.957  25.593  0.00  0.00    -0.273 OA
ATOM      4  N   UNL     1      -1.308  -0.420  24.404  0.00  0.00    -0.297 N 
ATOM      5  N   UNL     1      -1.935   3.159  24.157  0.00  0.00    -0.288 N 
ATOM      7  C   UNL     1      -1.520   1.833  23.721  0.00  0.00    +0.124 C 
ATOM      9  C   UNL     1      -0.047   1.527  23.983  0.00  0.00    +0.158 C 
ATOM     10  C   UNL     1      -2.236   0.705  24.469  0.00  0.00    +0.133 C 
ATOM     11  C   UNL     1       0.005   0.006  23.935  0.00  0.00    +0.141 C 
ATOM     14  C   UNL     1      -1.587  -1.739  24.720  0.00  0.00    +0.219 C 
ATOM     15  C   UNL     1      -1.213   3.895  25.094  0.00  0.00    +0.242 C 
ATOM     16  C   UNL     1       0.164   3.348  25.425  0.00  0.00    +0.256 C 
ENDROOT
BRANCH  14   8
ATOM      8  C   UNL     1      -2.986  -2.044  25.146  0.00  0.00    +0.075 C 
ATOM     12  C   UNL     1      -3.692  -3.224  24.545  0.00  0.00    +0.013 C 
ATOM     13  C   UNL     1      -4.108  -1.831  24.173  0.00  0.00    +0.013 C 
ENDBRANCH  14   8
BRANCH   5  17
ATOM     17  C   UNL     1      -3.235   3.629  23.698  0.00  0.00    +0.145 C 
BRANCH  17  18
ATOM      6  N   UNL     1      -5.677   3.209  26.554  0.00  0.00    -0.263 NA
ATOM     18  C   UNL     1      -4.358   3.083  24.533  0.00  0.00    -0.012 A 
ATOM     19  C   UNL     1      -5.104   1.992  24.104  0.00  0.00    +0.008 A 
ATOM     20  C   UNL     1      -4.681   3.651  25.754  0.00  0.00    +0.115 A 
ATOM     21  C   UNL     1      -6.138   1.509  24.899  0.00  0.00    +0.020 A 
ATOM     22  C   UNL     1      -6.382   2.146  26.104  0.00  0.00    +0.111 A 
ENDBRANCH  17  18
ENDBRANCH   5  17
TORSDOF 3
ENDMDL
MODEL 2
REMARK VINA RESULT:      -5.1      1.977      5.399
REMARK  Name = 56775241
REMARK  3 active torsions:
REMARK  status: ('A' for Active; 'I' for Inactive)
REMARK    1  A    between atoms: N_5  and  C_17
REMARK    2  A    between atoms: C_8  and  C_14
REMARK    3  A    between atoms: C_17  and  C_18
REMARK                            x       y       z     vdW  Elec       q    Type
REMARK                         _______ _______ _______ _____ _____    ______ ____
ROOT
ATOM      1  O   UNL     1      -3.497  -1.955  25.270  0.00  0.00    -0.364 OA
ATOM      2  O   UNL     1      -6.687   1.593  25.093  0.00  0.00    -0.275 OA
ATOM      3  O   UNL     1       0.048  -2.152  25.497  0.00  0.00    -0.273 OA
ATOM      4  N   UNL     1      -4.547   0.796  24.719  0.00  0.00    -0.297 N 
ATOM      5  N   UNL     1      -1.250  -0.678  24.248  0.00  0.00    -0.288 N 
ATOM      7  C   UNL     1      -2.582  -0.216  23.882  0.00  0.00    +0.124 C 
ATOM      9  C   UNL     1      -3.668  -1.280  24.027  0.00  0.00    +0.158 C 
ATOM     10  C   UNL     1      -3.093   0.912  24.782  0.00  0.00    +0.133 C 
ATOM     11  C   UNL     1      -4.950  -0.459  24.096  0.00  0.00    +0.141 C 
ATOM     14  C   UNL     1      -5.469   1.728  25.165  0.00  0.00    +0.219 C 
ATOM     15  C   UNL     1      -1.044  -1.798  25.050  0.00  0.00    +0.242 C 
ATOM     16  C   UNL     1      -2.274  -2.656  25.293  0.00  0.00    +0.256 C 
ENDROOT
BRANCH  14   8
ATOM      8  C   UNL     1      -4.919   2.991  25.744  0.00  0.00    +0.075 C 
ATOM     12  C   UNL     1      -5.558   4.300  25.384  0.00  0.00    +0.013 C 
ATOM     13  C   UNL     1      -4.201   3.954  24.845  0.00  0.00    +0.013 C 
ENDBRANCH  14   8
BRANCH   5  17
ATOM     17  C   UNL     1      -0.129   0.176  23.878  0.00  0.00    +0.145 C 
BRANCH  17  18
ATOM      6  N   UNL     1      -0.594   3.926  24.033  0.00  0.00    -0.263 NA
ATOM     18  C   UNL     1      -0.272   1.564  24.434  0.00  0.00    -0.012 A 
ATOM     19  C   UNL     1      -0.220   1.795  25.803  0.00  0.00    +0.008 A 
ATOM     20  C   UNL     1      -0.460   2.653  23.598  0.00  0.00    +0.115 A 
ATOM     21  C   UNL     1      -0.355   3.091  26.289  0.00  0.00    +0.020 A 
ATOM     22  C   UNL     1      -0.538   4.112  25.371  0.00  0.00    +0.111 A 
ENDBRANCH  17  18
ENDBRANCH   5  17
TORSDOF 3
ENDMDL
MODEL 3
REMARK VINA RESULT:      -4.7      1.721      4.932
REMARK  Name = 56775241
REMARK  3 active torsions:
REMARK  status: ('A' for Active; 'I' for Inactive)
REMARK    1  A    between atoms: N_5  and  C_17
REMARK    2  A    between atoms: C_8  and  C_14
REMARK    3  A    between atoms: C_17  and  C_18
REMARK                            x       y       z     vdW  Elec       q    Type
REMARK                         _______ _______ _______ _____ _____    ______ ____
ROOT
ATOM      1  O   UNL     1      -1.367   3.727  24.020  0.00  0.00    -0.364 OA
ATOM      2  O   UNL     1      -5.733   4.571  25.759  0.00  0.00    -0.275 OA
ATOM      3  O   UNL     1       0.686   0.846  23.645  0.00  0.00    -0.273 OA
ATOM      4  N   UNL     1      -3.804   3.294  25.709  0.00  0.00    -0.297 N 
ATOM      5  N   UNL     1      -0.685   1.432  25.431  0.00  0.00    -0.288 N 
ATOM      7  C   UNL     1      -1.644   2.376  25.991  0.00  0.00    +0.124 C 
ATOM      9  C   UNL     1      -1.515   3.793  25.436  0.00  0.00    +0.158 C 
ATOM     10  C   UNL     1      -3.097   2.018  25.665  0.00  0.00    +0.133 C 
ATOM     11  C   UNL     1      -2.870   4.413  25.752  0.00  0.00    +0.141 C 
ATOM     14  C   UNL     1      -5.176   3.478  25.722  0.00  0.00    +0.219 C 
ATOM     15  C   UNL     1      -0.028   1.665  24.226  0.00  0.00    +0.242 C 
ATOM     16  C   UNL     1      -0.168   3.073  23.673  0.00  0.00    +0.256 C 
ENDROOT
BRANCH  14   8
ATOM      8  C   UNL     1      -6.017   2.242  25.719  0.00  0.00    +0.075 C 
ATOM     12  C   UNL     1      -5.587   1.069  24.889  0.00  0.00    +0.013 C 
ATOM     13  C   UNL     1      -6.779   1.882  24.477  0.00  0.00    +0.013 C 
ENDBRANCH  14   8
BRANCH   5  17
ATOM     17  C   UNL     1      -0.558   0.145  26.101  0.00  0.00    +0.145 C 
BRANCH  17  18
ATOM      6  N   UNL     1      -1.860  -2.706  23.986  0.00  0.00    -0.263 NA
ATOM     18  C   UNL     1      -1.492  -0.882  25.529  0.00  0.00    -0.012 A 
ATOM     19  C   UNL     1      -2.805  -0.980  25.971  0.00  0.00    +0.008 A 
ATOM     20  C   UNL     1      -1.071  -1.761  24.544  0.00  0.00    +0.115 A 
ATOM     21  C   UNL     1      -3.648  -1.941  25.423  0.00  0.00    +0.020 A 
ATOM     22  C   UNL     1      -3.132  -2.772  24.442  0.00  0.00    +0.111 A 
ENDBRANCH  17  18
ENDBRANCH   5  17
TORSDOF 3
ENDMDL
MODEL 4
REMARK VINA RESULT:      -4.7      1.537      4.651
REMARK  Name = 56775241
REMARK  3 active torsions:
REMARK  status: ('A' for Active; 'I' for Inactive)
REMARK    1  A    between atoms: N_5  and  C_17
REMARK    2  A    between atoms: C_8  and  C_14
REMARK    3  A    between atoms: C_17  and  C_18
REMARK                            x       y       z     vdW  Elec       q    Type
REMARK                         _______ _______ _______ _____ _____    ______ ____
ROOT
ATOM      1  O   UNL     1      -1.255  -1.579  24.806  0.00  0.00    -0.364 OA
ATOM      2  O   UNL     1       0.812   2.572  25.944  0.00  0.00    -0.275 OA
ATOM      3  O   UNL     1      -4.296  -2.534  23.227  0.00  0.00    -0.273 OA
ATOM      4  N   UNL     1      -1.091   1.328  25.511  0.00  0.00    -0.297 N 
ATOM      5  N   UNL     1      -3.930  -0.829  24.767  0.00  0.00    -0.288 N 
ATOM      7  C   UNL     1      -2.978  -0.094  25.589  0.00  0.00    +0.124 C 
ATOM      9  C   UNL     1      -1.733  -0.896  25.962  0.00  0.00    +0.158 C 
ATOM     10  C   UNL     1      -2.390   1.128  24.877  0.00  0.00    +0.133 C 
ATOM     11  C   UNL     1      -0.725   0.183  26.337  0.00  0.00    +0.141 C 
ATOM     14  C   UNL     1      -0.277   2.442  25.392  0.00  0.00    +0.219 C 
ATOM     15  C   UNL     1      -3.568  -1.958  24.037  0.00  0.00    +0.242 C 
ATOM     16  C   UNL     1      -2.198  -2.527  24.360  0.00  0.00    +0.256 C 
ENDROOT
BRANCH  14   8
ATOM      8  C   UNL     1      -0.794   3.562  24.549  0.00  0.00    +0.075 C 
ATOM     12  C   UNL     1      -0.216   4.935  24.724  0.00  0.00    +0.013 C 
ATOM     13  C   UNL     1      -1.611   4.644  25.194  0.00  0.00    +0.013 C 
ENDBRANCH  14   8
BRANCH   5  17
ATOM     17  C   UNL     1      -5.253  -0.241  24.605  0.00  0.00    +0.145 C 
BRANCH  17  18
ATOM      6  N   UNL     1      -5.877   3.041  26.376  0.00  0.00    -0.263 NA
ATOM     18  C   UNL     1      -5.254   1.232  24.899  0.00  0.00    -0.012 A 
ATOM     19  C   UNL     1      -4.668   2.137  24.023  0.00  0.00    +0.008 A 
ATOM     20  C   UNL     1      -5.840   1.729  26.052  0.00  0.00    +0.115 A 
ATOM     21  C   UNL     1      -4.685   3.495  24.323  0.00  0.00    +0.020 A 
ATOM     22  C   UNL     1      -5.296   3.893  25.501  0.00  0.00    +0.111 A 
ENDBRANCH  17  18
ENDBRANCH   5  17
TORSDOF 3
ENDMDL
MODEL 5
REMARK VINA RESULT:      -4.2      1.823      4.094
REMARK  Name = 56775241
REMARK  3 active torsions:
REMARK  status: ('A' for Active; 'I' for Inactive)
REMARK    1  A    between atoms: N_5  and  C_17
REMARK    2  A    between atoms: C_8  and  C_14
REMARK    3  A    between atoms: C_17  and  C_18
REMARK                            x       y       z     vdW  Elec       q    Type
REMARK                         _______ _______ _______ _____ _____    ______ ____
ROOT
ATOM      1  O   UNL     1      -2.682   4.087  25.860  0.00  0.00    -0.364 OA
ATOM      2  O   UNL     1       1.376   2.475  23.929  0.00  0.00    -0.275 OA
ATOM      3  O   UNL     1      -5.815   2.639  26.723  0.00  0.00    -0.273 OA
ATOM      4  N   UNL     1      -0.914   2.313  24.216  0.00  0.00    -0.297 N 
ATOM      5  N   UNL     1      -4.502   2.250  24.842  0.00  0.00    -0.288 N 
ATOM      7  C   UNL     1      -3.266   2.529  24.123  0.00  0.00    +0.124 C 
ATOM      9  C   UNL     1      -2.653   3.889  24.449  0.00  0.00    +0.158 C 
ATOM     10  C   UNL     1      -2.136   1.557  24.474  0.00  0.00    +0.133 C 
ATOM     11  C   UNL     1      -1.202   3.728  24.014  0.00  0.00    +0.141 C 
ATOM     14  C   UNL     1       0.372   1.805  24.149  0.00  0.00    +0.219 C 
ATOM     15  C   UNL     1      -4.855   2.926  26.007  0.00  0.00    +0.242 C 
ATOM     16  C   UNL     1      -4.011   4.147  26.328  0.00  0.00    +0.256 C 
ENDROOT
BRANCH  14   8
ATOM      8  C   UNL     1       0.519   0.329  24.332  0.00  0.00    +0.075 C 
ATOM     12  C   UNL     1       1.202  -0.476  23.265  0.00  0.00    +0.013 C 
ATOM     13  C   UNL     1      -0.280  -0.598  23.464  0.00  0.00    +0.013 C 
ENDBRANCH  14   8
BRANCH   5  17
ATOM     17  C   UNL     1      -5.289   1.112  24.386  0.00  0.00    +0.145 C 
BRANCH  17  18
ATOM      6  N   UNL     1      -3.364  -1.617  26.161  0.00  0.00    -0.263 NA
ATOM     18  C   UNL     1      -4.590  -0.193  24.640  0.00  0.00    -0.012 A 
ATOM     19  C   UNL     1      -4.507  -1.165  23.650  0.00  0.00    +0.008 A 
ATOM     20  C   UNL     1      -4.008  -0.465  25.867  0.00  0.00    +0.115 A 
ATOM     21  C   UNL     1      -3.853  -2.364  23.914  0.00  0.00    +0.020 A 
ATOM     22  C   UNL     1      -3.303  -2.539  25.174  0.00  0.00    +0.111 A 
ENDBRANCH  17  18
ENDBRANCH   5  17
TORSDOF 3
ENDMDL
