MODEL 1
REMARK VINA RESULT:      -5.3      0.000      0.000
REMARK  Name = 75536470
REMARK  9 active torsions:
REMARK  status: ('A' for Active; 'I' for Inactive)
REMARK    1  A    between atoms: O_2  and  C_11
REMARK    2  A    between atoms: N_4  and  C_10
REMARK    3  A    between atoms: N_4  and  C_19
REMARK    4  A    between atoms: N_4  and  C_20
REMARK    5  A    between atoms: N_5  and  C_17
REMARK    6  A    between atoms: C_12  and  C_18
REMARK    7  A    between atoms: C_13  and  C_17
REMARK    8  A    between atoms: C_19  and  C_21
REMARK    9  A    between atoms: C_20  and  C_22
REMARK                            x       y       z     vdW  Elec       q    Type
REMARK                         _______ _______ _______ _____ _____    ______ ____
ROOT
ATOM      4  N   UNL     1       0.596  -0.034  23.806  0.00  0.00    -0.280 NA
ENDROOT
BRANCH   4  10
ATOM      1  O   UNL     1      -1.804  -2.767  23.845  0.00  0.00    -0.371 OA
ATOM     10  C   UNL     1      -0.061  -1.225  24.320  0.00  0.00    +0.114 C 
ATOM     11  C   UNL     1      -1.246  -0.926  25.221  0.00  0.00    +0.164 C 
ATOM     13  C   UNL     1      -1.992  -2.252  25.174  0.00  0.00    +0.165 C 
ATOM     16  C   UNL     1      -0.716  -2.058  23.230  0.00  0.00    +0.182 C 
BRANCH  11   2
ATOM      2  O   UNL     1      -0.858  -0.584  26.537  0.00  0.00    -0.388 OA
ATOM     28  H   UNL     1      -0.526   0.330  26.530  0.00  0.00    +0.210 HD
ENDBRANCH  11   2
BRANCH  13  17
ATOM     17  C   UNL     1      -3.476  -2.117  25.467  0.00  0.00    +0.138 C 
BRANCH  17   5
ATOM      3  O   UNL     1      -4.029  -0.014  23.537  0.00  0.00    -0.276 OA
ATOM      5  N   UNL     1      -3.832  -0.754  25.738  0.00  0.00    -0.313 N 
ATOM     18  C   UNL     1      -4.080   0.184  24.746  0.00  0.00    +0.216 C 
ATOM     27  H   UNL     1      -3.922  -0.474  26.710  0.00  0.00    +0.149 HD
BRANCH  18  12
ATOM     12  C   UNL     1      -4.437   1.541  25.255  0.00  0.00    +0.075 C 
ATOM     14  C   UNL     1      -5.839   2.021  25.079  0.00  0.00    +0.013 C 
ATOM     15  C   UNL     1      -4.730   2.619  24.266  0.00  0.00    +0.013 C 
ENDBRANCH  18  12
ENDBRANCH  17   5
ENDBRANCH  13  17
ENDBRANCH   4  10
BRANCH   4  19
ATOM     19  C   UNL     1      -0.390   0.977  23.416  0.00  0.00    +0.159 C 
BRANCH  19  21
ATOM      6  N   UNL     1       0.284   2.088  25.559  0.00  0.00    -0.347 N 
ATOM      8  N   UNL     1      -1.275   3.138  24.375  0.00  0.00    -0.239 NA
ATOM     21  C   UNL     1      -0.487   2.087  24.430  0.00  0.00    +0.121 A 
ATOM     23  C   UNL     1      -0.032   3.211  26.270  0.00  0.00    +0.104 A 
ATOM     25  C   UNL     1      -0.995   3.843  25.519  0.00  0.00    +0.130 A 
ATOM     29  H   UNL     1       0.966   1.388  25.820  0.00  0.00    +0.167 HD
ENDBRANCH  19  21
ENDBRANCH   4  19
BRANCH   4  20
ATOM     20  C   UNL     1       1.456  -0.366  22.666  0.00  0.00    +0.159 C 
BRANCH  20  22
ATOM      7  N   UNL     1       3.674  -1.129  23.549  0.00  0.00    -0.347 N 
ATOM      9  N   UNL     1       3.607   0.948  22.766  0.00  0.00    -0.239 NA
ATOM     22  C   UNL     1       2.911  -0.146  22.980  0.00  0.00    +0.121 A 
ATOM     24  C   UNL     1       4.936  -0.629  23.708  0.00  0.00    +0.104 A 
ATOM     26  C   UNL     1       4.870   0.655  23.217  0.00  0.00    +0.130 A 
ATOM     30  H   UNL     1       3.361  -2.055  23.808  0.00  0.00    +0.167 HD
ENDBRANCH  20  22
ENDBRANCH   4  20
TORSDOF 9
ENDMDL
MODEL 2
REMARK VINA RESULT:      -4.8      2.133      5.120
REMARK  Name = 75536470
REMARK  9 active torsions:
REMARK  status: ('A' for Active; 'I' for Inactive)
REMARK    1  A    between atoms: O_2  and  C_11
REMARK    2  A    between atoms: N_4  and  C_10
REMARK    3  A    between atoms: N_4  and  C_19
REMARK    4  A    between atoms: N_4  and  C_20
REMARK    5  A    between atoms: N_5  and  C_17
REMARK    6  A    between atoms: C_12  and  C_18
REMARK    7  A    between atoms: C_13  and  C_17
REMARK    8  A    between atoms: C_19  and  C_21
REMARK    9  A    between atoms: C_20  and  C_22
REMARK                            x       y       z     vdW  Elec       q    Type
REMARK                         _______ _______ _______ _____ _____    ______ ____
ROOT
ATOM      4  N   UNL     1      -0.034   0.815  24.804  0.00  0.00    -0.280 NA
ENDROOT
BRANCH   4  10
ATOM      1  O   UNL     1      -0.803   4.291  25.550  0.00  0.00    -0.371 OA
ATOM     10  C   UNL     1      -0.361   2.201  24.511  0.00  0.00    +0.114 C 
ATOM     11  C   UNL     1      -1.853   2.476  24.457  0.00  0.00    +0.164 C 
ATOM     13  C   UNL     1      -1.881   3.985  24.649  0.00  0.00    +0.165 C 
ATOM     16  C   UNL     1       0.080   3.158  25.607  0.00  0.00    +0.182 C 
BRANCH  11   2
ATOM      2  O   UNL     1      -2.434   2.090  23.227  0.00  0.00    -0.388 OA
ATOM     28  H   UNL     1      -2.959   1.284  23.376  0.00  0.00    +0.210 HD
ENDBRANCH  11   2
BRANCH  13  17
ATOM     17  C   UNL     1      -3.191   4.494  25.225  0.00  0.00    +0.138 C 
BRANCH  17   5
ATOM      3  O   UNL     1      -6.056   4.676  25.686  0.00  0.00    -0.276 OA
ATOM      5  N   UNL     1      -4.107   3.417  25.465  0.00  0.00    -0.313 N 
ATOM     18  C   UNL     1      -5.467   3.601  25.675  0.00  0.00    +0.216 C 
ATOM     27  H   UNL     1      -3.736   2.472  25.463  0.00  0.00    +0.149 HD
BRANCH  18  12
ATOM     12  C   UNL     1      -6.232   2.340  25.903  0.00  0.00    +0.075 C 
ATOM     14  C   UNL     1      -5.553   1.038  25.636  0.00  0.00    +0.013 C 
ATOM     15  C   UNL     1      -6.634   1.527  24.719  0.00  0.00    +0.013 C 
ENDBRANCH  18  12
ENDBRANCH  17   5
ENDBRANCH  13  17
ENDBRANCH   4  10
BRANCH   4  19
ATOM     19  C   UNL     1       0.048   0.028  23.570  0.00  0.00    +0.159 C 
BRANCH  19  21
ATOM      6  N   UNL     1       2.367   0.969  23.429  0.00  0.00    -0.347 N 
ATOM      8  N   UNL     1       1.786  -0.418  21.795  0.00  0.00    -0.239 NA
ATOM     21  C   UNL     1       1.391   0.169  22.903  0.00  0.00    +0.121 A 
ATOM     23  C   UNL     1       3.452   0.888  22.605  0.00  0.00    +0.104 A 
ATOM     25  C   UNL     1       3.071   0.026  21.604  0.00  0.00    +0.130 A 
ATOM     29  H   UNL     1       2.299   1.519  24.275  0.00  0.00    +0.167 HD
ENDBRANCH  19  21
ENDBRANCH   4  19
BRANCH   4  20
ATOM     20  C   UNL     1      -1.022   0.227  25.712  0.00  0.00    +0.159 C 
BRANCH  20  22
ATOM      7  N   UNL     1      -3.015  -0.757  24.553  0.00  0.00    -0.347 N 
ATOM      9  N   UNL     1      -1.329  -2.152  24.929  0.00  0.00    -0.239 NA
ATOM     22  C   UNL     1      -1.760  -0.918  25.071  0.00  0.00    +0.121 A 
ATOM     24  C   UNL     1      -3.410  -1.964  24.049  0.00  0.00    +0.104 A 
ATOM     26  C   UNL     1      -2.352  -2.809  24.293  0.00  0.00    +0.130 A 
ATOM     30  H   UNL     1      -3.555   0.098  24.548  0.00  0.00    +0.167 HD
ENDBRANCH  20  22
ENDBRANCH   4  20
TORSDOF 9
ENDMDL
MODEL 3
REMARK VINA RESULT:      -4.7      2.104      4.267
REMARK  Name = 75536470
REMARK  9 active torsions:
REMARK  status: ('A' for Active; 'I' for Inactive)
REMARK    1  A    between atoms: O_2  and  C_11
REMARK    2  A    between atoms: N_4  and  C_10
REMARK    3  A    between atoms: N_4  and  C_19
REMARK    4  A    between atoms: N_4  and  C_20
REMARK    5  A    between atoms: N_5  and  C_17
REMARK    6  A    between atoms: C_12  and  C_18
REMARK    7  A    between atoms: C_13  and  C_17
REMARK    8  A    between atoms: C_19  and  C_21
REMARK    9  A    between atoms: C_20  and  C_22
REMARK                            x       y       z     vdW  Elec       q    Type
REMARK                         _______ _______ _______ _____ _____    ______ ____
ROOT
ATOM      4  N   UNL     1      -0.714   0.221  24.144  0.00  0.00    -0.280 NA
ENDROOT
BRANCH   4  10
ATOM      1  O   UNL     1      -0.103   3.403  25.795  0.00  0.00    -0.371 OA
ATOM     10  C   UNL     1      -0.401   1.637  24.235  0.00  0.00    +0.114 C 
ATOM     11  C   UNL     1      -1.624   2.535  24.206  0.00  0.00    +0.164 C 
ATOM     13  C   UNL     1      -1.063   3.816  24.807  0.00  0.00    +0.165 C 
ATOM     16  C   UNL     1       0.222   2.022  25.567  0.00  0.00    +0.182 C 
BRANCH  11   2
ATOM      2  O   UNL     1      -2.121   2.739  22.898  0.00  0.00    -0.388 OA
ATOM     28  H   UNL     1      -3.027   3.085  22.966  0.00  0.00    +0.210 HD
ENDBRANCH  11   2
BRANCH  13  17
ATOM     17  C   UNL     1      -2.122   4.690  25.455  0.00  0.00    +0.138 C 
BRANCH  17   5
ATOM      3  O   UNL     1      -4.570   4.165  23.976  0.00  0.00    -0.276 OA
ATOM      5  N   UNL     1      -3.250   3.914  25.880  0.00  0.00    -0.313 N 
ATOM     18  C   UNL     1      -4.382   3.717  25.102  0.00  0.00    +0.216 C 
ATOM     27  H   UNL     1      -3.204   3.475  26.796  0.00  0.00    +0.149 HD
BRANCH  18  12
ATOM     12  C   UNL     1      -5.433   2.873  25.743  0.00  0.00    +0.075 C 
ATOM     14  C   UNL     1      -5.250   1.391  25.749  0.00  0.00    +0.013 C 
ATOM     15  C   UNL     1      -6.291   2.018  24.871  0.00  0.00    +0.013 C 
ENDBRANCH  18  12
ENDBRANCH  17   5
ENDBRANCH  13  17
ENDBRANCH   4  10
BRANCH   4  19
ATOM     19  C   UNL     1      -1.678  -0.167  25.178  0.00  0.00    +0.159 C 
BRANCH  19  21
ATOM      6  N   UNL     1      -2.585  -2.485  24.886  0.00  0.00    -0.347 N 
ATOM      8  N   UNL     1      -3.772  -0.858  23.949  0.00  0.00    -0.239 NA
ATOM     21  C   UNL     1      -2.699  -1.143  24.655  0.00  0.00    +0.121 A 
ATOM     23  C   UNL     1      -3.651  -3.096  24.290  0.00  0.00    +0.104 A 
ATOM     25  C   UNL     1      -4.369  -2.073  23.718  0.00  0.00    +0.130 A 
ATOM     29  H   UNL     1      -1.848  -2.943  25.406  0.00  0.00    +0.167 HD
ENDBRANCH  19  21
ENDBRANCH   4  19
BRANCH   4  20
ATOM     20  C   UNL     1       0.502  -0.590  24.261  0.00  0.00    +0.159 C 
BRANCH  20  22
ATOM      7  N   UNL     1       2.651   0.507  23.585  0.00  0.00    -0.347 N 
ATOM      9  N   UNL     1       1.508  -0.469  21.950  0.00  0.00    -0.239 NA
ATOM     22  C   UNL     1       1.534  -0.201  23.237  0.00  0.00    +0.121 A 
ATOM     24  C   UNL     1       3.384   0.703  22.448  0.00  0.00    +0.104 A 
ATOM     26  C   UNL     1       2.658   0.091  21.452  0.00  0.00    +0.130 A 
ATOM     30  H   UNL     1       2.890   0.830  24.512  0.00  0.00    +0.167 HD
ENDBRANCH  20  22
ENDBRANCH   4  20
TORSDOF 9
ENDMDL
MODEL 4
REMARK VINA RESULT:      -4.1      2.258      6.854
REMARK  Name = 75536470
REMARK  9 active torsions:
REMARK  status: ('A' for Active; 'I' for Inactive)
REMARK    1  A    between atoms: O_2  and  C_11
REMARK    2  A    between atoms: N_4  and  C_10
REMARK    3  A    between atoms: N_4  and  C_19
REMARK    4  A    between atoms: N_4  and  C_20
REMARK    5  A    between atoms: N_5  and  C_17
REMARK    6  A    between atoms: C_12  and  C_18
REMARK    7  A    between atoms: C_13  and  C_17
REMARK    8  A    between atoms: C_19  and  C_21
REMARK    9  A    between atoms: C_20  and  C_22
REMARK                            x       y       z     vdW  Elec       q    Type
REMARK                         _______ _______ _______ _____ _____    ______ ____
ROOT
ATOM      4  N   UNL     1      -2.533   1.170  24.719  0.00  0.00    -0.280 NA
ENDROOT
BRANCH   4  10
ATOM      1  O   UNL     1       0.911   1.949  23.847  0.00  0.00    -0.371 OA
ATOM     10  C   UNL     1      -1.084   1.087  24.805  0.00  0.00    +0.114 C 
ATOM     11  C   UNL     1      -0.479   0.037  23.891  0.00  0.00    +0.164 C 
ATOM     13  C   UNL     1       0.964   0.513  23.812  0.00  0.00    +0.165 C 
ATOM     16  C   UNL     1      -0.388   2.347  24.315  0.00  0.00    +0.182 C 
BRANCH  11   2
ATOM      2  O   UNL     1      -0.575  -1.270  24.424  0.00  0.00    -0.388 OA
ATOM     28  H   UNL     1      -1.447  -1.632  24.191  0.00  0.00    +0.210 HD
ENDBRANCH  11   2
BRANCH  13  17
ATOM     17  C   UNL     1       1.679   0.056  22.551  0.00  0.00    +0.138 C 
BRANCH  17   5
ATOM      3  O   UNL     1       3.958   1.858  22.668  0.00  0.00    -0.276 OA
ATOM      5  N   UNL     1       3.046  -0.281  22.820  0.00  0.00    -0.313 N 
ATOM     18  C   UNL     1       4.073   0.652  22.856  0.00  0.00    +0.216 C 
ATOM     27  H   UNL     1       3.264  -1.255  23.009  0.00  0.00    +0.149 HD
BRANCH  18  12
ATOM     12  C   UNL     1       5.418   0.078  23.157  0.00  0.00    +0.075 C 
ATOM     14  C   UNL     1       5.496  -1.139  24.016  0.00  0.00    +0.013 C 
ATOM     15  C   UNL     1       5.945   0.188  24.548  0.00  0.00    +0.013 C 
ENDBRANCH  18  12
ENDBRANCH  17   5
ENDBRANCH  13  17
ENDBRANCH   4  10
BRANCH   4  19
ATOM     19  C   UNL     1      -2.993   2.534  24.995  0.00  0.00    +0.159 C 
BRANCH  19  21
ATOM      6  N   UNL     1      -5.344   1.799  24.533  0.00  0.00    -0.347 N 
ATOM      8  N   UNL     1      -5.107   3.346  26.109  0.00  0.00    -0.239 NA
ATOM     21  C   UNL     1      -4.478   2.586  25.240  0.00  0.00    +0.121 A 
ATOM     23  C   UNL     1      -6.605   2.074  24.979  0.00  0.00    +0.104 A 
ATOM     25  C   UNL     1      -6.434   3.031  25.952  0.00  0.00    +0.130 A 
ATOM     29  H   UNL     1      -5.097   1.133  23.814  0.00  0.00    +0.167 HD
ENDBRANCH  19  21
ENDBRANCH   4  19
BRANCH   4  20
ATOM     20  C   UNL     1      -3.164   0.229  25.649  0.00  0.00    +0.159 C 
BRANCH  20  22
ATOM      7  N   UNL     1      -3.085  -2.265  25.415  0.00  0.00    -0.347 N 
ATOM      9  N   UNL     1      -4.329  -1.192  23.920  0.00  0.00    -0.239 NA
ATOM     22  C   UNL     1      -3.548  -1.058  24.969  0.00  0.00    +0.121 A 
ATOM     24  C   UNL     1      -3.604  -3.230  24.598  0.00  0.00    +0.104 A 
ATOM     26  C   UNL     1      -4.368  -2.543  23.683  0.00  0.00    +0.130 A 
ATOM     30  H   UNL     1      -2.469  -2.417  26.202  0.00  0.00    +0.167 HD
ENDBRANCH  20  22
ENDBRANCH   4  20
TORSDOF 9
ENDMDL
MODEL 5
REMARK VINA RESULT:      -3.8      2.240      7.468
REMARK  Name = 75536470
REMARK  9 active torsions:
REMARK  status: ('A' for Active; 'I' for Inactive)
REMARK    1  A    between atoms: O_2  and  C_11
REMARK    2  A    between atoms: N_4  and  C_10
REMARK    3  A    between atoms: N_4  and  C_19
REMARK    4  A    between atoms: N_4  and  C_20
REMARK    5  A    between atoms: N_5  and  C_17
REMARK    6  A    between atoms: C_12  and  C_18
REMARK    7  A    between atoms: C_13  and  C_17
REMARK    8  A    between atoms: C_19  and  C_21
REMARK    9  A    between atoms: C_20  and  C_22
REMARK                            x       y       z     vdW  Elec       q    Type
REMARK                         _______ _______ _______ _____ _____    ______ ____
ROOT
ATOM      4  N   UNL     1      -2.399   1.589  25.061  0.00  0.00    -0.280 NA
ENDROOT
BRANCH   4  10
ATOM      1  O   UNL     1       0.863   2.267  23.601  0.00  0.00    -0.371 OA
ATOM     10  C   UNL     1      -0.947   1.600  24.987  0.00  0.00    +0.114 C 
ATOM     11  C   UNL     1      -0.362   0.373  24.312  0.00  0.00    +0.164 C 
ATOM     13  C   UNL     1       1.024   0.878  23.935  0.00  0.00    +0.165 C 
ATOM     16  C   UNL     1      -0.407   2.714  24.105  0.00  0.00    +0.182 C 
BRANCH  11   2
ATOM      2  O   UNL     1      -0.300  -0.746  25.173  0.00  0.00    -0.388 OA
ATOM     28  H   UNL     1       0.489  -1.266  24.942  0.00  0.00    +0.210 HD
ENDBRANCH  11   2
BRANCH  13  17
ATOM     17  C   UNL     1       1.634   0.135  22.759  0.00  0.00    +0.138 C 
BRANCH  17   5
ATOM      3  O   UNL     1       4.044   1.734  22.455  0.00  0.00    -0.276 OA
ATOM      5  N   UNL     1       2.985  -0.259  23.036  0.00  0.00    -0.313 N 
ATOM     18  C   UNL     1       4.078   0.577  22.860  0.00  0.00    +0.216 C 
ATOM     27  H   UNL     1       3.139  -1.197  23.394  0.00  0.00    +0.149 HD
BRANCH  18  12
ATOM     12  C   UNL     1       5.390  -0.041  23.212  0.00  0.00    +0.075 C 
ATOM     14  C   UNL     1       5.391  -1.345  23.937  0.00  0.00    +0.013 C 
ATOM     15  C   UNL     1       5.793  -0.088  24.648  0.00  0.00    +0.013 C 
ENDBRANCH  18  12
ENDBRANCH  17   5
ENDBRANCH  13  17
ENDBRANCH   4  10
BRANCH   4  19
ATOM     19  C   UNL     1      -2.971   0.835  23.943  0.00  0.00    +0.159 C 
BRANCH  19  21
ATOM      6  N   UNL     1      -3.845  -1.460  23.439  0.00  0.00    -0.347 N 
ATOM      8  N   UNL     1      -3.227  -1.102  25.542  0.00  0.00    -0.239 NA
ATOM     21  C   UNL     1      -3.337  -0.570  24.344  0.00  0.00    +0.121 A 
ATOM     23  C   UNL     1      -4.074  -2.632  24.100  0.00  0.00    +0.104 A 
ATOM     25  C   UNL     1      -3.685  -2.388  25.396  0.00  0.00    +0.130 A 
ATOM     29  H   UNL     1      -4.018  -1.283  22.458  0.00  0.00    +0.167 HD
ENDBRANCH  19  21
ENDBRANCH   4  19
BRANCH   4  20
ATOM     20  C   UNL     1      -2.930   2.956  25.071  0.00  0.00    +0.159 C 
BRANCH  20  22
ATOM      7  N   UNL     1      -5.086   1.837  25.688  0.00  0.00    -0.347 N 
ATOM      9  N   UNL     1      -5.177   4.042  25.439  0.00  0.00    -0.239 NA
ATOM     22  C   UNL     1      -4.399   2.983  25.395  0.00  0.00    +0.121 A 
ATOM     24  C   UNL     1      -6.383   2.188  25.934  0.00  0.00    +0.104 A 
ATOM     26  C   UNL     1      -6.415   3.554  25.774  0.00  0.00    +0.130 A 
ATOM     30  H   UNL     1      -4.705   0.901  25.714  0.00  0.00    +0.167 HD
ENDBRANCH  20  22
ENDBRANCH   4  20
TORSDOF 9
ENDMDL
MODEL 6
REMARK VINA RESULT:      -3.3      2.068      6.815
REMARK  Name = 75536470
REMARK  9 active torsions:
REMARK  status: ('A' for Active; 'I' for Inactive)
REMARK    1  A    between atoms: O_2  and  C_11
REMARK    2  A    between atoms: N_4  and  C_10
REMARK    3  A    between atoms: N_4  and  C_19
REMARK    4  A    between atoms: N_4  and  C_20
REMARK    5  A    between atoms: N_5  and  C_17
REMARK    6  A    between atoms: C_12  and  C_18
REMARK    7  A    between atoms: C_13  and  C_17
REMARK    8  A    between atoms: C_19  and  C_21
REMARK    9  A    between atoms: C_20  and  C_22
REMARK                            x       y       z     vdW  Elec       q    Type
REMARK                         _______ _______ _______ _____ _____    ______ ____
ROOT
ATOM      4  N   UNL     1      -3.333   1.380  25.256  0.00  0.00    -0.280 NA
ENDROOT
BRANCH   4  10
ATOM      1  O   UNL     1      -1.095   0.993  22.415  0.00  0.00    -0.371 OA
ATOM     10  C   UNL     1      -2.179   1.665  24.419  0.00  0.00    +0.114 C 
ATOM     11  C   UNL     1      -0.954   0.841  24.771  0.00  0.00    +0.164 C 
ATOM     13  C   UNL     1      -0.141   0.963  23.489  0.00  0.00    +0.165 C 
ATOM     16  C   UNL     1      -2.393   1.278  22.964  0.00  0.00    +0.182 C 
BRANCH  11   2
ATOM      2  O   UNL     1      -0.255   1.352  25.889  0.00  0.00    -0.388 OA
ATOM     28  H   UNL     1      -0.183   2.317  25.789  0.00  0.00    +0.210 HD
ENDBRANCH  11   2
BRANCH  13  17
ATOM     17  C   UNL     1       0.829  -0.188  23.282  0.00  0.00    +0.138 C 
BRANCH  17   5
ATOM      3  O   UNL     1       2.936   0.041  21.291  0.00  0.00    -0.276 OA
ATOM      5  N   UNL     1       2.185   0.229  23.489  0.00  0.00    -0.313 N 
ATOM     18  C   UNL     1       3.126   0.309  22.472  0.00  0.00    +0.216 C 
ATOM     27  H   UNL     1       2.459   0.494  24.431  0.00  0.00    +0.149 HD
BRANCH  18  12
ATOM     12  C   UNL     1       4.475   0.769  22.915  0.00  0.00    +0.075 C 
ATOM     14  C   UNL     1       5.609  -0.201  22.866  0.00  0.00    +0.013 C 
ATOM     15  C   UNL     1       5.034   0.220  24.185  0.00  0.00    +0.013 C 
ENDBRANCH  18  12
ENDBRANCH  17   5
ENDBRANCH  13  17
ENDBRANCH   4  10
BRANCH   4  19
ATOM     19  C   UNL     1      -4.303   0.547  24.540  0.00  0.00    +0.159 C 
BRANCH  19  21
ATOM      6  N   UNL     1      -4.275  -1.804  23.672  0.00  0.00    -0.347 N 
ATOM      8  N   UNL     1      -3.434  -1.515  25.707  0.00  0.00    -0.239 NA
ATOM     21  C   UNL     1      -3.989  -0.920  24.674  0.00  0.00    +0.121 A 
ATOM     23  C   UNL     1      -3.879  -3.042  24.091  0.00  0.00    +0.104 A 
ATOM     25  C   UNL     1      -3.362  -2.838  25.349  0.00  0.00    +0.130 A 
ATOM     29  H   UNL     1      -4.701  -1.583  22.781  0.00  0.00    +0.167 HD
ENDBRANCH  19  21
ENDBRANCH   4  19
BRANCH   4  20
ATOM     20  C   UNL     1      -3.970   2.622  25.704  0.00  0.00    +0.159 C 
BRANCH  20  22
ATOM      7  N   UNL     1      -1.976   4.132  25.864  0.00  0.00    -0.347 N 
ATOM      9  N   UNL     1      -3.520   4.724  24.382  0.00  0.00    -0.239 NA
ATOM     22  C   UNL     1      -3.182   3.836  25.291  0.00  0.00    +0.121 A 
ATOM     24  C   UNL     1      -1.516   5.280  25.284  0.00  0.00    +0.104 A 
ATOM     26  C   UNL     1      -2.487   5.627  24.373  0.00  0.00    +0.130 A 
ATOM     30  H   UNL     1      -1.510   3.600  26.587  0.00  0.00    +0.167 HD
ENDBRANCH  20  22
ENDBRANCH   4  20
TORSDOF 9
ENDMDL
MODEL 7
REMARK VINA RESULT:      -2.9     15.109     16.838
REMARK  Name = 75536470
REMARK  9 active torsions:
REMARK  status: ('A' for Active; 'I' for Inactive)
REMARK    1  A    between atoms: O_2  and  C_11
REMARK    2  A    between atoms: N_4  and  C_10
REMARK    3  A    between atoms: N_4  and  C_19
REMARK    4  A    between atoms: N_4  and  C_20
REMARK    5  A    between atoms: N_5  and  C_17
REMARK    6  A    between atoms: C_12  and  C_18
REMARK    7  A    between atoms: C_13  and  C_17
REMARK    8  A    between atoms: C_19  and  C_21
REMARK    9  A    between atoms: C_20  and  C_22
REMARK                            x       y       z     vdW  Elec       q    Type
REMARK                         _______ _______ _______ _____ _____    ______ ____
ROOT
ATOM      4  N   UNL     1      -2.650  -9.703  11.521  0.00  0.00    -0.280 NA
ENDROOT
BRANCH   4  10
ATOM      1  O   UNL     1      -5.489  -9.602   9.249  0.00  0.00    -0.371 OA
ATOM     10  C   UNL     1      -3.834 -10.205  10.843  0.00  0.00    +0.114 C 
ATOM     11  C   UNL     1      -5.130  -9.895  11.569  0.00  0.00    +0.164 C 
ATOM     13  C   UNL     1      -6.143 -10.061  10.445  0.00  0.00    +0.165 C 
ATOM     16  C   UNL     1      -4.075  -9.537   9.499  0.00  0.00    +0.182 C 
BRANCH  11   2
ATOM      2  O   UNL     1      -5.381 -10.781  12.641  0.00  0.00    -0.388 OA
ATOM     28  H   UNL     1      -5.740 -10.268  13.385  0.00  0.00    +0.210 HD
ENDBRANCH  11   2
BRANCH  13  17
ATOM     17  C   UNL     1      -7.421  -9.270  10.665  0.00  0.00    +0.138 C 
BRANCH  17   5
ATOM      3  O   UNL     1      -9.952  -8.045   9.927  0.00  0.00    -0.276 OA
ATOM      5  N   UNL     1      -7.671  -8.369   9.579  0.00  0.00    -0.313 N 
ATOM     18  C   UNL     1      -8.920  -7.831   9.301  0.00  0.00    +0.216 C 
ATOM     27  H   UNL     1      -6.883  -8.103   8.995  0.00  0.00    +0.149 HD
BRANCH  18  12
ATOM     12  C   UNL     1      -8.949  -6.914   8.124  0.00  0.00    +0.075 C 
ATOM     14  C   UNL     1      -8.383  -5.541   8.277  0.00  0.00    +0.013 C 
ATOM     15  C   UNL     1      -9.865  -5.737   8.160  0.00  0.00    +0.013 C 
ENDBRANCH  18  12
ENDBRANCH  17   5
ENDBRANCH  13  17
ENDBRANCH   4  10
BRANCH   4  19
ATOM     19  C   UNL     1      -1.709  -9.120  10.562  0.00  0.00    +0.159 C 
BRANCH  19  21
ATOM      6  N   UNL     1       0.738  -8.608  10.752  0.00  0.00    -0.347 N 
ATOM      8  N   UNL     1      -0.553  -7.768  12.353  0.00  0.00    -0.239 NA
ATOM     21  C   UNL     1      -0.529  -8.484  11.250  0.00  0.00    +0.121 A 
ATOM     23  C   UNL     1       1.576  -7.930  11.590  0.00  0.00    +0.104 A 
ATOM     25  C   UNL     1       0.757  -7.419  12.570  0.00  0.00    +0.130 A 
ATOM     29  H   UNL     1       1.006  -9.109   9.916  0.00  0.00    +0.167 HD
ENDBRANCH  19  21
ENDBRANCH   4  19
BRANCH   4  20
ATOM     20  C   UNL     1      -1.996 -10.771  12.284  0.00  0.00    +0.159 C 
BRANCH  20  22
ATOM      7  N   UNL     1      -1.016 -10.155  14.507  0.00  0.00    -0.347 N 
ATOM      9  N   UNL     1      -3.175 -10.675  14.513  0.00  0.00    -0.239 NA
ATOM     22  C   UNL     1      -2.100 -10.542  13.768  0.00  0.00    +0.121 A 
ATOM     24  C   UNL     1      -1.426 -10.033  15.805  0.00  0.00    +0.104 A 
ATOM     26  C   UNL     1      -2.762 -10.359  15.783  0.00  0.00    +0.130 A 
ATOM     30  H   UNL     1      -0.081  -9.992  14.159  0.00  0.00    +0.167 HD
ENDBRANCH  20  22
ENDBRANCH   4  20
TORSDOF 9
ENDMDL
MODEL 8
REMARK VINA RESULT:      -2.8     14.640     17.421
REMARK  Name = 75536470
REMARK  9 active torsions:
REMARK  status: ('A' for Active; 'I' for Inactive)
REMARK    1  A    between atoms: O_2  and  C_11
REMARK    2  A    between atoms: N_4  and  C_10
REMARK    3  A    between atoms: N_4  and  C_19
REMARK    4  A    between atoms: N_4  and  C_20
REMARK    5  A    between atoms: N_5  and  C_17
REMARK    6  A    between atoms: C_12  and  C_18
REMARK    7  A    between atoms: C_13  and  C_17
REMARK    8  A    between atoms: C_19  and  C_21
REMARK    9  A    between atoms: C_20  and  C_22
REMARK                            x       y       z     vdW  Elec       q    Type
REMARK                         _______ _______ _______ _____ _____    ______ ____
ROOT
ATOM      4  N   UNL     1      -6.070 -10.279  13.044  0.00  0.00    -0.280 NA
ENDROOT
BRANCH   4  10
ATOM      1  O   UNL     1      -2.463 -10.451  12.613  0.00  0.00    -0.371 OA
ATOM     10  C   UNL     1      -4.816 -10.750  12.481  0.00  0.00    +0.114 C 
ATOM     11  C   UNL     1      -4.350  -9.951  11.278  0.00  0.00    +0.164 C 
ATOM     13  C   UNL     1      -2.871 -10.311  11.241  0.00  0.00    +0.165 C 
ATOM     16  C   UNL     1      -3.639 -10.578  13.429  0.00  0.00    +0.182 C 
BRANCH  11   2
ATOM      2  O   UNL     1      -5.012 -10.324  10.086  0.00  0.00    -0.388 OA
ATOM     28  H   UNL     1      -5.953 -10.096  10.174  0.00  0.00    +0.210 HD
ENDBRANCH  11   2
BRANCH  13  17
ATOM     17  C   UNL     1      -2.014  -9.260  10.557  0.00  0.00    +0.138 C 
BRANCH  17   5
ATOM      3  O   UNL     1       0.882  -9.010  10.496  0.00  0.00    -0.276 OA
ATOM      5  N   UNL     1      -1.176  -8.576  11.498  0.00  0.00    -0.313 N 
ATOM     18  C   UNL     1       0.205  -8.508  11.386  0.00  0.00    +0.216 C 
ATOM     27  H   UNL     1      -1.628  -8.104  12.276  0.00  0.00    +0.149 HD
BRANCH  18  12
ATOM     12  C   UNL     1       0.876  -7.742  12.478  0.00  0.00    +0.075 C 
ATOM     14  C   UNL     1       0.588  -6.283  12.603  0.00  0.00    +0.013 C 
ATOM     15  C   UNL     1       1.925  -6.748  12.109  0.00  0.00    +0.013 C 
ENDBRANCH  18  12
ENDBRANCH  17   5
ENDBRANCH  13  17
ENDBRANCH   4  10
BRANCH   4  19
ATOM     19  C   UNL     1      -6.533  -9.074  12.349  0.00  0.00    +0.159 C 
BRANCH  19  21
ATOM      6  N   UNL     1      -8.757 -10.144  11.913  0.00  0.00    -0.347 N 
ATOM      8  N   UNL     1      -7.939  -8.907  10.260  0.00  0.00    -0.239 NA
ATOM     21  C   UNL     1      -7.730  -9.353  11.478  0.00  0.00    +0.121 A 
ATOM     23  C   UNL     1      -9.680 -10.206  10.908  0.00  0.00    +0.104 A 
ATOM     25  C   UNL     1      -9.154  -9.434   9.899  0.00  0.00    +0.130 A 
ATOM     29  H   UNL     1      -8.823 -10.598  12.814  0.00  0.00    +0.167 HD
ENDBRANCH  19  21
ENDBRANCH   4  19
BRANCH   4  20
ATOM     20  C   UNL     1      -5.929 -10.010  14.478  0.00  0.00    +0.159 C 
BRANCH  20  22
ATOM      7  N   UNL     1      -7.483  -9.196  16.268  0.00  0.00    -0.347 N 
ATOM      9  N   UNL     1      -8.328 -10.691  14.860  0.00  0.00    -0.239 NA
ATOM     22  C   UNL     1      -7.262  -9.991  15.178  0.00  0.00    +0.121 A 
ATOM     24  C   UNL     1      -8.772  -9.402  16.672  0.00  0.00    +0.104 A 
ATOM     26  C   UNL     1      -9.273 -10.329  15.787  0.00  0.00    +0.130 A 
ATOM     30  H   UNL     1      -6.814  -8.573  16.700  0.00  0.00    +0.167 HD
ENDBRANCH  20  22
ENDBRANCH   4  20
TORSDOF 9
ENDMDL
MODEL 9
REMARK VINA RESULT:      -2.7     14.446     16.257
REMARK  Name = 75536470
REMARK  9 active torsions:
REMARK  status: ('A' for Active; 'I' for Inactive)
REMARK    1  A    between atoms: O_2  and  C_11
REMARK    2  A    between atoms: N_4  and  C_10
REMARK    3  A    between atoms: N_4  and  C_19
REMARK    4  A    between atoms: N_4  and  C_20
REMARK    5  A    between atoms: N_5  and  C_17
REMARK    6  A    between atoms: C_12  and  C_18
REMARK    7  A    between atoms: C_13  and  C_17
REMARK    8  A    between atoms: C_19  and  C_21
REMARK    9  A    between atoms: C_20  and  C_22
REMARK                            x       y       z     vdW  Elec       q    Type
REMARK                         _______ _______ _______ _____ _____    ______ ____
ROOT
ATOM      4  N   UNL     1      -2.502  -9.772  11.744  0.00  0.00    -0.280 NA
ENDROOT
BRANCH   4  10
ATOM      1  O   UNL     1      -5.409  -9.956   9.565  0.00  0.00    -0.371 OA
ATOM     10  C   UNL     1      -3.711 -10.349  11.179  0.00  0.00    +0.114 C 
ATOM     11  C   UNL     1      -4.981  -9.922  11.891  0.00  0.00    +0.164 C 
ATOM     13  C   UNL     1      -6.030 -10.233  10.832  0.00  0.00    +0.165 C 
ATOM     16  C   UNL     1      -3.987  -9.874   9.761  0.00  0.00    +0.182 C 
BRANCH  11   2
ATOM      2  O   UNL     1      -5.207 -10.645  13.085  0.00  0.00    -0.388 OA
ATOM     28  H   UNL     1      -6.128 -10.502  13.360  0.00  0.00    +0.210 HD
ENDBRANCH  11   2
BRANCH  13  17
ATOM     17  C   UNL     1      -7.293  -9.402  10.977  0.00  0.00    +0.138 C 
BRANCH  17   5
ATOM      3  O   UNL     1     -10.043 -10.125  11.589  0.00  0.00    -0.276 OA
ATOM      5  N   UNL     1      -7.884  -9.572  12.272  0.00  0.00    -0.313 N 
ATOM     18  C   UNL     1      -9.213  -9.921  12.468  0.00  0.00    +0.216 C 
ATOM     27  H   UNL     1      -7.287  -9.445  13.084  0.00  0.00    +0.149 HD
BRANCH  18  12
ATOM     12  C   UNL     1      -9.613 -10.045  13.901  0.00  0.00    +0.075 C 
ATOM     14  C   UNL     1      -9.771  -8.799  14.706  0.00  0.00    +0.013 C 
ATOM     15  C   UNL     1      -8.609  -9.713  14.953  0.00  0.00    +0.013 C 
ENDBRANCH  18  12
ENDBRANCH  17   5
ENDBRANCH  13  17
ENDBRANCH   4  10
BRANCH   4  19
ATOM     19  C   UNL     1      -1.667  -9.182  10.694  0.00  0.00    +0.159 C 
BRANCH  19  21
ATOM      6  N   UNL     1       0.801  -8.747  10.718  0.00  0.00    -0.347 N 
ATOM      8  N   UNL     1      -0.378  -7.709  12.288  0.00  0.00    -0.239 NA
ATOM     21  C   UNL     1      -0.434  -8.528  11.260  0.00  0.00    +0.121 A 
ATOM     23  C   UNL     1       1.703  -8.023  11.445  0.00  0.00    +0.104 A 
ATOM     25  C   UNL     1       0.952  -7.391  12.408  0.00  0.00    +0.130 A 
ATOM     29  H   UNL     1       1.010  -9.335   9.922  0.00  0.00    +0.167 HD
ENDBRANCH  19  21
ENDBRANCH   4  19
BRANCH   4  20
ATOM     20  C   UNL     1      -1.741 -10.781  12.486  0.00  0.00    +0.159 C 
BRANCH  20  22
ATOM      7  N   UNL     1      -0.746 -10.075  14.675  0.00  0.00    -0.347 N 
ATOM      9  N   UNL     1      -2.850 -10.781  14.752  0.00  0.00    -0.239 NA
ATOM     22  C   UNL     1      -1.815 -10.558  13.973  0.00  0.00    +0.121 A 
ATOM     24  C   UNL     1      -1.123  -9.985  15.985  0.00  0.00    +0.104 A 
ATOM     26  C   UNL     1      -2.425 -10.426  16.008  0.00  0.00    +0.130 A 
ATOM     30  H   UNL     1       0.159  -9.832  14.296  0.00  0.00    +0.167 HD
ENDBRANCH  20  22
ENDBRANCH   4  20
TORSDOF 9
ENDMDL
MODEL 10
REMARK VINA RESULT:      -2.4     15.389     17.974
REMARK  Name = 75536470
REMARK  9 active torsions:
REMARK  status: ('A' for Active; 'I' for Inactive)
REMARK    1  A    between atoms: O_2  and  C_11
REMARK    2  A    between atoms: N_4  and  C_10
REMARK    3  A    between atoms: N_4  and  C_19
REMARK    4  A    between atoms: N_4  and  C_20
REMARK    5  A    between atoms: N_5  and  C_17
REMARK    6  A    between atoms: C_12  and  C_18
REMARK    7  A    between atoms: C_13  and  C_17
REMARK    8  A    between atoms: C_19  and  C_21
REMARK    9  A    between atoms: C_20  and  C_22
REMARK                            x       y       z     vdW  Elec       q    Type
REMARK                         _______ _______ _______ _____ _____    ______ ____
ROOT
ATOM      4  N   UNL     1      -7.061 -10.236  11.187  0.00  0.00    -0.280 NA
ENDROOT
BRANCH   4  10
ATOM      1  O   UNL     1      -3.805  -9.331   9.841  0.00  0.00    -0.371 OA
ATOM     10  C   UNL     1      -5.801  -9.514  11.116  0.00  0.00    +0.114 C 
ATOM     11  C   UNL     1      -4.669 -10.189  11.869  0.00  0.00    +0.164 C 
ATOM     13  C   UNL     1      -3.456  -9.537  11.221  0.00  0.00    +0.165 C 
ATOM     16  C   UNL     1      -5.231  -9.454   9.708  0.00  0.00    +0.182 C 
BRANCH  11   2
ATOM      2  O   UNL     1      -4.718  -9.946  13.261  0.00  0.00    -0.388 OA
ATOM     28  H   UNL     1      -5.094  -9.060  13.404  0.00  0.00    +0.210 HD
ENDBRANCH  11   2
BRANCH  13  17
ATOM     17  C   UNL     1      -2.199 -10.384  11.310  0.00  0.00    +0.138 C 
BRANCH  17   5
ATOM      3  O   UNL     1      -0.794  -8.870  13.357  0.00  0.00    -0.276 OA
ATOM      5  N   UNL     1      -1.932 -10.781  12.662  0.00  0.00    -0.313 N 
ATOM     18  C   UNL     1      -1.251  -9.987  13.573  0.00  0.00    +0.216 C 
ATOM     27  H   UNL     1      -2.279 -11.687  12.965  0.00  0.00    +0.149 HD
BRANCH  18  12
ATOM     12  C   UNL     1      -1.089 -10.599  14.925  0.00  0.00    +0.075 C 
ATOM     14  C   UNL     1      -2.298 -10.751  15.787  0.00  0.00    +0.013 C 
ATOM     15  C   UNL     1      -1.254  -9.729  16.126  0.00  0.00    +0.013 C 
ENDBRANCH  18  12
ENDBRANCH  17   5
ENDBRANCH  13  17
ENDBRANCH   4  10
BRANCH   4  19
ATOM     19  C   UNL     1      -7.535 -10.588   9.846  0.00  0.00    +0.159 C 
BRANCH  19  21
ATOM      6  N   UNL     1      -9.775  -9.894   8.959  0.00  0.00    -0.347 N 
ATOM      8  N   UNL     1      -8.250  -8.285   9.098  0.00  0.00    -0.239 NA
ATOM     21  C   UNL     1      -8.494  -9.561   9.303  0.00  0.00    +0.121 A 
ATOM     23  C   UNL     1     -10.386  -8.761   8.505  0.00  0.00    +0.104 A 
ATOM     25  C   UNL     1      -9.425  -7.781   8.600  0.00  0.00    +0.130 A 
ATOM     29  H   UNL     1     -10.194 -10.812   9.030  0.00  0.00    +0.167 HD
ENDBRANCH  19  21
ENDBRANCH   4  19
BRANCH   4  20
ATOM     20  C   UNL     1      -8.076  -9.444  11.889  0.00  0.00    +0.159 C 
BRANCH  20  22
ATOM      7  N   UNL     1      -7.238 -10.472  14.015  0.00  0.00    -0.347 N 
ATOM      9  N   UNL     1      -9.364  -9.833  14.023  0.00  0.00    -0.239 NA
ATOM     22  C   UNL     1      -8.263  -9.905  13.309  0.00  0.00    +0.121 A 
ATOM     24  C   UNL     1      -7.716 -10.781  15.257  0.00  0.00    +0.104 A 
ATOM     26  C   UNL     1      -9.031 -10.377  15.238  0.00  0.00    +0.130 A 
ATOM     30  H   UNL     1      -6.298 -10.636  13.679  0.00  0.00    +0.167 HD
ENDBRANCH  20  22
ENDBRANCH   4  20
TORSDOF 9
ENDMDL
