MODEL 1
REMARK VINA RESULT:      -4.5      0.000      0.000
REMARK  Name = 75367104
REMARK  9 active torsions:
REMARK  status: ('A' for Active; 'I' for Inactive)
REMARK    1  A    between atoms: O_2  and  C_9
REMARK    2  A    between atoms: N_5  and  C_8
REMARK    3  A    between atoms: N_5  and  C_13
REMARK    4  A    between atoms: N_6  and  C_14
REMARK    5  A    between atoms: C_10  and  C_14
REMARK    6  A    between atoms: C_12  and  C_13
REMARK    7  A    between atoms: C_12  and  C_15
REMARK    8  A    between atoms: C_12  and  C_16
REMARK    9  A    between atoms: C_12  and  C_17
REMARK                            x       y       z     vdW  Elec       q    Type
REMARK                         _______ _______ _______ _____ _____    ______ ____
ROOT
ATOM      1  O   UNL     1      -0.181   3.874  23.743  0.00  0.00    -0.371 OA
ATOM      8  C   UNL     1      -1.398   4.203  25.756  0.00  0.00    +0.111 C 
ATOM      9  C   UNL     1      -0.853   2.787  25.732  0.00  0.00    +0.164 C 
ATOM     10  C   UNL     1       0.275   2.923  24.719  0.00  0.00    +0.165 C 
ATOM     11  C   UNL     1      -1.307   4.585  24.288  0.00  0.00    +0.181 C 
ENDROOT
BRANCH   9   2
ATOM      2  O   UNL     1      -0.379   2.363  26.996  0.00  0.00    -0.388 OA
ATOM     24  H   UNL     1       0.588   2.470  27.011  0.00  0.00    +0.210 HD
ENDBRANCH   9   2
BRANCH   8   5
ATOM      5  N   UNL     1      -2.748   4.300  26.284  0.00  0.00    -0.308 NA
ATOM     23  H   UNL     1      -3.239   5.050  25.802  0.00  0.00    +0.122 HD
BRANCH   5  13
ATOM     13  C   UNL     1      -3.476   3.049  26.098  0.00  0.00    +0.087 C 
BRANCH  13  12
ATOM     12  C   UNL     1      -4.742   3.180  25.212  0.00  0.00    -0.025 C 
ATOM     15  C   UNL     1      -5.629   1.943  25.452  0.00  0.00    +0.012 C 
ATOM     16  C   UNL     1      -5.542   4.440  25.582  0.00  0.00    +0.012 C 
ATOM     17  C   UNL     1      -4.373   3.232  23.719  0.00  0.00    +0.012 C 
ENDBRANCH  13  12
ENDBRANCH   5  13
ENDBRANCH   8   5
BRANCH  10  14
ATOM     14  C   UNL     1       0.628   1.615  24.034  0.00  0.00    +0.140 C 
BRANCH  14   6
ATOM      3  O   UNL     1      -3.795  -2.986  24.714  0.00  0.00    -0.377 OA
ATOM      4  O   UNL     1      -2.043   1.379  23.178  0.00  0.00    -0.253 OA
ATOM      6  N   UNL     1      -0.287   0.559  24.406  0.00  0.00    -0.297 N 
ATOM      7  N   UNL     1      -2.364  -0.569  24.395  0.00  0.00    -0.281 N 
ATOM     18  C   UNL     1      -1.596   0.514  23.939  0.00  0.00    +0.302 C 
ATOM     19  C   UNL     1      -3.757  -0.691  23.958  0.00  0.00    +0.137 C 
ATOM     20  C   UNL     1      -1.961  -1.552  25.412  0.00  0.00    +0.137 C 
ATOM     21  C   UNL     1      -4.095  -2.132  23.608  0.00  0.00    +0.179 C 
ATOM     22  C   UNL     1      -2.400  -2.957  25.014  0.00  0.00    +0.179 C 
ATOM     25  H   UNL     1       0.075  -0.137  25.042  0.00  0.00    +0.150 HD
ENDBRANCH  14   6
ENDBRANCH  10  14
TORSDOF 6
ENDMDL
MODEL 2
REMARK VINA RESULT:      -4.5      2.015      4.815
REMARK  Name = 75367104
REMARK  9 active torsions:
REMARK  status: ('A' for Active; 'I' for Inactive)
REMARK    1  A    between atoms: O_2  and  C_9
REMARK    2  A    between atoms: N_5  and  C_8
REMARK    3  A    between atoms: N_5  and  C_13
REMARK    4  A    between atoms: N_6  and  C_14
REMARK    5  A    between atoms: C_10  and  C_14
REMARK    6  A    between atoms: C_12  and  C_13
REMARK    7  A    between atoms: C_12  and  C_15
REMARK    8  A    between atoms: C_12  and  C_16
REMARK    9  A    between atoms: C_12  and  C_17
REMARK                            x       y       z     vdW  Elec       q    Type
REMARK                         _______ _______ _______ _____ _____    ______ ____
ROOT
ATOM      1  O   UNL     1      -0.280   1.219  25.895  0.00  0.00    -0.371 OA
ATOM      8  C   UNL     1      -0.158  -0.933  24.898  0.00  0.00    +0.111 C 
ATOM      9  C   UNL     1      -0.095   0.121  23.809  0.00  0.00    +0.164 C 
ATOM     10  C   UNL     1       0.344   1.341  24.607  0.00  0.00    +0.165 C 
ATOM     11  C   UNL     1      -0.736  -0.136  26.056  0.00  0.00    +0.181 C 
ENDROOT
BRANCH   9   2
ATOM      2  O   UNL     1       0.829  -0.203  22.788  0.00  0.00    -0.388 OA
ATOM     24  H   UNL     1       0.371  -0.147  21.932  0.00  0.00    +0.210 HD
ENDBRANCH   9   2
BRANCH   8   5
ATOM      5  N   UNL     1      -0.967  -2.088  24.546  0.00  0.00    -0.308 NA
ATOM     23  H   UNL     1      -1.245  -2.571  25.399  0.00  0.00    +0.122 HD
BRANCH   5  13
ATOM     13  C   UNL     1      -2.160  -1.689  23.808  0.00  0.00    +0.087 C 
BRANCH  13  12
ATOM     12  C   UNL     1      -3.488  -1.930  24.572  0.00  0.00    -0.025 C 
ATOM     15  C   UNL     1      -3.229  -2.978  25.670  0.00  0.00    +0.012 C 
ATOM     16  C   UNL     1      -3.981  -0.633  25.235  0.00  0.00    +0.012 C 
ATOM     17  C   UNL     1      -4.581  -2.467  23.632  0.00  0.00    +0.012 C 
ENDBRANCH  13  12
ENDBRANCH   5  13
ENDBRANCH   8   5
BRANCH  10  14
ATOM     14  C   UNL     1      -0.060   2.656  23.964  0.00  0.00    +0.140 C 
BRANCH  14   6
ATOM      3  O   UNL     1      -6.151   3.548  25.779  0.00  0.00    -0.377 OA
ATOM      4  O   UNL     1      -2.516   1.687  22.987  0.00  0.00    -0.253 OA
ATOM      6  N   UNL     1      -1.370   3.080  24.404  0.00  0.00    -0.297 N 
ATOM      7  N   UNL     1      -3.734   3.070  24.395  0.00  0.00    -0.281 N 
ATOM     18  C   UNL     1      -2.539   2.551  23.869  0.00  0.00    +0.302 C 
ATOM     19  C   UNL     1      -5.014   2.574  23.883  0.00  0.00    +0.137 C 
ATOM     20  C   UNL     1      -3.852   4.199  25.329  0.00  0.00    +0.137 C 
ATOM     21  C   UNL     1      -6.003   2.349  25.015  0.00  0.00    +0.179 C 
ATOM     22  C   UNL     1      -4.913   3.917  26.388  0.00  0.00    +0.179 C 
ATOM     25  H   UNL     1      -1.387   3.801  25.112  0.00  0.00    +0.150 HD
ENDBRANCH  14   6
ENDBRANCH  10  14
TORSDOF 6
ENDMDL
MODEL 3
REMARK VINA RESULT:      -4.1      1.970      4.176
REMARK  Name = 75367104
REMARK  9 active torsions:
REMARK  status: ('A' for Active; 'I' for Inactive)
REMARK    1  A    between atoms: O_2  and  C_9
REMARK    2  A    between atoms: N_5  and  C_8
REMARK    3  A    between atoms: N_5  and  C_13
REMARK    4  A    between atoms: N_6  and  C_14
REMARK    5  A    between atoms: C_10  and  C_14
REMARK    6  A    between atoms: C_12  and  C_13
REMARK    7  A    between atoms: C_12  and  C_15
REMARK    8  A    between atoms: C_12  and  C_16
REMARK    9  A    between atoms: C_12  and  C_17
REMARK                            x       y       z     vdW  Elec       q    Type
REMARK                         _______ _______ _______ _____ _____    ______ ____
ROOT
ATOM      1  O   UNL     1      -6.026   2.847  25.884  0.00  0.00    -0.371 OA
ATOM      8  C   UNL     1      -4.282   4.075  24.839  0.00  0.00    +0.111 C 
ATOM      9  C   UNL     1      -4.262   2.650  24.321  0.00  0.00    +0.164 C 
ATOM     10  C   UNL     1      -5.679   2.198  24.650  0.00  0.00    +0.165 C 
ATOM     11  C   UNL     1      -5.097   3.921  26.112  0.00  0.00    +0.181 C 
ENDROOT
BRANCH   9   2
ATOM      2  O   UNL     1      -3.994   2.577  22.933  0.00  0.00    -0.388 OA
ATOM     24  H   UNL     1      -4.620   3.160  22.470  0.00  0.00    +0.210 HD
ENDBRANCH   9   2
BRANCH   8   5
ATOM      5  N   UNL     1      -2.959   4.628  25.076  0.00  0.00    -0.308 NA
ATOM     23  H   UNL     1      -3.053   5.508  25.580  0.00  0.00    +0.122 HD
BRANCH   5  13
ATOM     13  C   UNL     1      -2.138   3.710  25.857  0.00  0.00    +0.087 C 
BRANCH  13  12
ATOM     12  C   UNL     1      -0.767   3.381  25.212  0.00  0.00    -0.025 C 
ATOM     15  C   UNL     1      -0.171   4.687  24.653  0.00  0.00    +0.012 C 
ATOM     16  C   UNL     1       0.204   2.802  26.254  0.00  0.00    +0.012 C 
ATOM     17  C   UNL     1      -0.923   2.381  24.052  0.00  0.00    +0.012 C 
ENDBRANCH  13  12
ENDBRANCH   5  13
ENDBRANCH   8   5
BRANCH  10  14
ATOM     14  C   UNL     1      -5.808   0.693  24.807  0.00  0.00    +0.140 C 
BRANCH  14   6
ATOM      3  O   UNL     1      -0.134  -2.257  25.350  0.00  0.00    -0.377 OA
ATOM      4  O   UNL     1      -4.766  -1.680  23.710  0.00  0.00    -0.253 OA
ATOM      6  N   UNL     1      -4.542   0.087  25.156  0.00  0.00    -0.297 N 
ATOM      7  N   UNL     1      -2.853  -1.559  25.015  0.00  0.00    -0.281 N 
ATOM     18  C   UNL     1      -4.099  -1.091  24.567  0.00  0.00    +0.302 C 
ATOM     19  C   UNL     1      -2.311  -2.799  24.452  0.00  0.00    +0.137 C 
ATOM     20  C   UNL     1      -2.068  -1.008  26.129  0.00  0.00    +0.137 C 
ATOM     21  C   UNL     1      -0.824  -2.663  24.166  0.00  0.00    +0.179 C 
ATOM     22  C   UNL     1      -0.584  -0.973  25.783  0.00  0.00    +0.179 C 
ATOM     25  H   UNL     1      -4.007   0.560  25.870  0.00  0.00    +0.150 HD
ENDBRANCH  14   6
ENDBRANCH  10  14
TORSDOF 6
ENDMDL
MODEL 4
REMARK VINA RESULT:      -3.3      2.138      4.690
REMARK  Name = 75367104
REMARK  9 active torsions:
REMARK  status: ('A' for Active; 'I' for Inactive)
REMARK    1  A    between atoms: O_2  and  C_9
REMARK    2  A    between atoms: N_5  and  C_8
REMARK    3  A    between atoms: N_5  and  C_13
REMARK    4  A    between atoms: N_6  and  C_14
REMARK    5  A    between atoms: C_10  and  C_14
REMARK    6  A    between atoms: C_12  and  C_13
REMARK    7  A    between atoms: C_12  and  C_15
REMARK    8  A    between atoms: C_12  and  C_16
REMARK    9  A    between atoms: C_12  and  C_17
REMARK                            x       y       z     vdW  Elec       q    Type
REMARK                         _______ _______ _______ _____ _____    ______ ____
ROOT
ATOM      1  O   UNL     1      -4.328  -0.316  25.644  0.00  0.00    -0.371 OA
ATOM      8  C   UNL     1      -4.494   1.655  24.328  0.00  0.00    +0.111 C 
ATOM      9  C   UNL     1      -3.290   0.853  23.868  0.00  0.00    +0.164 C 
ATOM     10  C   UNL     1      -3.639  -0.530  24.400  0.00  0.00    +0.165 C 
ATOM     11  C   UNL     1      -4.744   1.059  25.704  0.00  0.00    +0.181 C 
ENDROOT
BRANCH   9   2
ATOM      2  O   UNL     1      -3.139   0.855  22.462  0.00  0.00    -0.388 OA
ATOM     24  H   UNL     1      -3.675   1.581  22.098  0.00  0.00    +0.210 HD
ENDBRANCH   9   2
BRANCH   8   5
ATOM      5  N   UNL     1      -4.259   3.089  24.366  0.00  0.00    -0.308 NA
ATOM     23  H   UNL     1      -4.579   3.453  25.261  0.00  0.00    +0.122 HD
BRANCH   5  13
ATOM     13  C   UNL     1      -2.843   3.394  24.197  0.00  0.00    +0.087 C 
BRANCH  13  12
ATOM     12  C   UNL     1      -2.187   4.056  25.437  0.00  0.00    -0.025 C 
ATOM     15  C   UNL     1      -3.285   4.313  26.485  0.00  0.00    +0.012 C 
ATOM     16  C   UNL     1      -1.124   3.131  26.053  0.00  0.00    +0.012 C 
ATOM     17  C   UNL     1      -1.537   5.402  25.071  0.00  0.00    +0.012 C 
ENDBRANCH  13  12
ENDBRANCH   5  13
ENDBRANCH   8   5
BRANCH  10  14
ATOM     14  C   UNL     1      -2.422  -1.408  24.633  0.00  0.00    +0.140 C 
BRANCH  14   6
ATOM      3  O   UNL     1       3.067   0.436  21.866  0.00  0.00    -0.377 OA
ATOM      4  O   UNL     1      -0.416   0.420  25.378  0.00  0.00    -0.253 OA
ATOM      6  N   UNL     1      -1.307  -0.997  23.809  0.00  0.00    -0.297 N 
ATOM      7  N   UNL     1       0.663   0.221  23.335  0.00  0.00    -0.281 N 
ATOM     18  C   UNL     1      -0.356  -0.085  24.253  0.00  0.00    +0.302 C 
ATOM     19  C   UNL     1       1.704   1.178  23.717  0.00  0.00    +0.137 C 
ATOM     20  C   UNL     1       0.726  -0.215  21.932  0.00  0.00    +0.137 C 
ATOM     21  C   UNL     1       3.076   0.698  23.270  0.00  0.00    +0.179 C 
ATOM     22  C   UNL     1       2.148  -0.611  21.551  0.00  0.00    +0.179 C 
ATOM     25  H   UNL     1      -1.270  -1.397  22.882  0.00  0.00    +0.150 HD
ENDBRANCH  14   6
ENDBRANCH  10  14
TORSDOF 6
ENDMDL
MODEL 5
REMARK VINA RESULT:      -3.1      2.005      4.413
REMARK  Name = 75367104
REMARK  9 active torsions:
REMARK  status: ('A' for Active; 'I' for Inactive)
REMARK    1  A    between atoms: O_2  and  C_9
REMARK    2  A    between atoms: N_5  and  C_8
REMARK    3  A    between atoms: N_5  and  C_13
REMARK    4  A    between atoms: N_6  and  C_14
REMARK    5  A    between atoms: C_10  and  C_14
REMARK    6  A    between atoms: C_12  and  C_13
REMARK    7  A    between atoms: C_12  and  C_15
REMARK    8  A    between atoms: C_12  and  C_16
REMARK    9  A    between atoms: C_12  and  C_17
REMARK                            x       y       z     vdW  Elec       q    Type
REMARK                         _______ _______ _______ _____ _____    ______ ____
ROOT
ATOM      1  O   UNL     1      -0.188  -1.064  23.034  0.00  0.00    -0.371 OA
ATOM      8  C   UNL     1       0.692   0.619  24.461  0.00  0.00    +0.111 C 
ATOM      9  C   UNL     1      -0.690   0.229  24.950  0.00  0.00    +0.164 C 
ATOM     10  C   UNL     1      -0.853  -1.141  24.306  0.00  0.00    +0.165 C 
ATOM     11  C   UNL     1       0.666   0.093  23.035  0.00  0.00    +0.181 C 
ENDROOT
BRANCH   9   2
ATOM      2  O   UNL     1      -0.772   0.162  26.361  0.00  0.00    -0.388 OA
ATOM     24  H   UNL     1      -0.430   0.996  26.727  0.00  0.00    +0.210 HD
ENDBRANCH   9   2
BRANCH   8   5
ATOM      5  N   UNL     1       0.955   2.047  24.534  0.00  0.00    -0.308 NA
ATOM     23  H   UNL     1       0.742   2.469  23.633  0.00  0.00    +0.122 HD
BRANCH   5  13
ATOM     13  C   UNL     1       0.142   2.678  25.568  0.00  0.00    +0.087 C 
BRANCH  13  12
ATOM     12  C   UNL     1      -0.999   3.571  25.017  0.00  0.00    -0.025 C 
ATOM     15  C   UNL     1      -2.141   3.587  26.051  0.00  0.00    +0.012 C 
ATOM     16  C   UNL     1      -0.511   5.014  24.801  0.00  0.00    +0.012 C 
ATOM     17  C   UNL     1      -1.549   3.018  23.692  0.00  0.00    +0.012 C 
ENDBRANCH  13  12
ENDBRANCH   5  13
ENDBRANCH   8   5
BRANCH  10  14
ATOM     14  C   UNL     1      -2.305  -1.539  24.101  0.00  0.00    +0.140 C 
BRANCH  14   6
ATOM      3  O   UNL     1      -6.040   3.517  25.394  0.00  0.00    -0.377 OA
ATOM      4  O   UNL     1      -4.168  -1.001  26.141  0.00  0.00    -0.253 OA
ATOM      6  N   UNL     1      -3.182  -0.391  24.161  0.00  0.00    -0.297 N 
ATOM      7  N   UNL     1      -4.868   0.960  25.120  0.00  0.00    -0.281 N 
ATOM     18  C   UNL     1      -4.078  -0.198  25.207  0.00  0.00    +0.302 C 
ATOM     19  C   UNL     1      -5.844   1.239  26.176  0.00  0.00    +0.137 C 
ATOM     20  C   UNL     1      -4.932   1.882  23.977  0.00  0.00    +0.137 C 
ATOM     21  C   UNL     1      -5.830   2.712  26.556  0.00  0.00    +0.179 C 
ATOM     22  C   UNL     1      -4.985   3.331  24.450  0.00  0.00    +0.179 C 
ATOM     25  H   UNL     1      -3.120   0.254  23.387  0.00  0.00    +0.150 HD
ENDBRANCH  14   6
ENDBRANCH  10  14
TORSDOF 6
ENDMDL
MODEL 6
REMARK VINA RESULT:      -2.8      1.848      4.334
REMARK  Name = 75367104
REMARK  9 active torsions:
REMARK  status: ('A' for Active; 'I' for Inactive)
REMARK    1  A    between atoms: O_2  and  C_9
REMARK    2  A    between atoms: N_5  and  C_8
REMARK    3  A    between atoms: N_5  and  C_13
REMARK    4  A    between atoms: N_6  and  C_14
REMARK    5  A    between atoms: C_10  and  C_14
REMARK    6  A    between atoms: C_12  and  C_13
REMARK    7  A    between atoms: C_12  and  C_15
REMARK    8  A    between atoms: C_12  and  C_16
REMARK    9  A    between atoms: C_12  and  C_17
REMARK                            x       y       z     vdW  Elec       q    Type
REMARK                         _______ _______ _______ _____ _____    ______ ____
ROOT
ATOM      1  O   UNL     1      -0.110   3.523  26.072  0.00  0.00    -0.371 OA
ATOM      8  C   UNL     1       0.145   1.461  24.923  0.00  0.00    +0.111 C 
ATOM      9  C   UNL     1      -0.808   2.346  24.143  0.00  0.00    +0.164 C 
ATOM     10  C   UNL     1      -0.443   3.721  24.688  0.00  0.00    +0.165 C 
ATOM     11  C   UNL     1       0.118   2.120  26.291  0.00  0.00    +0.181 C 
ENDROOT
BRANCH   9   2
ATOM      2  O   UNL     1      -0.610   2.264  22.745  0.00  0.00    -0.388 OA
ATOM     24  H   UNL     1      -1.477   2.333  22.309  0.00  0.00    +0.210 HD
ENDBRANCH   9   2
BRANCH   8   5
ATOM      5  N   UNL     1      -0.254   0.063  24.959  0.00  0.00    -0.308 NA
ATOM     23  H   UNL     1       0.486  -0.481  25.397  0.00  0.00    +0.122 HD
BRANCH   5  13
ATOM     13  C   UNL     1      -1.492  -0.110  25.710  0.00  0.00    +0.087 C 
BRANCH  13  12
ATOM     12  C   UNL     1      -2.526  -1.038  25.022  0.00  0.00    -0.025 C 
ATOM     15  C   UNL     1      -3.595  -1.425  26.062  0.00  0.00    +0.012 C 
ATOM     16  C   UNL     1      -3.216  -0.316  23.852  0.00  0.00    +0.012 C 
ATOM     17  C   UNL     1      -1.861  -2.325  24.504  0.00  0.00    +0.012 C 
ENDBRANCH  13  12
ENDBRANCH   5  13
ENDBRANCH   8   5
BRANCH  10  14
ATOM     14  C   UNL     1      -1.571   4.731  24.572  0.00  0.00    +0.140 C 
BRANCH  14   6
ATOM      3  O   UNL     1      -6.899   1.572  26.252  0.00  0.00    -0.377 OA
ATOM      4  O   UNL     1      -3.460   3.241  23.111  0.00  0.00    -0.253 OA
ATOM      6  N   UNL     1      -2.812   4.202  25.091  0.00  0.00    -0.297 N 
ATOM      7  N   UNL     1      -4.862   3.033  24.947  0.00  0.00    -0.281 N 
ATOM     18  C   UNL     1      -3.695   3.474  24.302  0.00  0.00    +0.302 C 
ATOM     19  C   UNL     1      -5.851   2.265  24.188  0.00  0.00    +0.137 C 
ATOM     20  C   UNL     1      -5.288   3.392  26.308  0.00  0.00    +0.137 C 
ATOM     21  C   UNL     1      -6.380   1.098  25.007  0.00  0.00    +0.179 C 
ATOM     22  C   UNL     1      -5.869   2.182  27.031  0.00  0.00    +0.179 C 
ATOM     25  H   UNL     1      -3.011   4.409  26.060  0.00  0.00    +0.150 HD
ENDBRANCH  14   6
ENDBRANCH  10  14
TORSDOF 6
ENDMDL
MODEL 7
REMARK VINA RESULT:      -2.7      2.702      4.954
REMARK  Name = 75367104
REMARK  9 active torsions:
REMARK  status: ('A' for Active; 'I' for Inactive)
REMARK    1  A    between atoms: O_2  and  C_9
REMARK    2  A    between atoms: N_5  and  C_8
REMARK    3  A    between atoms: N_5  and  C_13
REMARK    4  A    between atoms: N_6  and  C_14
REMARK    5  A    between atoms: C_10  and  C_14
REMARK    6  A    between atoms: C_12  and  C_13
REMARK    7  A    between atoms: C_12  and  C_15
REMARK    8  A    between atoms: C_12  and  C_16
REMARK    9  A    between atoms: C_12  and  C_17
REMARK                            x       y       z     vdW  Elec       q    Type
REMARK                         _______ _______ _______ _____ _____    ______ ____
ROOT
ATOM      1  O   UNL     1      -2.585  -1.918  24.010  0.00  0.00    -0.371 OA
ATOM      8  C   UNL     1      -3.617   0.220  23.961  0.00  0.00    +0.111 C 
ATOM      9  C   UNL     1      -2.333   0.309  24.765  0.00  0.00    +0.164 C 
ATOM     10  C   UNL     1      -1.585  -0.917  24.257  0.00  0.00    +0.165 C 
ATOM     11  C   UNL     1      -3.872  -1.278  23.965  0.00  0.00    +0.181 C 
ENDROOT
BRANCH   9   2
ATOM      2  O   UNL     1      -1.616   1.504  24.519  0.00  0.00    -0.388 OA
ATOM     24  H   UNL     1      -2.185   2.100  24.001  0.00  0.00    +0.210 HD
ENDBRANCH   9   2
BRANCH   8   5
ATOM      5  N   UNL     1      -4.715   0.984  24.531  0.00  0.00    -0.308 NA
ATOM     23  H   UNL     1      -5.412   0.338  24.896  0.00  0.00    +0.122 HD
BRANCH   5  13
ATOM     13  C   UNL     1      -4.249   1.851  25.607  0.00  0.00    +0.087 C 
BRANCH  13  12
ATOM     12  C   UNL     1      -4.302   3.363  25.269  0.00  0.00    -0.025 C 
ATOM     15  C   UNL     1      -5.708   3.887  25.617  0.00  0.00    +0.012 C 
ATOM     16  C   UNL     1      -3.267   4.146  26.095  0.00  0.00    +0.012 C 
ATOM     17  C   UNL     1      -4.047   3.609  23.772  0.00  0.00    +0.012 C 
ENDBRANCH  13  12
ENDBRANCH   5  13
ENDBRANCH   8   5
BRANCH  10  14
ATOM     14  C   UNL     1      -0.561  -1.447  25.246  0.00  0.00    +0.140 C 
BRANCH  14   6
ATOM      3  O   UNL     1       5.192   0.012  22.804  0.00  0.00    -0.377 OA
ATOM      4  O   UNL     1       0.261   0.235  23.144  0.00  0.00    -0.253 OA
ATOM      6  N   UNL     1       0.783  -1.346  24.723  0.00  0.00    -0.297 N 
ATOM      7  N   UNL     1       2.454  -0.508  23.277  0.00  0.00    -0.281 N 
ATOM     18  C   UNL     1       1.108  -0.488  23.679  0.00  0.00    +0.302 C 
ATOM     19  C   UNL     1       2.884   0.360  22.178  0.00  0.00    +0.137 C 
ATOM     20  C   UNL     1       3.488  -1.439  23.752  0.00  0.00    +0.137 C 
ATOM     21  C   UNL     1       4.221   1.013  22.490  0.00  0.00    +0.179 C 
ATOM     22  C   UNL     1       4.811  -0.715  23.973  0.00  0.00    +0.179 C 
ATOM     25  H   UNL     1       1.470  -1.951  25.149  0.00  0.00    +0.150 HD
ENDBRANCH  14   6
ENDBRANCH  10  14
TORSDOF 6
ENDMDL
MODEL 8
REMARK VINA RESULT:      -2.6      1.984      4.157
REMARK  Name = 75367104
REMARK  9 active torsions:
REMARK  status: ('A' for Active; 'I' for Inactive)
REMARK    1  A    between atoms: O_2  and  C_9
REMARK    2  A    between atoms: N_5  and  C_8
REMARK    3  A    between atoms: N_5  and  C_13
REMARK    4  A    between atoms: N_6  and  C_14
REMARK    5  A    between atoms: C_10  and  C_14
REMARK    6  A    between atoms: C_12  and  C_13
REMARK    7  A    between atoms: C_12  and  C_15
REMARK    8  A    between atoms: C_12  and  C_16
REMARK    9  A    between atoms: C_12  and  C_17
REMARK                            x       y       z     vdW  Elec       q    Type
REMARK                         _______ _______ _______ _____ _____    ______ ____
ROOT
ATOM      1  O   UNL     1      -4.520   3.835  26.280  0.00  0.00    -0.371 OA
ATOM      8  C   UNL     1      -2.754   4.230  24.742  0.00  0.00    +0.111 C 
ATOM      9  C   UNL     1      -3.739   3.257  24.123  0.00  0.00    +0.164 C 
ATOM     10  C   UNL     1      -4.985   3.535  24.954  0.00  0.00    +0.165 C 
ATOM     11  C   UNL     1      -3.114   4.127  26.215  0.00  0.00    +0.181 C 
ENDROOT
BRANCH   9   2
ATOM      2  O   UNL     1      -3.957   3.502  22.747  0.00  0.00    -0.388 OA
ATOM     24  H   UNL     1      -4.441   2.745  22.375  0.00  0.00    +0.210 HD
ENDBRANCH   9   2
BRANCH   8   5
ATOM      5  N   UNL     1      -1.363   3.901  24.474  0.00  0.00    -0.308 NA
ATOM     23  H   UNL     1      -0.825   4.016  25.331  0.00  0.00    +0.122 HD
BRANCH   5  13
ATOM     13  C   UNL     1      -1.230   2.528  24.000  0.00  0.00    +0.087 C 
BRANCH  13  12
ATOM     12  C   UNL     1      -0.151   1.703  24.748  0.00  0.00    -0.025 C 
ATOM     15  C   UNL     1       0.188   2.430  26.062  0.00  0.00    +0.012 C 
ATOM     16  C   UNL     1      -0.674   0.295  25.084  0.00  0.00    +0.012 C 
ATOM     17  C   UNL     1       1.134   1.580  23.912  0.00  0.00    +0.012 C 
ENDBRANCH  13  12
ENDBRANCH   5  13
ENDBRANCH   8   5
BRANCH  10  14
ATOM     14  C   UNL     1      -5.948   2.361  25.001  0.00  0.00    +0.140 C 
BRANCH  14   6
ATOM      3  O   UNL     1      -3.336  -3.418  24.018  0.00  0.00    -0.377 OA
ATOM      4  O   UNL     1      -4.335   0.689  26.590  0.00  0.00    -0.253 OA
ATOM      6  N   UNL     1      -5.314   1.137  24.564  0.00  0.00    -0.297 N 
ATOM      7  N   UNL     1      -3.975  -0.790  24.840  0.00  0.00    -0.281 N 
ATOM     18  C   UNL     1      -4.529   0.366  25.413  0.00  0.00    +0.302 C 
ATOM     19  C   UNL     1      -3.128  -1.659  25.661  0.00  0.00    +0.137 C 
ATOM     20  C   UNL     1      -4.030  -1.167  23.420  0.00  0.00    +0.137 C 
ATOM     21  C   UNL     1      -3.447  -3.125  25.412  0.00  0.00    +0.179 C 
ATOM     22  C   UNL     1      -4.284  -2.662  23.264  0.00  0.00    +0.179 C 
ATOM     25  H   UNL     1      -5.459   0.885  23.597  0.00  0.00    +0.150 HD
ENDBRANCH  14   6
ENDBRANCH  10  14
TORSDOF 6
ENDMDL
MODEL 9
REMARK VINA RESULT:      -2.4      1.464      2.125
REMARK  Name = 75367104
REMARK  9 active torsions:
REMARK  status: ('A' for Active; 'I' for Inactive)
REMARK    1  A    between atoms: O_2  and  C_9
REMARK    2  A    between atoms: N_5  and  C_8
REMARK    3  A    between atoms: N_5  and  C_13
REMARK    4  A    between atoms: N_6  and  C_14
REMARK    5  A    between atoms: C_10  and  C_14
REMARK    6  A    between atoms: C_12  and  C_13
REMARK    7  A    between atoms: C_12  and  C_15
REMARK    8  A    between atoms: C_12  and  C_16
REMARK    9  A    between atoms: C_12  and  C_17
REMARK                            x       y       z     vdW  Elec       q    Type
REMARK                         _______ _______ _______ _____ _____    ______ ____
ROOT
ATOM      1  O   UNL     1      -1.859   2.518  22.884  0.00  0.00    -0.371 OA
ATOM      8  C   UNL     1      -3.330   4.001  24.015  0.00  0.00    +0.111 C 
ATOM      9  C   UNL     1      -2.104   3.766  24.878  0.00  0.00    +0.164 C 
ATOM     10  C   UNL     1      -1.103   3.281  23.839  0.00  0.00    +0.165 C 
ATOM     11  C   UNL     1      -3.253   2.824  23.057  0.00  0.00    +0.181 C 
ENDROOT
BRANCH   9   2
ATOM      2  O   UNL     1      -1.662   4.941  25.529  0.00  0.00    -0.388 OA
ATOM     24  H   UNL     1      -0.968   4.695  26.166  0.00  0.00    +0.210 HD
ENDBRANCH   9   2
BRANCH   8   5
ATOM      5  N   UNL     1      -4.573   4.041  24.766  0.00  0.00    -0.308 NA
ATOM     23  H   UNL     1      -5.349   3.862  24.132  0.00  0.00    +0.122 HD
BRANCH   5  13
ATOM     13  C   UNL     1      -4.578   3.042  25.829  0.00  0.00    +0.087 C 
BRANCH  13  12
ATOM     12  C   UNL     1      -5.622   1.913  25.631  0.00  0.00    -0.025 C 
ATOM     15  C   UNL     1      -4.875   0.630  25.222  0.00  0.00    +0.012 C 
ATOM     16  C   UNL     1      -6.389   1.641  26.937  0.00  0.00    +0.012 C 
ATOM     17  C   UNL     1      -6.624   2.270  24.519  0.00  0.00    +0.012 C 
ENDBRANCH  13  12
ENDBRANCH   5  13
ENDBRANCH   8   5
BRANCH  10  14
ATOM     14  C   UNL     1       0.001   2.418  24.426  0.00  0.00    +0.140 C 
BRANCH  14   6
ATOM      3  O   UNL     1      -2.588  -3.442  24.810  0.00  0.00    -0.377 OA
ATOM      4  O   UNL     1      -1.738   1.205  26.277  0.00  0.00    -0.253 OA
ATOM      6  N   UNL     1      -0.373   1.021  24.444  0.00  0.00    -0.297 N 
ATOM      7  N   UNL     1      -1.500  -0.878  25.286  0.00  0.00    -0.281 N 
ATOM     18  C   UNL     1      -1.240   0.498  25.396  0.00  0.00    +0.302 C 
ATOM     19  C   UNL     1      -2.398  -1.514  26.253  0.00  0.00    +0.137 C 
ATOM     20  C   UNL     1      -0.837  -1.816  24.368  0.00  0.00    +0.137 C 
ATOM     21  C   UNL     1      -3.340  -2.488  25.563  0.00  0.00    +0.179 C 
ATOM     22  C   UNL     1      -1.842  -2.798  23.777  0.00  0.00    +0.179 C 
ATOM     25  H   UNL     1       0.051   0.441  23.733  0.00  0.00    +0.150 HD
ENDBRANCH  14   6
ENDBRANCH  10  14
TORSDOF 6
ENDMDL
MODEL 10
REMARK VINA RESULT:      -2.3      2.939      4.723
REMARK  Name = 75367104
REMARK  9 active torsions:
REMARK  status: ('A' for Active; 'I' for Inactive)
REMARK    1  A    between atoms: O_2  and  C_9
REMARK    2  A    between atoms: N_5  and  C_8
REMARK    3  A    between atoms: N_5  and  C_13
REMARK    4  A    between atoms: N_6  and  C_14
REMARK    5  A    between atoms: C_10  and  C_14
REMARK    6  A    between atoms: C_12  and  C_13
REMARK    7  A    between atoms: C_12  and  C_15
REMARK    8  A    between atoms: C_12  and  C_16
REMARK    9  A    between atoms: C_12  and  C_17
REMARK                            x       y       z     vdW  Elec       q    Type
REMARK                         _______ _______ _______ _____ _____    ______ ____
ROOT
ATOM      1  O   UNL     1      -1.704   1.381  22.752  0.00  0.00    -0.371 OA
ATOM      8  C   UNL     1      -2.319   2.885  24.484  0.00  0.00    +0.111 C 
ATOM      9  C   UNL     1      -1.605   1.693  25.094  0.00  0.00    +0.164 C 
ATOM     10  C   UNL     1      -0.851   1.153  23.886  0.00  0.00    +0.165 C 
ATOM     11  C   UNL     1      -2.714   2.335  23.124  0.00  0.00    +0.181 C 
ENDROOT
BRANCH   9   2
ATOM      2  O   UNL     1      -0.728   2.059  26.142  0.00  0.00    -0.388 OA
ATOM     24  H   UNL     1      -0.893   1.470  26.898  0.00  0.00    +0.210 HD
ENDBRANCH   9   2
BRANCH   8   5
ATOM      5  N   UNL     1      -3.457   3.343  25.263  0.00  0.00    -0.308 NA
ATOM     23  H   UNL     1      -3.381   4.349  25.399  0.00  0.00    +0.122 HD
BRANCH   5  13
ATOM     13  C   UNL     1      -4.713   3.042  24.585  0.00  0.00    +0.087 C 
BRANCH  13  12
ATOM     12  C   UNL     1      -5.545   1.923  25.262  0.00  0.00    -0.025 C 
ATOM     15  C   UNL     1      -6.833   1.716  24.443  0.00  0.00    +0.012 C 
ATOM     16  C   UNL     1      -4.762   0.599  25.290  0.00  0.00    +0.012 C 
ATOM     17  C   UNL     1      -5.937   2.311  26.698  0.00  0.00    +0.012 C 
ENDBRANCH  13  12
ENDBRANCH   5  13
ENDBRANCH   8   5
BRANCH  10  14
ATOM     14  C   UNL     1      -0.526  -0.327  23.993  0.00  0.00    +0.140 C 
BRANCH  14   6
ATOM      3  O   UNL     1       5.866  -0.501  23.436  0.00  0.00    -0.377 OA
ATOM      4  O   UNL     1       1.391   1.602  23.264  0.00  0.00    -0.253 OA
ATOM      6  N   UNL     1       0.881  -0.577  23.772  0.00  0.00    -0.297 N 
ATOM      7  N   UNL     1       3.098   0.033  23.225  0.00  0.00    -0.281 N 
ATOM     18  C   UNL     1       1.765   0.434  23.412  0.00  0.00    +0.302 C 
ATOM     19  C   UNL     1       4.097   1.032  22.838  0.00  0.00    +0.137 C 
ATOM     20  C   UNL     1       3.597  -1.350  23.232  0.00  0.00    +0.137 C 
ATOM     21  C   UNL     1       5.392   0.836  23.610  0.00  0.00    +0.179 C 
ATOM     22  C   UNL     1       4.931  -1.442  23.965  0.00  0.00    +0.179 C 
ATOM     25  H   UNL     1       1.182  -1.536  23.875  0.00  0.00    +0.150 HD
ENDBRANCH  14   6
ENDBRANCH  10  14
TORSDOF 6
ENDMDL
