MODEL 1
REMARK VINA RESULT:      -1.0      0.000      0.000
REMARK  Name = 9421722
REMARK  5 active torsions:
REMARK  status: ('A' for Active; 'I' for Inactive)
REMARK    1  A    between atoms: S_1  and  N_5
REMARK    2  A    between atoms: S_1  and  C_23
REMARK    3  A    between atoms: C_14  and  C_15
REMARK    4  A    between atoms: C_23  and  C_25
REMARK    5  A    between atoms: C_25  and  C_26
REMARK                            x       y       z     vdW  Elec       q    Type
REMARK                         _______ _______ _______ _____ _____    ______ ____
ROOT
ATOM      4  O   UNL     1      13.936  -8.111  27.775  0.00  0.00    -0.267 OA
ATOM      5  N   UNL     1      15.403  -5.387  31.678  0.00  0.00    -0.180 NA
ATOM      6  N   UNL     1      14.154  -7.811  30.080  0.00  0.00    -0.312 N 
ATOM      7  C   UNL     1      12.986  -5.915  31.346  0.00  0.00    +0.025 C 
ATOM      8  C   UNL     1      14.421  -7.492  32.564  0.00  0.00    +0.052 C 
ATOM      9  C   UNL     1      13.028  -6.872  32.530  0.00  0.00    +0.017 C 
ATOM     10  C   UNL     1      14.040  -4.808  31.508  0.00  0.00    +0.114 C 
ATOM     11  C   UNL     1      15.472  -6.389  32.783  0.00  0.00    +0.118 C 
ATOM     12  C   UNL     1      13.174  -6.717  30.051  0.00  0.00    +0.130 C 
ATOM     13  C   UNL     1      14.712  -8.251  31.282  0.00  0.00    +0.026 A 
ATOM     15  C   UNL     1      15.346  -9.635  28.901  0.00  0.00    +0.020 A 
ATOM     16  C   UNL     1      14.420  -8.453  28.854  0.00  0.00    +0.255 A 
ATOM     17  C   UNL     1      15.518  -9.325  31.297  0.00  0.00    +0.022 A 
ATOM     20  C   UNL     1      15.837 -10.023  30.086  0.00  0.00    +0.011 A 
ENDROOT
BRANCH  15  14
ATOM     14  C   UNL     1      15.662 -10.330  27.611  0.00  0.00    +0.024 C 
ATOM     18  C   UNL     1      17.005  -9.847  27.046  0.00  0.00    +0.008 C 
ATOM     19  C   UNL     1      14.535 -10.122  26.589  0.00  0.00    +0.008 C 
ATOM     21  C   UNL     1      17.324 -10.507  25.706  0.00  0.00    +0.001 C 
ATOM     22  C   UNL     1      14.859 -10.781  25.249  0.00  0.00    +0.001 C 
ATOM     24  C   UNL     1      16.198 -10.304  24.697  0.00  0.00    +0.000 C 
ENDBRANCH  15  14
BRANCH   5   1
ATOM      1  S   UNL     1      16.696  -4.269  31.612  0.00  0.00    +0.032 S 
ATOM      2  O   UNL     1      17.386  -4.428  30.350  0.00  0.00    -0.158 OA
ATOM      3  O   UNL     1      17.405  -4.301  32.873  0.00  0.00    -0.158 OA
BRANCH   1  23
ATOM     23  C   UNL     1      15.766  -2.760  31.543  0.00  0.00    +0.185 C 
BRANCH  23  25
ATOM     25  C   UNL     1      16.539  -1.666  30.825  0.00  0.00    +0.021 C 
ATOM     26  C   UNL     1      17.279  -0.773  31.809  0.00  0.00    +0.005 C 
ENDBRANCH  23  25
ENDBRANCH   1  23
ENDBRANCH   5   1
TORSDOF 4
ENDMDL
MODEL 2
REMARK VINA RESULT:       0.8     17.912     20.468
REMARK  Name = 9421722
REMARK  5 active torsions:
REMARK  status: ('A' for Active; 'I' for Inactive)
REMARK    1  A    between atoms: S_1  and  N_5
REMARK    2  A    between atoms: S_1  and  C_23
REMARK    3  A    between atoms: C_14  and  C_15
REMARK    4  A    between atoms: C_23  and  C_25
REMARK    5  A    between atoms: C_25  and  C_26
REMARK                            x       y       z     vdW  Elec       q    Type
REMARK                         _______ _______ _______ _____ _____    ______ ____
ROOT
ATOM      4  O   UNL     1      -2.018   3.389  27.514  0.00  0.00    -0.267 OA
ATOM      5  N   UNL     1      -3.604   0.102  24.125  0.00  0.00    -0.180 NA
ATOM      6  N   UNL     1      -2.170   2.663  25.301  0.00  0.00    -0.312 N 
ATOM      7  C   UNL     1      -4.402   2.467  24.059  0.00  0.00    +0.025 C 
ATOM      8  C   UNL     1      -2.315   1.855  22.919  0.00  0.00    +0.052 C 
ATOM      9  C   UNL     1      -3.567   2.719  22.811  0.00  0.00    +0.017 C 
ATOM     10  C   UNL     1      -4.804   0.985  24.150  0.00  0.00    +0.114 C 
ATOM     11  C   UNL     1      -2.716   0.368  22.954  0.00  0.00    +0.118 C 
ATOM     12  C   UNL     1      -3.614   2.936  25.289  0.00  0.00    +0.130 C 
ATOM     13  C   UNL     1      -1.510   2.213  24.155  0.00  0.00    +0.026 A 
ATOM     15  C   UNL     1       0.012   2.787  26.466  0.00  0.00    +0.020 A 
ATOM     16  C   UNL     1      -1.478   2.973  26.488  0.00  0.00    +0.255 A 
ATOM     17  C   UNL     1      -0.174   2.078  24.157  0.00  0.00    +0.022 A 
ATOM     20  C   UNL     1       0.593   2.369  25.333  0.00  0.00    +0.011 A 
ENDROOT
BRANCH  15  14
ATOM     14  C   UNL     1       0.775   3.093  27.719  0.00  0.00    +0.024 C 
ATOM     18  C   UNL     1       2.274   2.826  27.525  0.00  0.00    +0.008 C 
ATOM     19  C   UNL     1       0.228   2.283  28.903  0.00  0.00    +0.008 C 
ATOM     21  C   UNL     1       3.065   3.086  28.805  0.00  0.00    +0.001 C 
ATOM     22  C   UNL     1       1.023   2.543  30.181  0.00  0.00    +0.001 C 
ATOM     24  C   UNL     1       2.512   2.285  29.980  0.00  0.00    +0.000 C 
ENDBRANCH  15  14
BRANCH   5   1
ATOM      1  S   UNL     1      -3.890  -1.547  24.476  0.00  0.00    +0.032 S 
ATOM      2  O   UNL     1      -4.942  -2.032  23.608  0.00  0.00    -0.158 OA
ATOM      3  O   UNL     1      -3.954  -1.715  25.912  0.00  0.00    -0.158 OA
BRANCH   1  23
ATOM     23  C   UNL     1      -2.354  -2.231  23.911  0.00  0.00    +0.185 C 
BRANCH  23  25
ATOM     25  C   UNL     1      -1.408  -2.500  25.070  0.00  0.00    +0.021 C 
ATOM     26  C   UNL     1      -0.541  -1.288  25.371  0.00  0.00    +0.005 C 
ENDBRANCH  23  25
ENDBRANCH   1  23
ENDBRANCH   5   1
TORSDOF 4
ENDMDL
MODEL 3
REMARK VINA RESULT:       1.0     17.524     19.163
REMARK  Name = 9421722
REMARK  5 active torsions:
REMARK  status: ('A' for Active; 'I' for Inactive)
REMARK    1  A    between atoms: S_1  and  N_5
REMARK    2  A    between atoms: S_1  and  C_23
REMARK    3  A    between atoms: C_14  and  C_15
REMARK    4  A    between atoms: C_23  and  C_25
REMARK    5  A    between atoms: C_25  and  C_26
REMARK                            x       y       z     vdW  Elec       q    Type
REMARK                         _______ _______ _______ _____ _____    ______ ____
ROOT
ATOM      4  O   UNL     1       0.167   0.575  21.689  0.00  0.00    -0.267 OA
ATOM      5  N   UNL     1      -3.145   2.345  24.961  0.00  0.00    -0.180 NA
ATOM      6  N   UNL     1      -1.456   0.227  23.332  0.00  0.00    -0.312 N 
ATOM      7  C   UNL     1      -3.898   0.942  23.038  0.00  0.00    +0.025 C 
ATOM      8  C   UNL     1      -3.186  -0.136  25.126  0.00  0.00    +0.052 C 
ATOM      9  C   UNL     1      -4.200  -0.208  23.989  0.00  0.00    +0.017 C 
ATOM     10  C   UNL     1      -4.030   2.292  23.762  0.00  0.00    +0.114 C 
ATOM     11  C   UNL     1      -3.356   1.192  25.886  0.00  0.00    +0.118 C 
ATOM     12  C   UNL     1      -2.502   0.735  22.434  0.00  0.00    +0.130 C 
ATOM     13  C   UNL     1      -1.767  -0.265  24.601  0.00  0.00    +0.026 A 
ATOM     15  C   UNL     1       0.902  -0.442  23.691  0.00  0.00    +0.020 A 
ATOM     16  C   UNL     1      -0.149   0.170  22.809  0.00  0.00    +0.255 A 
ATOM     17  C   UNL     1      -0.812  -0.827  25.358  0.00  0.00    +0.022 A 
ATOM     20  C   UNL     1       0.542  -0.914  24.892  0.00  0.00    +0.011 A 
ENDROOT
BRANCH  15  14
ATOM     14  C   UNL     1       2.306  -0.503  23.169  0.00  0.00    +0.024 C 
ATOM     18  C   UNL     1       3.179  -1.403  24.055  0.00  0.00    +0.008 C 
ATOM     19  C   UNL     1       2.910   0.904  23.060  0.00  0.00    +0.008 C 
ATOM     21  C   UNL     1       4.626  -1.441  23.569  0.00  0.00    +0.001 C 
ATOM     22  C   UNL     1       4.359   0.862  22.577  0.00  0.00    +0.001 C 
ATOM     24  C   UNL     1       5.219  -0.040  23.456  0.00  0.00    +0.000 C 
ENDBRANCH  15  14
BRANCH   5   1
ATOM      1  S   UNL     1      -3.002   3.877  25.709  0.00  0.00    +0.032 S 
ATOM      2  O   UNL     1      -2.959   3.693  27.143  0.00  0.00    -0.158 OA
ATOM      3  O   UNL     1      -3.940   4.788  25.089  0.00  0.00    -0.158 OA
BRANCH   1  23
ATOM     23  C   UNL     1      -1.371   4.311  25.162  0.00  0.00    +0.185 C 
BRANCH  23  25
ATOM     25  C   UNL     1      -0.517   3.075  24.935  0.00  0.00    +0.021 C 
ATOM     26  C   UNL     1       0.132   2.604  26.226  0.00  0.00    +0.005 C 
ENDBRANCH  23  25
ENDBRANCH   1  23
ENDBRANCH   5   1
TORSDOF 4
ENDMDL
MODEL 4
REMARK VINA RESULT:       1.4     17.445     19.442
REMARK  Name = 9421722
REMARK  5 active torsions:
REMARK  status: ('A' for Active; 'I' for Inactive)
REMARK    1  A    between atoms: S_1  and  N_5
REMARK    2  A    between atoms: S_1  and  C_23
REMARK    3  A    between atoms: C_14  and  C_15
REMARK    4  A    between atoms: C_23  and  C_25
REMARK    5  A    between atoms: C_25  and  C_26
REMARK                            x       y       z     vdW  Elec       q    Type
REMARK                         _______ _______ _______ _____ _____    ______ ____
ROOT
ATOM      4  O   UNL     1       1.344   2.173  25.180  0.00  0.00    -0.267 OA
ATOM      5  N   UNL     1      -3.408   0.802  24.593  0.00  0.00    -0.180 NA
ATOM      6  N   UNL     1      -0.549   1.919  23.837  0.00  0.00    -0.312 N 
ATOM      7  C   UNL     1      -2.734   3.184  24.271  0.00  0.00    +0.025 C 
ATOM      8  C   UNL     1      -2.588   1.613  22.390  0.00  0.00    +0.052 C 
ATOM      9  C   UNL     1      -2.946   3.046  22.770  0.00  0.00    +0.017 C 
ATOM     10  C   UNL     1      -3.640   2.206  25.037  0.00  0.00    +0.114 C 
ATOM     11  C   UNL     1      -3.533   0.636  23.114  0.00  0.00    +0.118 C 
ATOM     12  C   UNL     1      -1.247   2.973  24.586  0.00  0.00    +0.130 C 
ATOM     13  C   UNL     1      -1.143   1.302  22.734  0.00  0.00    +0.026 A 
ATOM     15  C   UNL     1       1.521   0.633  23.397  0.00  0.00    +0.020 A 
ATOM     16  C   UNL     1       0.776   1.639  24.226  0.00  0.00    +0.255 A 
ATOM     17  C   UNL     1      -0.444   0.423  21.998  0.00  0.00    +0.022 A 
ATOM     20  C   UNL     1       0.907   0.086  22.339  0.00  0.00    +0.011 A 
ENDROOT
BRANCH  15  14
ATOM     14  C   UNL     1       2.928   0.302  23.795  0.00  0.00    +0.024 C 
ATOM     18  C   UNL     1       3.932   1.180  23.036  0.00  0.00    +0.008 C 
ATOM     19  C   UNL     1       3.225  -1.187  23.563  0.00  0.00    +0.008 C 
ATOM     21  C   UNL     1       5.374   0.826  23.391  0.00  0.00    +0.001 C 
ATOM     22  C   UNL     1       4.670  -1.537  23.916  0.00  0.00    +0.001 C 
ATOM     24  C   UNL     1       5.662  -0.655  23.166  0.00  0.00    +0.000 C 
ENDBRANCH  15  14
BRANCH   5   1
ATOM      1  S   UNL     1      -4.162  -0.408  25.539  0.00  0.00    +0.032 S 
ATOM      2  O   UNL     1      -5.478   0.054  25.923  0.00  0.00    -0.158 OA
ATOM      3  O   UNL     1      -3.213  -0.895  26.517  0.00  0.00    -0.158 OA
BRANCH   1  23
ATOM     23  C   UNL     1      -4.361  -1.659  24.296  0.00  0.00    +0.185 C 
BRANCH  23  25
ATOM     25  C   UNL     1      -3.459  -2.852  24.564  0.00  0.00    +0.021 C 
ATOM     26  C   UNL     1      -2.008  -2.535  24.241  0.00  0.00    +0.005 C 
ENDBRANCH  23  25
ENDBRANCH   1  23
ENDBRANCH   5   1
TORSDOF 4
ENDMDL
MODEL 5
REMARK VINA RESULT:       1.7     18.779     20.755
REMARK  Name = 9421722
REMARK  5 active torsions:
REMARK  status: ('A' for Active; 'I' for Inactive)
REMARK    1  A    between atoms: S_1  and  N_5
REMARK    2  A    between atoms: S_1  and  C_23
REMARK    3  A    between atoms: C_14  and  C_15
REMARK    4  A    between atoms: C_23  and  C_25
REMARK    5  A    between atoms: C_25  and  C_26
REMARK                            x       y       z     vdW  Elec       q    Type
REMARK                         _______ _______ _______ _____ _____    ______ ____
ROOT
ATOM      4  O   UNL     1       0.320   2.321  25.971  0.00  0.00    -0.267 OA
ATOM      5  N   UNL     1      -4.605   2.336  25.234  0.00  0.00    -0.180 NA
ATOM      6  N   UNL     1      -1.557   3.049  24.791  0.00  0.00    -0.312 N 
ATOM      7  C   UNL     1      -3.418   4.438  25.872  0.00  0.00    +0.025 C 
ATOM      8  C   UNL     1      -3.587   3.805  23.505  0.00  0.00    +0.052 C 
ATOM      9  C   UNL     1      -3.628   4.988  24.467  0.00  0.00    +0.017 C 
ATOM     10  C   UNL     1      -4.531   3.439  26.233  0.00  0.00    +0.114 C 
ATOM     11  C   UNL     1      -4.736   2.834  23.832  0.00  0.00    +0.118 C 
ATOM     12  C   UNL     1      -2.020   3.813  25.958  0.00  0.00    +0.130 C 
ATOM     13  C   UNL     1      -2.252   3.088  23.579  0.00  0.00    +0.026 A 
ATOM     15  C   UNL     1       0.188   1.668  23.705  0.00  0.00    +0.020 A 
ATOM     16  C   UNL     1      -0.334   2.365  24.928  0.00  0.00    +0.255 A 
ATOM     17  C   UNL     1      -1.750   2.474  22.496  0.00  0.00    +0.022 A 
ATOM     20  C   UNL     1      -0.512   1.753  22.566  0.00  0.00    +0.011 A 
ENDROOT
BRANCH  15  14
ATOM     14  C   UNL     1       1.480   0.917  23.823  0.00  0.00    +0.024 C 
ATOM     18  C   UNL     1       2.616   1.670  23.115  0.00  0.00    +0.008 C 
ATOM     19  C   UNL     1       1.339  -0.506  23.264  0.00  0.00    +0.008 C 
ATOM     21  C   UNL     1       3.932   0.899  23.182  0.00  0.00    +0.001 C 
ATOM     22  C   UNL     1       2.659  -1.272  23.330  0.00  0.00    +0.001 C 
ATOM     24  C   UNL     1       3.784  -0.516  22.632  0.00  0.00    +0.000 C 
ENDBRANCH  15  14
BRANCH   5   1
ATOM      1  S   UNL     1      -5.623   1.026  25.651  0.00  0.00    +0.032 S 
ATOM      2  O   UNL     1      -6.528   0.771  24.551  0.00  0.00    -0.158 OA
ATOM      3  O   UNL     1      -6.106   1.222  27.001  0.00  0.00    -0.158 OA
BRANCH   1  23
ATOM     23  C   UNL     1      -4.417  -0.274  25.683  0.00  0.00    +0.185 C 
BRANCH  23  25
ATOM     25  C   UNL     1      -4.018  -0.692  24.277  0.00  0.00    +0.021 C 
ATOM     26  C   UNL     1      -3.938  -2.205  24.149  0.00  0.00    +0.005 C 
ENDBRANCH  23  25
ENDBRANCH   1  23
ENDBRANCH   5   1
TORSDOF 4
ENDMDL
MODEL 6
REMARK VINA RESULT:       2.8      2.047      2.546
REMARK  Name = 9421722
REMARK  5 active torsions:
REMARK  status: ('A' for Active; 'I' for Inactive)
REMARK    1  A    between atoms: S_1  and  N_5
REMARK    2  A    between atoms: S_1  and  C_23
REMARK    3  A    between atoms: C_14  and  C_15
REMARK    4  A    between atoms: C_23  and  C_25
REMARK    5  A    between atoms: C_25  and  C_26
REMARK                            x       y       z     vdW  Elec       q    Type
REMARK                         _______ _______ _______ _____ _____    ______ ____
ROOT
ATOM      4  O   UNL     1      13.343  -7.994  28.686  0.00  0.00    -0.267 OA
ATOM      5  N   UNL     1      15.924  -4.217  30.655  0.00  0.00    -0.180 NA
ATOM      6  N   UNL     1      14.807  -7.153  30.298  0.00  0.00    -0.312 N 
ATOM      7  C   UNL     1      14.126  -5.339  31.974  0.00  0.00    +0.025 C 
ATOM      8  C   UNL     1      16.409  -6.241  32.015  0.00  0.00    +0.052 C 
ATOM      9  C   UNL     1      15.176  -5.976  32.873  0.00  0.00    +0.017 C 
ATOM     10  C   UNL     1      14.644  -4.014  31.391  0.00  0.00    +0.114 C 
ATOM     11  C   UNL     1      16.961  -4.908  31.478  0.00  0.00    +0.118 C 
ATOM     12  C   UNL     1      13.730  -6.343  30.883  0.00  0.00    +0.130 C 
ATOM     13  C   UNL     1      16.083  -7.178  30.866  0.00  0.00    +0.026 A 
ATOM     15  C   UNL     1      15.536  -8.873  28.672  0.00  0.00    +0.020 A 
ATOM     16  C   UNL     1      14.460  -7.971  29.206  0.00  0.00    +0.255 A 
ATOM     17  C   UNL     1      17.018  -8.011  30.383  0.00  0.00    +0.022 A 
ATOM     20  C   UNL     1      16.736  -8.868  29.268  0.00  0.00    +0.011 A 
ENDROOT
BRANCH  15  14
ATOM     14  C   UNL     1      15.202  -9.745  27.500  0.00  0.00    +0.024 C 
ATOM     18  C   UNL     1      15.810  -9.180  26.208  0.00  0.00    +0.008 C 
ATOM     19  C   UNL     1      13.682  -9.911  27.357  0.00  0.00    +0.008 C 
ATOM     21  C   UNL     1      15.442 -10.028  24.992  0.00  0.00    +0.001 C 
ATOM     22  C   UNL     1      13.318 -10.757  26.138  0.00  0.00    +0.001 C 
ATOM     24  C   UNL     1      13.932 -10.196  24.860  0.00  0.00    +0.000 C 
ENDBRANCH  15  14
BRANCH   5   1
ATOM      1  S   UNL     1      16.475  -2.878  29.744  0.00  0.00    +0.032 S 
ATOM      2  O   UNL     1      17.404  -2.116  30.551  0.00  0.00    -0.158 OA
ATOM      3  O   UNL     1      15.340  -2.253  29.100  0.00  0.00    -0.158 OA
BRANCH   1  23
ATOM     23  C   UNL     1      17.405  -3.740  28.503  0.00  0.00    +0.185 C 
BRANCH  23  25
ATOM     25  C   UNL     1      16.543  -4.757  27.773  0.00  0.00    +0.021 C 
ATOM     26  C   UNL     1      17.122  -5.098  26.409  0.00  0.00    +0.005 C 
ENDBRANCH  23  25
ENDBRANCH   1  23
ENDBRANCH   5   1
TORSDOF 4
ENDMDL
