MODEL 1
REMARK VINA RESULT:      -4.7      0.000      0.000
REMARK  Name = 51137060
REMARK  3 active torsions:
REMARK  status: ('A' for Active; 'I' for Inactive)
REMARK    1  A    between atoms: N_4  and  C_10
REMARK    2  A    between atoms: C_6  and  C_11
REMARK    3  A    between atoms: C_10  and  C_12
REMARK                            x       y       z     vdW  Elec       q    Type
REMARK                         _______ _______ _______ _____ _____    ______ ____
ROOT
ATOM      4  N   UNL     1      -6.443  -9.593  10.460  0.00  0.00    -0.297 NA
ATOM      6  C   UNL     1      -5.640  -9.345  12.650  0.00  0.00    +0.090 C 
ATOM      7  C   UNL     1      -4.788 -10.388  11.904  0.00  0.00    +0.029 C 
ATOM      8  C   UNL     1      -6.901  -9.187  11.790  0.00  0.00    +0.097 C 
ATOM      9  C   UNL     1      -5.622 -10.781  10.690  0.00  0.00    +0.085 C 
ENDROOT
BRANCH   6  11
ATOM      3  O   UNL     1      -4.869  -9.932  14.886  0.00  0.00    -0.439 OA
ATOM      5  N   UNL     1      -7.120  -9.780  14.674  0.00  0.00    -0.213 NA
ATOM     11  C   UNL     1      -5.946  -9.687  14.090  0.00  0.00    +0.201 A 
ATOM     13  C   UNL     1      -5.426 -10.209  16.102  0.00  0.00    +0.155 A 
ATOM     14  C   UNL     1      -6.803 -10.114  15.969  0.00  0.00    +0.110 A 
ATOM     17  C   UNL     1      -4.764 -10.530  17.281  0.00  0.00    +0.048 A 
ATOM     18  C   UNL     1      -7.611 -10.356  17.089  0.00  0.00    +0.031 A 
ATOM     21  C   UNL     1      -5.585 -10.768  18.390  0.00  0.00    +0.004 A 
ATOM     22  C   UNL     1      -6.979 -10.683  18.298  0.00  0.00    +0.002 A 
ENDBRANCH   6  11
BRANCH   4  10
ATOM     10  C   UNL     1      -7.546  -9.849   9.547  0.00  0.00    +0.119 C 
BRANCH  10  12
ATOM      1  F   UNL     1      -7.918  -5.195   8.126  0.00  0.00    -0.202 F 
ATOM      2  F   UNL     1     -10.610  -5.215   8.602  0.00  0.00    -0.202 F 
ATOM     12  C   UNL     1      -8.365  -8.611   9.294  0.00  0.00    -0.030 A 
ATOM     15  C   UNL     1      -7.750  -7.453   8.818  0.00  0.00    +0.046 A 
ATOM     16  C   UNL     1      -9.739  -8.622   9.537  0.00  0.00    +0.008 A 
ATOM     19  C   UNL     1      -8.508  -6.307   8.584  0.00  0.00    +0.159 A 
ATOM     20  C   UNL     1     -10.497  -7.475   9.303  0.00  0.00    +0.041 A 
ATOM     23  C   UNL     1      -9.882  -6.318   8.826  0.00  0.00    +0.158 A 
ENDBRANCH  10  12
ENDBRANCH   4  10
TORSDOF 3
ENDMDL
MODEL 2
REMARK VINA RESULT:      -4.4     16.181     18.121
REMARK  Name = 51137060
REMARK  3 active torsions:
REMARK  status: ('A' for Active; 'I' for Inactive)
REMARK    1  A    between atoms: N_4  and  C_10
REMARK    2  A    between atoms: C_6  and  C_11
REMARK    3  A    between atoms: C_10  and  C_12
REMARK                            x       y       z     vdW  Elec       q    Type
REMARK                         _______ _______ _______ _____ _____    ______ ____
ROOT
ATOM      4  N   UNL     1       0.451  -0.562  23.756  0.00  0.00    -0.297 NA
ATOM      6  C   UNL     1      -1.320   0.028  25.176  0.00  0.00    +0.090 C 
ATOM      7  C   UNL     1      -1.470  -1.443  24.750  0.00  0.00    +0.029 C 
ATOM      8  C   UNL     1      -0.302   0.617  24.189  0.00  0.00    +0.097 C 
ATOM      9  C   UNL     1      -0.559  -1.597  23.537  0.00  0.00    +0.085 C 
ENDROOT
BRANCH   6  11
ATOM      3  O   UNL     1      -2.487   2.159  25.371  0.00  0.00    -0.439 OA
ATOM      5  N   UNL     1      -3.844   0.357  25.149  0.00  0.00    -0.213 NA
ATOM     11  C   UNL     1      -2.612   0.810  25.226  0.00  0.00    +0.201 A 
ATOM     13  C   UNL     1      -3.779   2.600  25.386  0.00  0.00    +0.155 A 
ATOM     14  C   UNL     1      -4.607   1.495  25.251  0.00  0.00    +0.110 A 
ATOM     17  C   UNL     1      -4.223   3.911  25.512  0.00  0.00    +0.048 A 
ATOM     18  C   UNL     1      -5.996   1.686  25.237  0.00  0.00    +0.031 A 
ATOM     21  C   UNL     1      -5.612   4.084  25.497  0.00  0.00    +0.004 A 
ATOM     22  C   UNL     1      -6.482   2.996  25.362  0.00  0.00    +0.002 A 
ENDBRANCH   6  11
BRANCH   4  10
ATOM     10  C   UNL     1       1.248  -0.305  22.566  0.00  0.00    +0.119 C 
BRANCH  10  12
ATOM      1  F   UNL     1       5.412  -2.189  24.280  0.00  0.00    -0.202 F 
ATOM      2  F   UNL     1       6.734   0.150  23.772  0.00  0.00    -0.202 F 
ATOM     12  C   UNL     1       2.715  -0.183  22.888  0.00  0.00    -0.030 A 
ATOM     15  C   UNL     1       3.398  -1.263  23.446  0.00  0.00    +0.046 A 
ATOM     16  C   UNL     1       3.389   1.010  22.629  0.00  0.00    +0.008 A 
ATOM     19  C   UNL     1       4.756  -1.152  23.744  0.00  0.00    +0.159 A 
ATOM     20  C   UNL     1       4.747   1.122  22.927  0.00  0.00    +0.041 A 
ATOM     23  C   UNL     1       5.430   0.042  23.484  0.00  0.00    +0.158 A 
ENDBRANCH  10  12
ENDBRANCH   4  10
TORSDOF 3
ENDMDL
MODEL 3
REMARK VINA RESULT:      -3.5     15.037     17.483
REMARK  Name = 51137060
REMARK  3 active torsions:
REMARK  status: ('A' for Active; 'I' for Inactive)
REMARK    1  A    between atoms: N_4  and  C_10
REMARK    2  A    between atoms: C_6  and  C_11
REMARK    3  A    between atoms: C_10  and  C_12
REMARK                            x       y       z     vdW  Elec       q    Type
REMARK                         _______ _______ _______ _____ _____    ______ ____
ROOT
ATOM      4  N   UNL     1      -0.023   3.322  25.191  0.00  0.00    -0.297 NA
ATOM      6  C   UNL     1      -0.064   0.977  25.132  0.00  0.00    +0.090 C 
ATOM      7  C   UNL     1       0.684   1.510  23.898  0.00  0.00    +0.029 C 
ATOM      8  C   UNL     1      -0.817   2.195  25.685  0.00  0.00    +0.097 C 
ATOM      9  C   UNL     1       0.293   2.981  23.804  0.00  0.00    +0.085 C 
ENDROOT
BRANCH   6  11
ATOM      3  O   UNL     1      -2.248   0.095  24.506  0.00  0.00    -0.439 OA
ATOM      5  N   UNL     1      -0.681  -1.484  24.938  0.00  0.00    -0.213 NA
ATOM     11  C   UNL     1      -0.969  -0.204  24.866  0.00  0.00    +0.201 A 
ATOM     13  C   UNL     1      -2.826  -1.130  24.333  0.00  0.00    +0.155 A 
ATOM     14  C   UNL     1      -1.865  -2.094  24.598  0.00  0.00    +0.110 A 
ATOM     17  C   UNL     1      -4.137  -1.401  23.960  0.00  0.00    +0.048 A 
ATOM     18  C   UNL     1      -2.213  -3.448  24.489  0.00  0.00    +0.031 A 
ATOM     21  C   UNL     1      -4.469  -2.757  23.855  0.00  0.00    +0.004 A 
ATOM     22  C   UNL     1      -3.528  -3.761  24.114  0.00  0.00    +0.002 A 
ENDBRANCH   6  11
BRANCH   4  10
ATOM     10  C   UNL     1      -0.729   4.589  25.302  0.00  0.00    +0.119 C 
BRANCH  10  12
ATOM      1  F   UNL     1      -4.931   3.118  23.302  0.00  0.00    -0.202 F 
ATOM      2  F   UNL     1      -6.314   3.871  25.538  0.00  0.00    -0.202 F 
ATOM     12  C   UNL     1      -2.222   4.397  25.365  0.00  0.00    -0.030 A 
ATOM     15  C   UNL     1      -2.899   3.836  24.283  0.00  0.00    +0.046 A 
ATOM     16  C   UNL     1      -2.926   4.781  26.506  0.00  0.00    +0.008 A 
ATOM     19  C   UNL     1      -4.281   3.658  24.341  0.00  0.00    +0.159 A 
ATOM     20  C   UNL     1      -4.309   4.603  26.564  0.00  0.00    +0.041 A 
ATOM     23  C   UNL     1      -4.986   4.042  25.482  0.00  0.00    +0.158 A 
ENDBRANCH  10  12
ENDBRANCH   4  10
TORSDOF 3
ENDMDL
MODEL 4
REMARK VINA RESULT:      -3.2     24.574     26.953
REMARK  Name = 51137060
REMARK  3 active torsions:
REMARK  status: ('A' for Active; 'I' for Inactive)
REMARK    1  A    between atoms: N_4  and  C_10
REMARK    2  A    between atoms: C_6  and  C_11
REMARK    3  A    between atoms: C_10  and  C_12
REMARK                            x       y       z     vdW  Elec       q    Type
REMARK                         _______ _______ _______ _____ _____    ______ ____
ROOT
ATOM      4  N   UNL     1      14.015  -9.104  31.273  0.00  0.00    -0.297 NA
ATOM      6  C   UNL     1      11.874  -9.683  32.033  0.00  0.00    +0.090 C 
ATOM      7  C   UNL     1      12.175 -10.431  30.722  0.00  0.00    +0.029 C 
ATOM      8  C   UNL     1      12.929  -8.570  32.097  0.00  0.00    +0.097 C 
ATOM      9  C   UNL     1      13.354  -9.687  30.106  0.00  0.00    +0.085 C 
ENDROOT
BRANCH   6  11
ATOM      3  O   UNL     1       9.482  -9.978  31.674  0.00  0.00    -0.439 OA
ATOM      5  N   UNL     1      10.052  -8.025  32.675  0.00  0.00    -0.213 NA
ATOM     11  C   UNL     1      10.460  -9.163  32.159  0.00  0.00    +0.201 A 
ATOM     13  C   UNL     1       8.335  -9.275  31.912  0.00  0.00    +0.155 A 
ATOM     14  C   UNL     1       8.688  -8.081  32.524  0.00  0.00    +0.110 A 
ATOM     17  C   UNL     1       7.033  -9.655  31.610  0.00  0.00    +0.048 A 
ATOM     18  C   UNL     1       7.678  -7.173  32.873  0.00  0.00    +0.031 A 
ATOM     21  C   UNL     1       6.036  -8.738  31.965  0.00  0.00    +0.004 A 
ATOM     22  C   UNL     1       6.350  -7.522  32.584  0.00  0.00    +0.002 A 
ENDBRANCH   6  11
BRANCH   4  10
ATOM     10  C   UNL     1      14.987  -8.084  30.907  0.00  0.00    +0.119 C 
BRANCH  10  12
ATOM      1  F   UNL     1      16.529 -10.288  26.834  0.00  0.00    -0.202 F 
ATOM      2  F   UNL     1      16.004  -8.042  25.365  0.00  0.00    -0.202 F 
ATOM     12  C   UNL     1      15.258  -8.073  29.426  0.00  0.00    -0.030 A 
ATOM     15  C   UNL     1      15.779  -9.208  28.804  0.00  0.00    +0.046 A 
ATOM     16  C   UNL     1      14.990  -6.928  28.676  0.00  0.00    +0.008 A 
ATOM     19  C   UNL     1      16.030  -9.198  27.432  0.00  0.00    +0.159 A 
ATOM     20  C   UNL     1      15.242  -6.918  27.305  0.00  0.00    +0.041 A 
ATOM     23  C   UNL     1      15.761  -8.052  26.683  0.00  0.00    +0.158 A 
ENDBRANCH  10  12
ENDBRANCH   4  10
TORSDOF 3
ENDMDL
MODEL 5
REMARK VINA RESULT:      -3.2     16.230     17.856
REMARK  Name = 51137060
REMARK  3 active torsions:
REMARK  status: ('A' for Active; 'I' for Inactive)
REMARK    1  A    between atoms: N_4  and  C_10
REMARK    2  A    between atoms: C_6  and  C_11
REMARK    3  A    between atoms: C_10  and  C_12
REMARK                            x       y       z     vdW  Elec       q    Type
REMARK                         _______ _______ _______ _____ _____    ______ ____
ROOT
ATOM      4  N   UNL     1      -2.895  -0.320  24.540  0.00  0.00    -0.297 NA
ATOM      6  C   UNL     1      -0.830  -1.000  23.660  0.00  0.00    +0.090 C 
ATOM      7  C   UNL     1      -1.117  -1.775  24.958  0.00  0.00    +0.029 C 
ATOM      8  C   UNL     1      -1.815   0.177  23.684  0.00  0.00    +0.097 C 
ATOM      9  C   UNL     1      -2.219  -0.984  25.654  0.00  0.00    +0.085 C 
ENDROOT
BRANCH   6  11
ATOM      3  O   UNL     1       1.553  -1.460  23.876  0.00  0.00    -0.439 OA
ATOM      5  N   UNL     1       1.060   0.574  23.005  0.00  0.00    -0.213 NA
ATOM     11  C   UNL     1       0.606  -0.562  23.485  0.00  0.00    +0.201 A 
ATOM     13  C   UNL     1       2.729  -0.818  23.612  0.00  0.00    +0.155 A 
ATOM     14  C   UNL     1       2.424   0.426  23.080  0.00  0.00    +0.110 A 
ATOM     17  C   UNL     1       4.017  -1.293  23.826  0.00  0.00    +0.048 A 
ATOM     18  C   UNL     1       3.472   1.286  22.722  0.00  0.00    +0.031 A 
ATOM     21  C   UNL     1       5.052  -0.422  23.463  0.00  0.00    +0.004 A 
ATOM     22  C   UNL     1       4.787   0.841  22.923  0.00  0.00    +0.002 A 
ENDBRANCH   6  11
BRANCH   4  10
ATOM     10  C   UNL     1      -3.783   0.743  24.986  0.00  0.00    +0.119 C 
BRANCH  10  12
ATOM      1  F   UNL     1       0.132   3.456  26.053  0.00  0.00    -0.202 F 
ATOM      2  F   UNL     1      -1.152   5.721  25.218  0.00  0.00    -0.202 F 
ATOM     12  C   UNL     1      -3.080   2.074  25.047  0.00  0.00    -0.030 A 
ATOM     15  C   UNL     1      -1.774   2.151  25.531  0.00  0.00    +0.046 A 
ATOM     16  C   UNL     1      -3.735   3.229  24.621  0.00  0.00    +0.008 A 
ATOM     19  C   UNL     1      -1.122   3.382  25.588  0.00  0.00    +0.159 A 
ATOM     20  C   UNL     1      -3.083   4.461  24.679  0.00  0.00    +0.041 A 
ATOM     23  C   UNL     1      -1.777   4.537  25.162  0.00  0.00    +0.158 A 
ENDBRANCH  10  12
ENDBRANCH   4  10
TORSDOF 3
ENDMDL
MODEL 6
REMARK VINA RESULT:      -2.7      1.789      2.431
REMARK  Name = 51137060
REMARK  3 active torsions:
REMARK  status: ('A' for Active; 'I' for Inactive)
REMARK    1  A    between atoms: N_4  and  C_10
REMARK    2  A    between atoms: C_6  and  C_11
REMARK    3  A    between atoms: C_10  and  C_12
REMARK                            x       y       z     vdW  Elec       q    Type
REMARK                         _______ _______ _______ _____ _____    ______ ____
ROOT
ATOM      4  N   UNL     1      -4.655  -9.784   9.010  0.00  0.00    -0.297 NA
ATOM      6  C   UNL     1      -3.868  -9.336  11.173  0.00  0.00    +0.090 C 
ATOM      7  C   UNL     1      -2.844 -10.205  10.422  0.00  0.00    +0.029 C 
ATOM      8  C   UNL     1      -5.155  -9.450  10.345  0.00  0.00    +0.097 C 
ATOM      9  C   UNL     1      -3.609 -10.781   9.236  0.00  0.00    +0.085 C 
ENDROOT
BRANCH   6  11
ATOM      3  O   UNL     1      -5.361  -9.800  13.042  0.00  0.00    -0.439 OA
ATOM      5  N   UNL     1      -3.154  -9.937  13.541  0.00  0.00    -0.213 NA
ATOM     11  C   UNL     1      -4.068  -9.702  12.626  0.00  0.00    +0.201 A 
ATOM     13  C   UNL     1      -5.247 -10.133  14.362  0.00  0.00    +0.155 A 
ATOM     14  C   UNL     1      -3.895 -10.216  14.664  0.00  0.00    +0.110 A 
ATOM     17  C   UNL     1      -6.275 -10.357  15.269  0.00  0.00    +0.048 A 
ATOM     18  C   UNL     1      -3.511 -10.548  15.971  0.00  0.00    +0.031 A 
ATOM     21  C   UNL     1      -5.875 -10.687  16.569  0.00  0.00    +0.004 A 
ATOM     22  C   UNL     1      -4.522 -10.781  16.915  0.00  0.00    +0.002 A 
ENDBRANCH   6  11
BRANCH   4  10
ATOM     10  C   UNL     1      -5.706 -10.274   8.130  0.00  0.00    +0.119 C 
BRANCH  10  12
ATOM      1  F   UNL     1      -8.193  -6.074   8.190  0.00  0.00    -0.202 F 
ATOM      2  F   UNL     1     -10.507  -7.399   8.793  0.00  0.00    -0.202 F 
ATOM     12  C   UNL     1      -6.990  -9.506   8.307  0.00  0.00    -0.030 A 
ATOM     15  C   UNL     1      -6.997  -8.118   8.164  0.00  0.00    +0.046 A 
ATOM     16  C   UNL     1      -8.171 -10.182   8.614  0.00  0.00    +0.008 A 
ATOM     19  C   UNL     1      -8.185  -7.407   8.327  0.00  0.00    +0.159 A 
ATOM     20  C   UNL     1      -9.358  -9.470   8.778  0.00  0.00    +0.041 A 
ATOM     23  C   UNL     1      -9.366  -8.083   8.635  0.00  0.00    +0.158 A 
ENDBRANCH  10  12
ENDBRANCH   4  10
TORSDOF 3
ENDMDL
MODEL 7
REMARK VINA RESULT:      -2.7     14.630     17.106
REMARK  Name = 51137060
REMARK  3 active torsions:
REMARK  status: ('A' for Active; 'I' for Inactive)
REMARK    1  A    between atoms: N_4  and  C_10
REMARK    2  A    between atoms: C_6  and  C_11
REMARK    3  A    between atoms: C_10  and  C_12
REMARK                            x       y       z     vdW  Elec       q    Type
REMARK                         _______ _______ _______ _____ _____    ______ ____
ROOT
ATOM      4  N   UNL     1      -3.600   2.272  25.295  0.00  0.00    -0.297 NA
ATOM      6  C   UNL     1      -1.310   2.618  24.925  0.00  0.00    +0.090 C 
ATOM      7  C   UNL     1      -2.125   3.597  24.061  0.00  0.00    +0.029 C 
ATOM      8  C   UNL     1      -2.324   1.557  25.372  0.00  0.00    +0.097 C 
ATOM      9  C   UNL     1      -3.537   3.023  24.042  0.00  0.00    +0.085 C 
ENDROOT
BRANCH   6  11
ATOM      3  O   UNL     1      -0.324   0.915  23.488  0.00  0.00    -0.439 OA
ATOM      5  N   UNL     1       1.148   2.443  24.286  0.00  0.00    -0.213 NA
ATOM     11  C   UNL     1      -0.098   2.026  24.243  0.00  0.00    +0.201 A 
ATOM     13  C   UNL     1       0.914   0.601  23.003  0.00  0.00    +0.155 A 
ATOM     14  C   UNL     1       1.811   1.538  23.493  0.00  0.00    +0.110 A 
ATOM     17  C   UNL     1       1.250  -0.457  22.167  0.00  0.00    +0.048 A 
ATOM     18  C   UNL     1       3.163   1.433  23.136  0.00  0.00    +0.031 A 
ATOM     21  C   UNL     1       2.604  -0.547  21.819  0.00  0.00    +0.004 A 
ATOM     22  C   UNL     1       3.542   0.378  22.293  0.00  0.00    +0.002 A 
ENDBRANCH   6  11
BRANCH   4  10
ATOM     10  C   UNL     1      -4.744   1.374  25.346  0.00  0.00    +0.119 C 
BRANCH  10  12
ATOM      1  F   UNL     1      -4.595  -2.662  22.605  0.00  0.00    -0.202 F 
ATOM      2  F   UNL     1      -3.234  -3.999  24.564  0.00  0.00    -0.202 F 
ATOM     12  C   UNL     1      -4.340  -0.062  25.137  0.00  0.00    -0.030 A 
ATOM     15  C   UNL     1      -4.661  -0.710  23.945  0.00  0.00    +0.046 A 
ATOM     16  C   UNL     1      -3.645  -0.744  26.137  0.00  0.00    +0.008 A 
ATOM     19  C   UNL     1      -4.286  -2.039  23.750  0.00  0.00    +0.159 A 
ATOM     20  C   UNL     1      -3.272  -2.073  25.943  0.00  0.00    +0.041 A 
ATOM     23  C   UNL     1      -3.592  -2.721  24.750  0.00  0.00    +0.158 A 
ENDBRANCH  10  12
ENDBRANCH   4  10
TORSDOF 3
ENDMDL
MODEL 8
REMARK VINA RESULT:      -2.5     25.341     28.181
REMARK  Name = 51137060
REMARK  3 active torsions:
REMARK  status: ('A' for Active; 'I' for Inactive)
REMARK    1  A    between atoms: N_4  and  C_10
REMARK    2  A    between atoms: C_6  and  C_11
REMARK    3  A    between atoms: C_10  and  C_12
REMARK                            x       y       z     vdW  Elec       q    Type
REMARK                         _______ _______ _______ _____ _____    ______ ____
ROOT
ATOM      4  N   UNL     1      14.962 -10.002  31.717  0.00  0.00    -0.297 NA
ATOM      6  C   UNL     1      12.724 -10.685  31.556  0.00  0.00    +0.090 C 
ATOM      7  C   UNL     1      13.313 -10.513  30.144  0.00  0.00    +0.029 C 
ATOM      8  C   UNL     1      13.713  -9.961  32.480  0.00  0.00    +0.097 C 
ATOM      9  C   UNL     1      14.576  -9.683  30.343  0.00  0.00    +0.085 C 
ENDROOT
BRANCH   6  11
ATOM      3  O   UNL     1      11.153  -8.997  32.342  0.00  0.00    -0.439 OA
ATOM      5  N   UNL     1      10.191 -10.781  31.328  0.00  0.00    -0.213 NA
ATOM     11  C   UNL     1      11.303 -10.197  31.715  0.00  0.00    +0.201 A 
ATOM     13  C   UNL     1       9.800  -8.807  32.349  0.00  0.00    +0.155 A 
ATOM     14  C   UNL     1       9.215  -9.901  31.728  0.00  0.00    +0.110 A 
ATOM     17  C   UNL     1       9.101  -7.727  32.873  0.00  0.00    +0.048 A 
ATOM     18  C   UNL     1       7.819  -9.945  31.607  0.00  0.00    +0.031 A 
ATOM     21  C   UNL     1       7.708  -7.787  32.744  0.00  0.00    +0.004 A 
ATOM     22  C   UNL     1       7.078  -8.872  32.125  0.00  0.00    +0.002 A 
ENDBRANCH   6  11
BRANCH   4  10
ATOM     10  C   UNL     1      15.962  -9.082  32.239  0.00  0.00    +0.119 C 
BRANCH  10  12
ATOM      1  F   UNL     1      13.844  -4.698  32.592  0.00  0.00    -0.202 F 
ATOM      2  F   UNL     1      15.166  -3.829  30.362  0.00  0.00    -0.202 F 
ATOM     12  C   UNL     1      15.749  -7.678  31.738  0.00  0.00    -0.030 A 
ATOM     15  C   UNL     1      14.878  -6.821  32.410  0.00  0.00    +0.046 A 
ATOM     16  C   UNL     1      16.424  -7.235  30.600  0.00  0.00    +0.008 A 
ATOM     19  C   UNL     1      14.681  -5.521  31.946  0.00  0.00    +0.159 A 
ATOM     20  C   UNL     1      16.227  -5.934  30.136  0.00  0.00    +0.041 A 
ATOM     23  C   UNL     1      15.356  -5.078  30.808  0.00  0.00    +0.158 A 
ENDBRANCH  10  12
ENDBRANCH   4  10
TORSDOF 3
ENDMDL
MODEL 9
REMARK VINA RESULT:      -2.4     16.892     18.348
REMARK  Name = 51137060
REMARK  3 active torsions:
REMARK  status: ('A' for Active; 'I' for Inactive)
REMARK    1  A    between atoms: N_4  and  C_10
REMARK    2  A    between atoms: C_6  and  C_11
REMARK    3  A    between atoms: C_10  and  C_12
REMARK                            x       y       z     vdW  Elec       q    Type
REMARK                         _______ _______ _______ _____ _____    ______ ____
ROOT
ATOM      4  N   UNL     1       0.594   1.104  23.113  0.00  0.00    -0.297 NA
ATOM      6  C   UNL     1      -1.257   2.501  23.466  0.00  0.00    +0.090 C 
ATOM      7  C   UNL     1      -0.082   2.973  24.339  0.00  0.00    +0.029 C 
ATOM      8  C   UNL     1      -0.868   1.083  23.024  0.00  0.00    +0.097 C 
ATOM      9  C   UNL     1       0.886   1.796  24.368  0.00  0.00    +0.085 C 
ENDROOT
BRANCH   6  11
ATOM      3  O   UNL     1      -3.223   1.360  24.345  0.00  0.00    -0.439 OA
ATOM      5  N   UNL     1      -3.275   3.617  24.544  0.00  0.00    -0.213 NA
ATOM     11  C   UNL     1      -2.610   2.558  24.136  0.00  0.00    +0.201 A 
ATOM     13  C   UNL     1      -4.399   1.702  24.949  0.00  0.00    +0.155 A 
ATOM     14  C   UNL     1      -4.427   3.084  25.069  0.00  0.00    +0.110 A 
ATOM     17  C   UNL     1      -5.407   0.849  25.380  0.00  0.00    +0.048 A 
ATOM     18  C   UNL     1      -5.543   3.690  25.664  0.00  0.00    +0.031 A 
ATOM     21  C   UNL     1      -6.514   1.470  25.972  0.00  0.00    +0.004 A 
ATOM     22  C   UNL     1      -6.582   2.861  26.112  0.00  0.00    +0.002 A 
ENDBRANCH   6  11
BRANCH   4  10
ATOM     10  C   UNL     1       1.171  -0.231  23.069  0.00  0.00    +0.119 C 
BRANCH  10  12
ATOM      1  F   UNL     1       5.431  -2.323  24.211  0.00  0.00    -0.202 F 
ATOM      2  F   UNL     1       6.795  -0.097  23.399  0.00  0.00    -0.202 F 
ATOM     12  C   UNL     1       2.675  -0.195  23.157  0.00  0.00    -0.030 A 
ATOM     15  C   UNL     1       3.370  -1.297  23.653  0.00  0.00    +0.046 A 
ATOM     16  C   UNL     1       3.371   0.940  22.742  0.00  0.00    +0.008 A 
ATOM     19  C   UNL     1       4.762  -1.265  23.734  0.00  0.00    +0.159 A 
ATOM     20  C   UNL     1       4.762   0.973  22.824  0.00  0.00    +0.041 A 
ATOM     23  C   UNL     1       5.458  -0.129  23.320  0.00  0.00    +0.158 A 
ENDBRANCH  10  12
ENDBRANCH   4  10
TORSDOF 3
ENDMDL
MODEL 10
REMARK VINA RESULT:      -2.2     15.288     17.889
REMARK  Name = 51137060
REMARK  3 active torsions:
REMARK  status: ('A' for Active; 'I' for Inactive)
REMARK    1  A    between atoms: N_4  and  C_10
REMARK    2  A    between atoms: C_6  and  C_11
REMARK    3  A    between atoms: C_10  and  C_12
REMARK                            x       y       z     vdW  Elec       q    Type
REMARK                         _______ _______ _______ _____ _____    ______ ____
ROOT
ATOM      4  N   UNL     1      -5.397   3.630  25.302  0.00  0.00    -0.297 NA
ATOM      6  C   UNL     1      -5.455   1.396  24.589  0.00  0.00    +0.090 C 
ATOM      7  C   UNL     1      -6.242   1.538  25.904  0.00  0.00    +0.029 C 
ATOM      8  C   UNL     1      -4.626   2.684  24.492  0.00  0.00    +0.097 C 
ATOM      9  C   UNL     1      -5.796   2.873  26.488  0.00  0.00    +0.085 C 
ENDROOT
BRANCH   6  11
ATOM      3  O   UNL     1      -3.285   0.297  24.741  0.00  0.00    -0.439 OA
ATOM      5  N   UNL     1      -4.999  -1.074  24.174  0.00  0.00    -0.213 NA
ATOM     11  C   UNL     1      -4.614   0.144  24.484  0.00  0.00    +0.201 A 
ATOM     13  C   UNL     1      -2.781  -0.962  24.576  0.00  0.00    +0.155 A 
ATOM     14  C   UNL     1      -3.833  -1.798  24.229  0.00  0.00    +0.110 A 
ATOM     17  C   UNL     1      -1.461  -1.369  24.721  0.00  0.00    +0.048 A 
ATOM     18  C   UNL     1      -3.572  -3.156  24.002  0.00  0.00    +0.031 A 
ATOM     21  C   UNL     1      -1.218  -2.729  24.491  0.00  0.00    +0.004 A 
ATOM     22  C   UNL     1      -2.250  -3.606  24.138  0.00  0.00    +0.002 A 
ENDBRANCH   6  11
BRANCH   4  10
ATOM     10  C   UNL     1      -4.634   4.823  25.636  0.00  0.00    +0.119 C 
BRANCH  10  12
ATOM      1  F   UNL     1      -0.694   2.072  26.491  0.00  0.00    -0.202 F 
ATOM      2  F   UNL     1       0.920   3.932  25.303  0.00  0.00    -0.202 F 
ATOM     12  C   UNL     1      -3.150   4.585  25.547  0.00  0.00    -0.030 A 
ATOM     15  C   UNL     1      -2.598   3.416  26.071  0.00  0.00    +0.046 A 
ATOM     16  C   UNL     1      -2.327   5.534  24.940  0.00  0.00    +0.008 A 
ATOM     19  C   UNL     1      -1.224   3.195  25.988  0.00  0.00    +0.159 A 
ATOM     20  C   UNL     1      -0.952   5.313  24.858  0.00  0.00    +0.041 A 
ATOM     23  C   UNL     1      -0.401   4.144  25.381  0.00  0.00    +0.158 A 
ENDBRANCH  10  12
ENDBRANCH   4  10
TORSDOF 3
ENDMDL
