MODEL 1
REMARK VINA RESULT:      -4.2      0.000      0.000
REMARK  Name = 45783351
REMARK  11 active torsions:
REMARK  status: ('A' for Active; 'I' for Inactive)
REMARK    1  A    between atoms: O_2  and  C_21
REMARK    2  A    between atoms: O_2  and  C_23
REMARK    3  A    between atoms: O_3  and  C_24
REMARK    4  A    between atoms: O_3  and  C_25
REMARK    5  A    between atoms: N_4  and  C_12
REMARK    6  A    between atoms: C_8  and  C_14
REMARK    7  A    between atoms: C_12  and  C_13
REMARK    8  A    between atoms: C_13  and  C_15
REMARK    9  A    between atoms: C_13  and  C_16
REMARK   10  A    between atoms: C_17  and  C_18
REMARK   11  A    between atoms: C_23  and  C_24
REMARK                            x       y       z     vdW  Elec       q    Type
REMARK                         _______ _______ _______ _____ _____    ______ ____
ROOT
ATOM      1  O   UNL     1      -1.864   2.373  25.388  0.00  0.00    -0.336 OA
ATOM      5  N   UNL     1      -1.863   1.354  23.393  0.00  0.00    -0.190 NA
ATOM      6  N   UNL     1      -0.532   2.028  25.127  0.00  0.00    -0.056 NA
ATOM     14  C   UNL     1      -2.582   1.940  24.319  0.00  0.00    +0.245 A 
ATOM     17  C   UNL     1      -0.613   1.432  23.934  0.00  0.00    +0.202 A 
ENDROOT
BRANCH  17  18
ATOM      7  N   UNL     1       2.771  -0.130  21.934  0.00  0.00    -0.221 NA
ATOM     18  C   UNL     1       0.534   0.902  23.257  0.00  0.00    +0.029 A 
ATOM     19  C   UNL     1       1.796   1.435  23.498  0.00  0.00    +0.079 A 
ATOM     20  C   UNL     1       0.391  -0.147  22.355  0.00  0.00    +0.031 A 
ATOM     21  C   UNL     1       2.872   0.889  22.817  0.00  0.00    +0.215 A 
ATOM     22  C   UNL     1       1.529  -0.622  21.726  0.00  0.00    +0.115 A 
BRANCH  21   2
ATOM      2  O   UNL     1       4.125   1.397  23.038  0.00  0.00    -0.474 OA
BRANCH   2  23
ATOM     23  C   UNL     1       5.210   0.478  22.966  0.00  0.00    +0.258 C 
BRANCH  23  24
ATOM     24  C   UNL     1       5.774   0.270  24.358  0.00  0.00    +0.200 C 
BRANCH  24   3
ATOM      3  O   UNL     1       5.681  -1.108  24.696  0.00  0.00    -0.380 OA
ATOM     25  C   UNL     1       4.692  -1.770  23.918  0.00  0.00    +0.194 C 
ENDBRANCH  24   3
ENDBRANCH  23  24
ENDBRANCH   2  23
ENDBRANCH  21   2
ENDBRANCH  17  18
BRANCH  14   8
ATOM      4  N   UNL     1      -4.789   1.254  25.240  0.00  0.00    -0.291 NA
ATOM      8  C   UNL     1      -4.073   2.197  24.357  0.00  0.00    +0.146 C 
ATOM      9  C   UNL     1      -4.421   3.592  24.910  0.00  0.00    +0.030 C 
ATOM     10  C   UNL     1      -5.962   1.969  25.744  0.00  0.00    +0.085 C 
ATOM     11  C   UNL     1      -5.384   3.335  26.061  0.00  0.00    +0.017 C 
BRANCH   4  12
ATOM     12  C   UNL     1      -5.151   0.008  24.576  0.00  0.00    +0.088 C 
BRANCH  12  13
ATOM     13  C   UNL     1      -3.963  -0.964  24.465  0.00  0.00    -0.003 C 
ATOM     15  C   UNL     1      -3.390  -1.239  25.859  0.00  0.00    +0.008 C 
ATOM     16  C   UNL     1      -4.347  -2.285  23.797  0.00  0.00    +0.008 C 
ENDBRANCH  12  13
ENDBRANCH   4  12
ENDBRANCH  14   8
TORSDOF 8
ENDMDL
MODEL 2
REMARK VINA RESULT:      -3.6      1.598      2.860
REMARK  Name = 45783351
REMARK  11 active torsions:
REMARK  status: ('A' for Active; 'I' for Inactive)
REMARK    1  A    between atoms: O_2  and  C_21
REMARK    2  A    between atoms: O_2  and  C_23
REMARK    3  A    between atoms: O_3  and  C_24
REMARK    4  A    between atoms: O_3  and  C_25
REMARK    5  A    between atoms: N_4  and  C_12
REMARK    6  A    between atoms: C_8  and  C_14
REMARK    7  A    between atoms: C_12  and  C_13
REMARK    8  A    between atoms: C_13  and  C_15
REMARK    9  A    between atoms: C_13  and  C_16
REMARK   10  A    between atoms: C_17  and  C_18
REMARK   11  A    between atoms: C_23  and  C_24
REMARK                            x       y       z     vdW  Elec       q    Type
REMARK                         _______ _______ _______ _____ _____    ______ ____
ROOT
ATOM      1  O   UNL     1      -2.289  -0.534  25.554  0.00  0.00    -0.336 OA
ATOM      5  N   UNL     1      -1.620   1.124  24.203  0.00  0.00    -0.190 NA
ATOM      6  N   UNL     1      -1.148  -1.006  24.893  0.00  0.00    -0.056 NA
ATOM     14  C   UNL     1      -2.499   0.727  25.090  0.00  0.00    +0.245 A 
ATOM     17  C   UNL     1      -0.813   0.028  24.115  0.00  0.00    +0.202 A 
ENDROOT
BRANCH  17  18
ATOM      7  N   UNL     1       2.533  -0.062  21.528  0.00  0.00    -0.221 NA
ATOM     18  C   UNL     1       0.322  -0.003  23.238  0.00  0.00    +0.029 A 
ATOM     19  C   UNL     1       1.488   0.673  23.581  0.00  0.00    +0.079 A 
ATOM     20  C   UNL     1       0.261  -0.708  22.042  0.00  0.00    +0.031 A 
ATOM     21  C   UNL     1       2.555   0.613  22.699  0.00  0.00    +0.215 A 
ATOM     22  C   UNL     1       1.382  -0.707  21.229  0.00  0.00    +0.115 A 
BRANCH  21   2
ATOM      2  O   UNL     1       3.715   1.271  23.014  0.00  0.00    -0.474 OA
BRANCH   2  23
ATOM     23  C   UNL     1       4.925   0.534  22.878  0.00  0.00    +0.258 C 
BRANCH  23  24
ATOM     24  C   UNL     1       5.584   0.411  24.238  0.00  0.00    +0.200 C 
BRANCH  24   3
ATOM      3  O   UNL     1       5.621  -0.960  24.614  0.00  0.00    -0.380 OA
ATOM     25  C   UNL     1       4.640  -1.718  23.919  0.00  0.00    +0.194 C 
ENDBRANCH  24   3
ENDBRANCH  23  24
ENDBRANCH   2  23
ENDBRANCH  21   2
ENDBRANCH  17  18
BRANCH  14   8
ATOM      4  N   UNL     1      -3.819   2.836  25.122  0.00  0.00    -0.291 NA
ATOM      8  C   UNL     1      -3.691   1.466  25.658  0.00  0.00    +0.146 C 
ATOM      9  C   UNL     1      -5.030   0.786  25.316  0.00  0.00    +0.030 C 
ATOM     10  C   UNL     1      -5.246   3.158  25.145  0.00  0.00    +0.085 C 
ATOM     11  C   UNL     1      -5.866   1.867  24.646  0.00  0.00    +0.017 C 
BRANCH   4  12
ATOM     12  C   UNL     1      -3.024   3.815  25.854  0.00  0.00    +0.088 C 
BRANCH  12  13
ATOM     13  C   UNL     1      -1.713   4.166  25.130  0.00  0.00    -0.003 C 
ATOM     15  C   UNL     1      -1.550   5.687  25.066  0.00  0.00    +0.008 C 
ATOM     16  C   UNL     1      -0.487   3.545  25.803  0.00  0.00    +0.008 C 
ENDBRANCH  12  13
ENDBRANCH   4  12
ENDBRANCH  14   8
TORSDOF 8
ENDMDL
MODEL 3
REMARK VINA RESULT:      -2.4     17.219     18.556
REMARK  Name = 45783351
REMARK  11 active torsions:
REMARK  status: ('A' for Active; 'I' for Inactive)
REMARK    1  A    between atoms: O_2  and  C_21
REMARK    2  A    between atoms: O_2  and  C_23
REMARK    3  A    between atoms: O_3  and  C_24
REMARK    4  A    between atoms: O_3  and  C_25
REMARK    5  A    between atoms: N_4  and  C_12
REMARK    6  A    between atoms: C_8  and  C_14
REMARK    7  A    between atoms: C_12  and  C_13
REMARK    8  A    between atoms: C_13  and  C_15
REMARK    9  A    between atoms: C_13  and  C_16
REMARK   10  A    between atoms: C_17  and  C_18
REMARK   11  A    between atoms: C_23  and  C_24
REMARK                            x       y       z     vdW  Elec       q    Type
REMARK                         _______ _______ _______ _____ _____    ______ ____
ROOT
ATOM      1  O   UNL     1      13.621  -7.273  29.276  0.00  0.00    -0.336 OA
ATOM      5  N   UNL     1      15.433  -8.469  28.725  0.00  0.00    -0.190 NA
ATOM      6  N   UNL     1      14.043  -6.789  28.032  0.00  0.00    -0.056 NA
ATOM     14  C   UNL     1      14.494  -8.259  29.613  0.00  0.00    +0.245 A 
ATOM     17  C   UNL     1      15.116  -7.544  27.774  0.00  0.00    +0.202 A 
ENDROOT
BRANCH  17  18
ATOM      7  N   UNL     1      17.405  -7.116  24.242  0.00  0.00    -0.221 NA
ATOM     18  C   UNL     1      15.892  -7.398  26.577  0.00  0.00    +0.029 A 
ATOM     19  C   UNL     1      16.271  -6.134  26.139  0.00  0.00    +0.079 A 
ATOM     20  C   UNL     1      16.269  -8.521  25.849  0.00  0.00    +0.031 A 
ATOM     21  C   UNL     1      17.020  -6.047  24.976  0.00  0.00    +0.215 A 
ATOM     22  C   UNL     1      17.018  -8.328  24.700  0.00  0.00    +0.115 A 
BRANCH  21   2
ATOM      2  O   UNL     1      17.405  -4.813  24.525  0.00  0.00    -0.474 OA
BRANCH   2  23
ATOM     23  C   UNL     1      16.409  -3.796  24.514  0.00  0.00    +0.258 C 
BRANCH  23  24
ATOM     24  C   UNL     1      16.171  -3.353  23.084  0.00  0.00    +0.200 C 
BRANCH  24   3
ATOM      3  O   UNL     1      16.111  -1.933  23.041  0.00  0.00    -0.380 OA
ATOM     25  C   UNL     1      16.888  -1.347  24.077  0.00  0.00    +0.194 C 
ENDBRANCH  24   3
ENDBRANCH  23  24
ENDBRANCH   2  23
ENDBRANCH  21   2
ENDBRANCH  17  18
BRANCH  14   8
ATOM      4  N   UNL     1      13.697  -8.044  31.961  0.00  0.00    -0.291 NA
ATOM      8  C   UNL     1      14.251  -8.953  30.936  0.00  0.00    +0.146 C 
ATOM      9  C   UNL     1      13.222 -10.094  30.829  0.00  0.00    +0.030 C 
ATOM     10  C   UNL     1      12.885  -8.873  32.853  0.00  0.00    +0.085 C 
ATOM     11  C   UNL     1      12.160  -9.773  31.871  0.00  0.00    +0.017 C 
BRANCH   4  12
ATOM     12  C   UNL     1      14.722  -7.302  32.684  0.00  0.00    +0.088 C 
BRANCH  12  13
ATOM     13  C   UNL     1      14.434  -5.791  32.724  0.00  0.00    -0.003 C 
ATOM     15  C   UNL     1      15.181  -5.093  31.584  0.00  0.00    +0.008 C 
ATOM     16  C   UNL     1      12.940  -5.476  32.631  0.00  0.00    +0.008 C 
ENDBRANCH  12  13
ENDBRANCH   4  12
ENDBRANCH  14   8
TORSDOF 8
ENDMDL
MODEL 4
REMARK VINA RESULT:      -1.6     16.046     18.802
REMARK  Name = 45783351
REMARK  11 active torsions:
REMARK  status: ('A' for Active; 'I' for Inactive)
REMARK    1  A    between atoms: O_2  and  C_21
REMARK    2  A    between atoms: O_2  and  C_23
REMARK    3  A    between atoms: O_3  and  C_24
REMARK    4  A    between atoms: O_3  and  C_25
REMARK    5  A    between atoms: N_4  and  C_12
REMARK    6  A    between atoms: C_8  and  C_14
REMARK    7  A    between atoms: C_12  and  C_13
REMARK    8  A    between atoms: C_13  and  C_15
REMARK    9  A    between atoms: C_13  and  C_16
REMARK   10  A    between atoms: C_17  and  C_18
REMARK   11  A    between atoms: C_23  and  C_24
REMARK                            x       y       z     vdW  Elec       q    Type
REMARK                         _______ _______ _______ _____ _____    ______ ____
ROOT
ATOM      1  O   UNL     1      13.324  -6.222  29.908  0.00  0.00    -0.336 OA
ATOM      5  N   UNL     1      14.442  -7.704  31.162  0.00  0.00    -0.190 NA
ATOM      6  N   UNL     1      14.086  -6.989  29.018  0.00  0.00    -0.056 NA
ATOM     14  C   UNL     1      13.592  -6.708  31.149  0.00  0.00    +0.245 A 
ATOM     17  C   UNL     1      14.717  -7.840  29.832  0.00  0.00    +0.202 A 
ENDROOT
BRANCH  17  18
ATOM      7  N   UNL     1      17.405 -10.781  28.412  0.00  0.00    -0.221 NA
ATOM     18  C   UNL     1      15.628  -8.837  29.351  0.00  0.00    +0.029 A 
ATOM     19  C   UNL     1      15.960  -8.886  28.001  0.00  0.00    +0.079 A 
ATOM     20  C   UNL     1      16.184  -9.758  30.231  0.00  0.00    +0.031 A 
ATOM     21  C   UNL     1      16.845  -9.869  27.586  0.00  0.00    +0.215 A 
ATOM     22  C   UNL     1      17.059 -10.701  29.717  0.00  0.00    +0.115 A 
BRANCH  21   2
ATOM      2  O   UNL     1      17.187  -9.938  26.262  0.00  0.00    -0.474 OA
BRANCH   2  23
ATOM     23  C   UNL     1      16.329  -9.269  25.344  0.00  0.00    +0.258 C 
BRANCH  23  24
ATOM     24  C   UNL     1      15.590 -10.302  24.515  0.00  0.00    +0.200 C 
BRANCH  24   3
ATOM      3  O   UNL     1      14.467 -10.770  25.251  0.00  0.00    -0.380 OA
ATOM     25  C   UNL     1      13.261 -10.617  24.515  0.00  0.00    +0.194 C 
ENDBRANCH  24   3
ENDBRANCH  23  24
ENDBRANCH   2  23
ENDBRANCH  21   2
ENDBRANCH  17  18
BRANCH  14   8
ATOM      4  N   UNL     1      12.899  -4.565  32.206  0.00  0.00    -0.291 NA
ATOM      8  C   UNL     1      12.880  -6.038  32.305  0.00  0.00    +0.146 C 
ATOM      9  C   UNL     1      11.386  -6.406  32.376  0.00  0.00    +0.030 C 
ATOM     10  C   UNL     1      11.686  -4.090  32.873  0.00  0.00    +0.085 C 
ATOM     11  C   UNL     1      10.647  -5.075  32.373  0.00  0.00    +0.017 C 
BRANCH   4  12
ATOM     12  C   UNL     1      14.103  -3.967  32.769  0.00  0.00    +0.088 C 
BRANCH  12  13
ATOM     13  C   UNL     1      15.301  -4.044  31.807  0.00  0.00    -0.003 C 
ATOM     15  C   UNL     1      15.848  -2.637  31.549  0.00  0.00    +0.008 C 
ATOM     16  C   UNL     1      16.421  -4.944  32.335  0.00  0.00    +0.008 C 
ENDBRANCH  12  13
ENDBRANCH   4  12
ENDBRANCH  14   8
TORSDOF 8
ENDMDL
MODEL 5
REMARK VINA RESULT:      -1.1      2.139      3.379
REMARK  Name = 45783351
REMARK  11 active torsions:
REMARK  status: ('A' for Active; 'I' for Inactive)
REMARK    1  A    between atoms: O_2  and  C_21
REMARK    2  A    between atoms: O_2  and  C_23
REMARK    3  A    between atoms: O_3  and  C_24
REMARK    4  A    between atoms: O_3  and  C_25
REMARK    5  A    between atoms: N_4  and  C_12
REMARK    6  A    between atoms: C_8  and  C_14
REMARK    7  A    between atoms: C_12  and  C_13
REMARK    8  A    between atoms: C_13  and  C_15
REMARK    9  A    between atoms: C_13  and  C_16
REMARK   10  A    between atoms: C_17  and  C_18
REMARK   11  A    between atoms: C_23  and  C_24
REMARK                            x       y       z     vdW  Elec       q    Type
REMARK                         _______ _______ _______ _____ _____    ______ ____
ROOT
ATOM      1  O   UNL     1      -4.225   0.152  24.483  0.00  0.00    -0.336 OA
ATOM      5  N   UNL     1      -2.338   0.998  25.344  0.00  0.00    -0.190 NA
ATOM      6  N   UNL     1      -3.186  -0.666  24.022  0.00  0.00    -0.056 NA
ATOM     14  C   UNL     1      -3.640   1.107  25.253  0.00  0.00    +0.245 A 
ATOM     17  C   UNL     1      -2.106  -0.103  24.572  0.00  0.00    +0.202 A 
ENDROOT
BRANCH  17  18
ATOM      7  N   UNL     1       1.801  -1.613  23.978  0.00  0.00    -0.221 NA
ATOM     18  C   UNL     1      -0.781  -0.614  24.371  0.00  0.00    +0.029 A 
ATOM     19  C   UNL     1       0.069  -0.010  23.451  0.00  0.00    +0.079 A 
ATOM     20  C   UNL     1      -0.341  -1.717  25.095  0.00  0.00    +0.031 A 
ATOM     21  C   UNL     1       1.338  -0.543  23.293  0.00  0.00    +0.215 A 
ATOM     22  C   UNL     1       0.946  -2.173  24.864  0.00  0.00    +0.115 A 
BRANCH  21   2
ATOM      2  O   UNL     1       2.194   0.034  22.393  0.00  0.00    -0.474 OA
BRANCH   2  23
ATOM     23  C   UNL     1       3.136   0.966  22.913  0.00  0.00    +0.258 C 
BRANCH  23  24
ATOM     24  C   UNL     1       4.528   0.563  22.467  0.00  0.00    +0.200 C 
BRANCH  24   3
ATOM      3  O   UNL     1       5.395   0.562  23.594  0.00  0.00    -0.380 OA
ATOM     25  C   UNL     1       5.350  -0.679  24.285  0.00  0.00    +0.194 C 
ENDBRANCH  24   3
ENDBRANCH  23  24
ENDBRANCH   2  23
ENDBRANCH  21   2
ENDBRANCH  17  18
BRANCH  14   8
ATOM      4  N   UNL     1      -4.358   3.488  25.338  0.00  0.00    -0.291 NA
ATOM      8  C   UNL     1      -4.564   2.129  25.879  0.00  0.00    +0.146 C 
ATOM      9  C   UNL     1      -6.051   1.825  25.617  0.00  0.00    +0.030 C 
ATOM     10  C   UNL     1      -5.648   4.172  25.435  0.00  0.00    +0.085 C 
ATOM     11  C   UNL     1      -6.611   3.091  24.982  0.00  0.00    +0.017 C 
BRANCH   4  12
ATOM     12  C   UNL     1      -3.296   4.221  26.016  0.00  0.00    +0.088 C 
BRANCH  12  13
ATOM     13  C   UNL     1      -2.011   4.305  25.175  0.00  0.00    -0.003 C 
ATOM     15  C   UNL     1      -1.593   5.770  25.016  0.00  0.00    +0.008 C 
ATOM     16  C   UNL     1      -0.858   3.504  25.784  0.00  0.00    +0.008 C 
ENDBRANCH  12  13
ENDBRANCH   4  12
ENDBRANCH  14   8
TORSDOF 8
ENDMDL
MODEL 6
REMARK VINA RESULT:      -0.9      2.726      5.024
REMARK  Name = 45783351
REMARK  11 active torsions:
REMARK  status: ('A' for Active; 'I' for Inactive)
REMARK    1  A    between atoms: O_2  and  C_21
REMARK    2  A    between atoms: O_2  and  C_23
REMARK    3  A    between atoms: O_3  and  C_24
REMARK    4  A    between atoms: O_3  and  C_25
REMARK    5  A    between atoms: N_4  and  C_12
REMARK    6  A    between atoms: C_8  and  C_14
REMARK    7  A    between atoms: C_12  and  C_13
REMARK    8  A    between atoms: C_13  and  C_15
REMARK    9  A    between atoms: C_13  and  C_16
REMARK   10  A    between atoms: C_17  and  C_18
REMARK   11  A    between atoms: C_23  and  C_24
REMARK                            x       y       z     vdW  Elec       q    Type
REMARK                         _______ _______ _______ _____ _____    ______ ____
ROOT
ATOM      1  O   UNL     1      -5.498   2.257  25.406  0.00  0.00    -0.336 OA
ATOM      5  N   UNL     1      -3.417   1.645  24.845  0.00  0.00    -0.190 NA
ATOM      6  N   UNL     1      -5.533   0.867  25.236  0.00  0.00    -0.056 NA
ATOM     14  C   UNL     1      -4.216   2.635  25.156  0.00  0.00    +0.245 A 
ATOM     17  C   UNL     1      -4.269   0.582  24.906  0.00  0.00    +0.202 A 
ENDROOT
BRANCH  17  18
ATOM      7  N   UNL     1      -2.965  -3.360  24.094  0.00  0.00    -0.221 NA
ATOM     18  C   UNL     1      -3.827  -0.754  24.631  0.00  0.00    +0.029 A 
ATOM     19  C   UNL     1      -2.543  -1.153  24.989  0.00  0.00    +0.079 A 
ATOM     20  C   UNL     1      -4.679  -1.658  24.006  0.00  0.00    +0.031 A 
ATOM     21  C   UNL     1      -2.164  -2.454  24.701  0.00  0.00    +0.215 A 
ATOM     22  C   UNL     1      -4.205  -2.936  23.762  0.00  0.00    +0.115 A 
BRANCH  21   2
ATOM      2  O   UNL     1      -0.905  -2.870  25.044  0.00  0.00    -0.474 OA
BRANCH   2  23
ATOM     23  C   UNL     1       0.121  -1.883  25.031  0.00  0.00    +0.258 C 
BRANCH  23  24
ATOM     24  C   UNL     1      -0.003  -1.059  23.764  0.00  0.00    +0.200 C 
BRANCH  24   3
ATOM      3  O   UNL     1       0.963  -0.016  23.792  0.00  0.00    -0.380 OA
ATOM     25  C   UNL     1       1.744   0.003  22.605  0.00  0.00    +0.194 C 
ENDBRANCH  24   3
ENDBRANCH  23  24
ENDBRANCH   2  23
ENDBRANCH  21   2
ENDBRANCH  17  18
BRANCH  14   8
ATOM      4  N   UNL     1      -2.537   4.446  24.856  0.00  0.00    -0.291 NA
ATOM      8  C   UNL     1      -3.913   4.113  25.276  0.00  0.00    +0.146 C 
ATOM      9  C   UNL     1      -4.817   4.979  24.380  0.00  0.00    +0.030 C 
ATOM     10  C   UNL     1      -2.581   5.817  24.347  0.00  0.00    +0.085 C 
ATOM     11  C   UNL     1      -3.861   5.809  23.533  0.00  0.00    +0.017 C 
BRANCH   4  12
ATOM     12  C   UNL     1      -1.557   4.289  25.923  0.00  0.00    +0.088 C 
BRANCH  12  13
ATOM     13  C   UNL     1      -0.330   3.474  25.478  0.00  0.00    -0.003 C 
ATOM     15  C   UNL     1      -0.182   2.237  26.369  0.00  0.00    +0.008 C 
ATOM     16  C   UNL     1      -0.412   3.044  24.012  0.00  0.00    +0.008 C 
ENDBRANCH  12  13
ENDBRANCH   4  12
ENDBRANCH  14   8
TORSDOF 8
ENDMDL
MODEL 7
REMARK VINA RESULT:      -0.4      2.326      4.297
REMARK  Name = 45783351
REMARK  11 active torsions:
REMARK  status: ('A' for Active; 'I' for Inactive)
REMARK    1  A    between atoms: O_2  and  C_21
REMARK    2  A    between atoms: O_2  and  C_23
REMARK    3  A    between atoms: O_3  and  C_24
REMARK    4  A    between atoms: O_3  and  C_25
REMARK    5  A    between atoms: N_4  and  C_12
REMARK    6  A    between atoms: C_8  and  C_14
REMARK    7  A    between atoms: C_12  and  C_13
REMARK    8  A    between atoms: C_13  and  C_15
REMARK    9  A    between atoms: C_13  and  C_16
REMARK   10  A    between atoms: C_17  and  C_18
REMARK   11  A    between atoms: C_23  and  C_24
REMARK                            x       y       z     vdW  Elec       q    Type
REMARK                         _______ _______ _______ _____ _____    ______ ____
ROOT
ATOM      1  O   UNL     1      -5.668   0.974  24.961  0.00  0.00    -0.336 OA
ATOM      5  N   UNL     1      -3.486   1.120  25.450  0.00  0.00    -0.190 NA
ATOM      6  N   UNL     1      -5.083  -0.211  24.494  0.00  0.00    -0.056 NA
ATOM     14  C   UNL     1      -4.659   1.702  25.508  0.00  0.00    +0.245 A 
ATOM     17  C   UNL     1      -3.797  -0.049  24.819  0.00  0.00    +0.202 A 
ENDROOT
BRANCH  17  18
ATOM      7  N   UNL     1      -0.851  -2.960  23.961  0.00  0.00    -0.221 NA
ATOM     18  C   UNL     1      -2.798  -1.036  24.528  0.00  0.00    +0.029 A 
ATOM     19  C   UNL     1      -1.470  -0.657  24.361  0.00  0.00    +0.079 A 
ATOM     20  C   UNL     1      -3.153  -2.375  24.413  0.00  0.00    +0.031 A 
ATOM     21  C   UNL     1      -0.544  -1.649  24.080  0.00  0.00    +0.215 A 
ATOM     22  C   UNL     1      -2.151  -3.289  24.130  0.00  0.00    +0.115 A 
BRANCH  21   2
ATOM      2  O   UNL     1       0.770  -1.301  23.911  0.00  0.00    -0.474 OA
BRANCH   2  23
ATOM     23  C   UNL     1       1.025  -0.020  23.345  0.00  0.00    +0.258 C 
BRANCH  23  24
ATOM     24  C   UNL     1       2.221  -0.119  22.418  0.00  0.00    +0.200 C 
BRANCH  24   3
ATOM      3  O   UNL     1       3.113   0.953  22.694  0.00  0.00    -0.380 OA
ATOM     25  C   UNL     1       4.378   0.478  23.136  0.00  0.00    +0.194 C 
ENDBRANCH  24   3
ENDBRANCH  23  24
ENDBRANCH   2  23
ENDBRANCH  21   2
ENDBRANCH  17  18
BRANCH  14   8
ATOM      4  N   UNL     1      -4.158   4.136  25.623  0.00  0.00    -0.291 NA
ATOM      8  C   UNL     1      -5.036   3.046  26.092  0.00  0.00    +0.146 C 
ATOM      9  C   UNL     1      -6.456   3.489  25.695  0.00  0.00    +0.030 C 
ATOM     10  C   UNL     1      -4.968   5.355  25.637  0.00  0.00    +0.085 C 
ATOM     11  C   UNL     1      -6.283   4.864  25.065  0.00  0.00    +0.017 C 
BRANCH   4  12
ATOM     12  C   UNL     1      -2.942   4.276  26.415  0.00  0.00    +0.088 C 
BRANCH  12  13
ATOM     13  C   UNL     1      -1.672   4.274  25.547  0.00  0.00    -0.003 C 
ATOM     15  C   UNL     1      -1.825   3.258  24.412  0.00  0.00    +0.008 C 
ATOM     16  C   UNL     1      -1.357   5.653  24.965  0.00  0.00    +0.008 C 
ENDBRANCH  12  13
ENDBRANCH   4  12
ENDBRANCH  14   8
TORSDOF 8
ENDMDL
