MODEL 1
REMARK VINA RESULT:      -7.3      0.000      0.000
REMARK  Name = 75536881
REMARK  3 active torsions:
REMARK  status: ('A' for Active; 'I' for Inactive)
REMARK    1  A    between atoms: O_2  and  C_6
REMARK    2  A    between atoms: O_2  and  C_13
REMARK    3  A    between atoms: C_11  and  C_12
REMARK                            x       y       z     vdW  Elec       q    Type
REMARK                         _______ _______ _______ _____ _____    ______ ____
ROOT
ATOM      1  O   UNL     1      -1.552   4.492  25.061  0.00  0.00    -0.376 OA
ATOM      3  O   UNL     1      -5.520   1.485  25.652  0.00  0.00    -0.270 OA
ATOM      4  N   UNL     1      -3.488   2.173  24.707  0.00  0.00    -0.293 N 
ATOM      6  C   UNL     1      -1.062   2.035  25.144  0.00  0.00    +0.161 C 
ATOM      7  C   UNL     1      -2.179   1.836  24.122  0.00  0.00    +0.142 C 
ATOM      8  C   UNL     1      -3.780   3.599  24.873  0.00  0.00    +0.136 C 
ATOM      9  C   UNL     1      -0.570   3.482  25.251  0.00  0.00    +0.193 C 
ATOM     10  C   UNL     1      -2.768   4.299  25.774  0.00  0.00    +0.179 C 
ATOM     11  C   UNL     1      -4.433   1.231  25.134  0.00  0.00    +0.248 C 
ENDROOT
BRANCH  11  12
ATOM      5  N   UNL     1      -3.169  -2.222  25.867  0.00  0.00    -0.263 NA
ATOM     12  C   UNL     1      -4.120  -0.192  24.961  0.00  0.00    +0.055 A 
ATOM     14  C   UNL     1      -4.454  -0.863  23.790  0.00  0.00    +0.016 A 
ATOM     15  C   UNL     1      -3.484  -0.911  25.961  0.00  0.00    +0.123 A 
ATOM     16  C   UNL     1      -4.145  -2.212  23.655  0.00  0.00    +0.020 A 
ATOM     17  C   UNL     1      -3.508  -2.841  24.714  0.00  0.00    +0.111 A 
ENDBRANCH  11  12
BRANCH   6   2
ATOM      2  O   UNL     1       0.039   1.198  24.791  0.00  0.00    -0.376 OA
ATOM     13  C   UNL     1      -0.406  -0.020  24.215  0.00  0.00    +0.194 C 
ENDBRANCH   6   2
TORSDOF 2
ENDMDL
MODEL 2
REMARK VINA RESULT:      -6.3      1.905      4.837
REMARK  Name = 75536881
REMARK  3 active torsions:
REMARK  status: ('A' for Active; 'I' for Inactive)
REMARK    1  A    between atoms: O_2  and  C_6
REMARK    2  A    between atoms: O_2  and  C_13
REMARK    3  A    between atoms: C_11  and  C_12
REMARK                            x       y       z     vdW  Elec       q    Type
REMARK                         _______ _______ _______ _____ _____    ______ ____
ROOT
ATOM      1  O   UNL     1      -3.061  -2.645  24.636  0.00  0.00    -0.376 OA
ATOM      3  O   UNL     1      -4.849   2.028  24.295  0.00  0.00    -0.270 OA
ATOM      4  N   UNL     1      -3.402   0.348  25.060  0.00  0.00    -0.293 N 
ATOM      6  C   UNL     1      -1.349  -0.834  24.363  0.00  0.00    +0.161 C 
ATOM      7  C   UNL     1      -2.058  -0.075  25.484  0.00  0.00    +0.142 C 
ATOM      8  C   UNL     1      -4.428  -0.697  25.005  0.00  0.00    +0.136 C 
ATOM      9  C   UNL     1      -1.722  -2.318  24.288  0.00  0.00    +0.193 C 
ATOM     10  C   UNL     1      -4.061  -1.823  24.044  0.00  0.00    +0.179 C 
ATOM     11  C   UNL     1      -3.742   1.654  24.682  0.00  0.00    +0.248 C 
ENDROOT
BRANCH  11  12
ATOM      5  N   UNL     1      -0.514   3.454  24.049  0.00  0.00    -0.263 NA
ATOM     12  C   UNL     1      -2.699   2.685  24.740  0.00  0.00    +0.055 A 
ATOM     14  C   UNL     1      -2.872   3.837  25.500  0.00  0.00    +0.016 A 
ATOM     15  C   UNL     1      -1.512   2.543  24.039  0.00  0.00    +0.123 A 
ATOM     16  C   UNL     1      -1.867   4.798  25.535  0.00  0.00    +0.020 A 
ATOM     17  C   UNL     1      -0.717   4.561  24.798  0.00  0.00    +0.111 A 
ENDBRANCH  11  12
BRANCH   6   2
ATOM      2  O   UNL     1       0.061  -0.721  24.552  0.00  0.00    -0.376 OA
ATOM     13  C   UNL     1       0.702  -0.262  23.372  0.00  0.00    +0.194 C 
ENDBRANCH   6   2
TORSDOF 2
ENDMDL
MODEL 3
REMARK VINA RESULT:      -5.6      1.367      3.203
REMARK  Name = 75536881
REMARK  3 active torsions:
REMARK  status: ('A' for Active; 'I' for Inactive)
REMARK    1  A    between atoms: O_2  and  C_6
REMARK    2  A    between atoms: O_2  and  C_13
REMARK    3  A    between atoms: C_11  and  C_12
REMARK                            x       y       z     vdW  Elec       q    Type
REMARK                         _______ _______ _______ _____ _____    ______ ____
ROOT
ATOM      1  O   UNL     1      -1.436   4.464  25.371  0.00  0.00    -0.376 OA
ATOM      3  O   UNL     1       0.114   0.048  23.571  0.00  0.00    -0.270 OA
ATOM      4  N   UNL     1      -1.103   1.465  24.989  0.00  0.00    -0.293 N 
ATOM      6  C   UNL     1      -3.219   2.737  25.021  0.00  0.00    +0.161 C 
ATOM      7  C   UNL     1      -2.323   1.745  25.762  0.00  0.00    +0.142 C 
ATOM      8  C   UNL     1      -0.079   2.513  24.982  0.00  0.00    +0.136 C 
ATOM      9  C   UNL     1      -2.827   4.202  25.230  0.00  0.00    +0.193 C 
ATOM     10  C   UNL     1      -0.598   3.829  24.412  0.00  0.00    +0.179 C 
ATOM     11  C   UNL     1      -0.883   0.295  24.249  0.00  0.00    +0.248 C 
ENDROOT
BRANCH  11  12
ATOM      5  N   UNL     1      -2.534  -3.044  24.677  0.00  0.00    -0.263 NA
ATOM     12  C   UNL     1      -1.921  -0.742  24.266  0.00  0.00    +0.055 A 
ATOM     14  C   UNL     1      -3.233  -0.448  23.910  0.00  0.00    +0.016 A 
ATOM     15  C   UNL     1      -1.626  -2.044  24.639  0.00  0.00    +0.123 A 
ATOM     16  C   UNL     1      -4.196  -1.451  23.937  0.00  0.00    +0.020 A 
ATOM     17  C   UNL     1      -3.799  -2.721  24.325  0.00  0.00    +0.111 A 
ENDBRANCH  11  12
BRANCH   6   2
ATOM      2  O   UNL     1      -4.566   2.552  25.455  0.00  0.00    -0.376 OA
ATOM     13  C   UNL     1      -5.266   3.786  25.497  0.00  0.00    +0.194 C 
ENDBRANCH   6   2
TORSDOF 2
ENDMDL
MODEL 4
REMARK VINA RESULT:      -5.4      1.683      4.409
REMARK  Name = 75536881
REMARK  3 active torsions:
REMARK  status: ('A' for Active; 'I' for Inactive)
REMARK    1  A    between atoms: O_2  and  C_6
REMARK    2  A    between atoms: O_2  and  C_13
REMARK    3  A    between atoms: C_11  and  C_12
REMARK                            x       y       z     vdW  Elec       q    Type
REMARK                         _______ _______ _______ _____ _____    ______ ____
ROOT
ATOM      1  O   UNL     1      -0.654  -2.265  24.910  0.00  0.00    -0.376 OA
ATOM      3  O   UNL     1      -5.333  -0.577  24.270  0.00  0.00    -0.270 OA
ATOM      4  N   UNL     1      -3.173  -0.581  25.183  0.00  0.00    -0.293 N 
ATOM      6  C   UNL     1      -0.898   0.217  24.649  0.00  0.00    +0.161 C 
ATOM      7  C   UNL     1      -2.009   0.160  25.696  0.00  0.00    +0.142 C 
ATOM      8  C   UNL     1      -3.043  -2.039  25.121  0.00  0.00    +0.136 C 
ATOM      9  C   UNL     1      -0.010  -1.030  24.619  0.00  0.00    +0.193 C 
ATOM     10  C   UNL     1      -1.886  -2.482  24.231  0.00  0.00    +0.179 C 
ATOM     11  C   UNL     1      -4.358   0.015  24.731  0.00  0.00    +0.248 C 
ENDROOT
BRANCH  11  12
ATOM      5  N   UNL     1      -5.468   3.427  25.819  0.00  0.00    -0.263 NA
ATOM     12  C   UNL     1      -4.467   1.477  24.799  0.00  0.00    +0.055 A 
ATOM     14  C   UNL     1      -3.718   2.293  23.959  0.00  0.00    +0.016 A 
ATOM     15  C   UNL     1      -5.321   2.089  25.704  0.00  0.00    +0.123 A 
ATOM     16  C   UNL     1      -3.842   3.675  24.047  0.00  0.00    +0.020 A 
ATOM     17  C   UNL     1      -4.723   4.188  24.986  0.00  0.00    +0.111 A 
ENDBRANCH  11  12
BRANCH   6   2
ATOM      2  O   UNL     1      -0.082   1.359  24.907  0.00  0.00    -0.376 OA
ATOM     13  C   UNL     1      -0.612   2.142  25.964  0.00  0.00    +0.194 C 
ENDBRANCH   6   2
TORSDOF 2
ENDMDL
MODEL 5
REMARK VINA RESULT:      -5.3      1.838      5.556
REMARK  Name = 75536881
REMARK  3 active torsions:
REMARK  status: ('A' for Active; 'I' for Inactive)
REMARK    1  A    between atoms: O_2  and  C_6
REMARK    2  A    between atoms: O_2  and  C_13
REMARK    3  A    between atoms: C_11  and  C_12
REMARK                            x       y       z     vdW  Elec       q    Type
REMARK                         _______ _______ _______ _____ _____    ______ ____
ROOT
ATOM      1  O   UNL     1      -2.240  -2.200  24.511  0.00  0.00    -0.376 OA
ATOM      3  O   UNL     1       0.864   1.692  25.110  0.00  0.00    -0.270 OA
ATOM      4  N   UNL     1      -1.096   0.616  24.403  0.00  0.00    -0.293 N 
ATOM      6  C   UNL     1      -3.298  -0.064  25.289  0.00  0.00    +0.161 C 
ATOM      7  C   UNL     1      -2.548   0.649  24.165  0.00  0.00    +0.142 C 
ATOM      8  C   UNL     1      -0.423  -0.661  24.155  0.00  0.00    +0.136 C 
ATOM      9  C   UNL     1      -3.370  -1.585  25.118  0.00  0.00    +0.193 C 
ATOM     10  C   UNL     1      -0.977  -1.788  25.020  0.00  0.00    +0.179 C 
ATOM     11  C   UNL     1      -0.344   1.701  24.874  0.00  0.00    +0.248 C 
ENDROOT
BRANCH  11  12
ATOM      5  N   UNL     1      -2.816   4.170  26.235  0.00  0.00    -0.263 NA
ATOM     12  C   UNL     1      -1.037   2.971  25.120  0.00  0.00    +0.055 A 
ATOM     14  C   UNL     1      -0.614   4.148  24.513  0.00  0.00    +0.016 A 
ATOM     15  C   UNL     1      -2.134   3.035  25.965  0.00  0.00    +0.123 A 
ATOM     16  C   UNL     1      -1.291   5.337  24.765  0.00  0.00    +0.020 A 
ATOM     17  C   UNL     1      -2.375   5.295  25.627  0.00  0.00    +0.111 A 
ENDBRANCH  11  12
BRANCH   6   2
ATOM      2  O   UNL     1      -4.626   0.456  25.358  0.00  0.00    -0.376 OA
ATOM     13  C   UNL     1      -4.769   1.610  24.546  0.00  0.00    +0.194 C 
ENDBRANCH   6   2
TORSDOF 2
ENDMDL
MODEL 6
REMARK VINA RESULT:      -4.9      1.928      4.540
REMARK  Name = 75536881
REMARK  3 active torsions:
REMARK  status: ('A' for Active; 'I' for Inactive)
REMARK    1  A    between atoms: O_2  and  C_6
REMARK    2  A    between atoms: O_2  and  C_13
REMARK    3  A    between atoms: C_11  and  C_12
REMARK                            x       y       z     vdW  Elec       q    Type
REMARK                         _______ _______ _______ _____ _____    ______ ____
ROOT
ATOM      1  O   UNL     1      -0.265  -1.374  23.883  0.00  0.00    -0.376 OA
ATOM      3  O   UNL     1      -1.543   3.423  24.593  0.00  0.00    -0.270 OA
ATOM      4  N   UNL     1      -1.896   1.193  23.960  0.00  0.00    -0.293 N 
ATOM      6  C   UNL     1      -2.492  -0.982  24.967  0.00  0.00    +0.161 C 
ATOM      7  C   UNL     1      -2.789   0.027  23.859  0.00  0.00    +0.142 C 
ATOM      8  C   UNL     1      -0.512   0.994  23.523  0.00  0.00    +0.136 C 
ATOM      9  C   UNL     1      -1.329  -1.926  24.650  0.00  0.00    +0.193 C 
ATOM     10  C   UNL     1       0.197  -0.099  24.316  0.00  0.00    +0.179 C 
ATOM     11  C   UNL     1      -2.276   2.442  24.470  0.00  0.00    +0.248 C 
ENDROOT
BRANCH  11  12
ATOM      5  N   UNL     1      -5.312   3.958  26.064  0.00  0.00    -0.263 NA
ATOM     12  C   UNL     1      -3.666   2.619  24.905  0.00  0.00    +0.055 A 
ATOM     14  C   UNL     1      -4.640   1.676  24.596  0.00  0.00    +0.016 A 
ATOM     15  C   UNL     1      -4.050   3.733  25.635  0.00  0.00    +0.123 A 
ATOM     16  C   UNL     1      -5.950   1.872  25.021  0.00  0.00    +0.020 A 
ATOM     17  C   UNL     1      -6.232   3.019  25.746  0.00  0.00    +0.111 A 
ENDBRANCH  11  12
BRANCH   6   2
ATOM      2  O   UNL     1      -3.665  -1.759  25.208  0.00  0.00    -0.376 OA
ATOM     13  C   UNL     1      -4.308  -2.110  23.993  0.00  0.00    +0.194 C 
ENDBRANCH   6   2
TORSDOF 2
ENDMDL
MODEL 7
REMARK VINA RESULT:      -4.7      1.909      4.074
REMARK  Name = 75536881
REMARK  3 active torsions:
REMARK  status: ('A' for Active; 'I' for Inactive)
REMARK    1  A    between atoms: O_2  and  C_6
REMARK    2  A    between atoms: O_2  and  C_13
REMARK    3  A    between atoms: C_11  and  C_12
REMARK                            x       y       z     vdW  Elec       q    Type
REMARK                         _______ _______ _______ _____ _____    ______ ____
ROOT
ATOM      1  O   UNL     1       1.025   0.117  23.922  0.00  0.00    -0.376 OA
ATOM      3  O   UNL     1      -3.890  -0.854  23.720  0.00  0.00    -0.270 OA
ATOM      4  N   UNL     1      -1.942   0.117  24.592  0.00  0.00    -0.293 N 
ATOM      6  C   UNL     1      -0.495   2.086  24.238  0.00  0.00    +0.161 C 
ATOM      7  C   UNL     1      -1.272   1.250  25.252  0.00  0.00    +0.142 C 
ATOM      8  C   UNL     1      -1.088  -1.005  24.197  0.00  0.00    +0.136 C 
ATOM      9  C   UNL     1       0.897   1.534  23.917  0.00  0.00    +0.193 C 
ATOM     10  C   UNL     1       0.007  -0.587  23.220  0.00  0.00    +0.179 C 
ATOM     11  C   UNL     1      -3.311   0.066  24.297  0.00  0.00    +0.248 C 
ENDROOT
BRANCH  11  12
ATOM      5  N   UNL     1      -4.688   3.548  24.483  0.00  0.00    -0.263 NA
ATOM     12  C   UNL     1      -4.149   1.202  24.699  0.00  0.00    +0.055 A 
ATOM     14  C   UNL     1      -5.168   1.046  25.633  0.00  0.00    +0.016 A 
ATOM     15  C   UNL     1      -3.952   2.463  24.158  0.00  0.00    +0.123 A 
ATOM     16  C   UNL     1      -5.947   2.140  25.993  0.00  0.00    +0.020 A 
ATOM     17  C   UNL     1      -5.669   3.359  25.394  0.00  0.00    +0.111 A 
ENDBRANCH  11  12
BRANCH   6   2
ATOM      2  O   UNL     1      -0.360   3.414  24.744  0.00  0.00    -0.376 OA
ATOM     13  C   UNL     1      -1.254   3.647  25.820  0.00  0.00    +0.194 C 
ENDBRANCH   6   2
TORSDOF 2
ENDMDL
MODEL 8
REMARK VINA RESULT:      -4.6      1.456      3.289
REMARK  Name = 75536881
REMARK  3 active torsions:
REMARK  status: ('A' for Active; 'I' for Inactive)
REMARK    1  A    between atoms: O_2  and  C_6
REMARK    2  A    between atoms: O_2  and  C_13
REMARK    3  A    between atoms: C_11  and  C_12
REMARK                            x       y       z     vdW  Elec       q    Type
REMARK                         _______ _______ _______ _____ _____    ______ ____
ROOT
ATOM      1  O   UNL     1      -2.541   4.606  25.705  0.00  0.00    -0.376 OA
ATOM      3  O   UNL     1      -0.233   0.357  24.380  0.00  0.00    -0.270 OA
ATOM      4  N   UNL     1      -1.897   1.648  25.411  0.00  0.00    -0.293 N 
ATOM      6  C   UNL     1      -4.026   2.771  24.859  0.00  0.00    +0.161 C 
ATOM      7  C   UNL     1      -3.302   1.824  25.814  0.00  0.00    +0.142 C 
ATOM      8  C   UNL     1      -0.991   2.763  25.698  0.00  0.00    +0.136 C 
ATOM      9  C   UNL     1      -3.815   4.254  25.179  0.00  0.00    +0.193 C 
ATOM     10  C   UNL     1      -1.426   4.056  25.014  0.00  0.00    +0.179 C 
ATOM     11  C   UNL     1      -1.395   0.517  24.754  0.00  0.00    +0.248 C 
ENDROOT
BRANCH  11  12
ATOM      5  N   UNL     1      -4.298  -1.387  23.338  0.00  0.00    -0.263 NA
ATOM     12  C   UNL     1      -2.319  -0.589  24.473  0.00  0.00    +0.055 A 
ATOM     14  C   UNL     1      -2.125  -1.845  25.035  0.00  0.00    +0.016 A 
ATOM     15  C   UNL     1      -3.412  -0.412  23.638  0.00  0.00    +0.123 A 
ATOM     16  C   UNL     1      -3.016  -2.874  24.749  0.00  0.00    +0.020 A 
ATOM     17  C   UNL     1      -4.077  -2.596  23.902  0.00  0.00    +0.111 A 
ENDBRANCH  11  12
BRANCH   6   2
ATOM      2  O   UNL     1      -5.423   2.484  24.898  0.00  0.00    -0.376 OA
ATOM     13  C   UNL     1      -5.925   2.549  26.223  0.00  0.00    +0.194 C 
ENDBRANCH   6   2
TORSDOF 2
ENDMDL
MODEL 9
REMARK VINA RESULT:      -4.0      1.814      3.924
REMARK  Name = 75536881
REMARK  3 active torsions:
REMARK  status: ('A' for Active; 'I' for Inactive)
REMARK    1  A    between atoms: O_2  and  C_6
REMARK    2  A    between atoms: O_2  and  C_13
REMARK    3  A    between atoms: C_11  and  C_12
REMARK                            x       y       z     vdW  Elec       q    Type
REMARK                         _______ _______ _______ _____ _____    ______ ____
ROOT
ATOM      1  O   UNL     1      -5.581   3.396  25.524  0.00  0.00    -0.376 OA
ATOM      3  O   UNL     1      -0.647   3.479  24.637  0.00  0.00    -0.270 OA
ATOM      4  N   UNL     1      -2.652   2.580  25.456  0.00  0.00    -0.293 N 
ATOM      6  C   UNL     1      -4.585   1.258  24.674  0.00  0.00    +0.161 C 
ATOM      7  C   UNL     1      -3.498   1.409  25.737  0.00  0.00    +0.142 C 
ATOM      8  C   UNL     1      -3.236   3.892  25.747  0.00  0.00    +0.136 C 
ATOM      9  C   UNL     1      -5.820   2.129  24.922  0.00  0.00    +0.193 C 
ATOM     10  C   UNL     1      -4.515   4.148  24.956  0.00  0.00    +0.179 C 
ATOM     11  C   UNL     1      -1.363   2.516  24.909  0.00  0.00    +0.248 C 
ENDROOT
BRANCH  11  12
ATOM      5  N   UNL     1       0.547  -0.210  23.183  0.00  0.00    -0.263 NA
ATOM     12  C   UNL     1      -0.797   1.193  24.622  0.00  0.00    +0.055 A 
ATOM     14  C   UNL     1      -1.038   0.112  25.463  0.00  0.00    +0.016 A 
ATOM     15  C   UNL     1      -0.005   0.981  23.504  0.00  0.00    +0.123 A 
ATOM     16  C   UNL     1      -0.487  -1.130  25.166  0.00  0.00    +0.020 A 
ATOM     17  C   UNL     1       0.291  -1.238  24.024  0.00  0.00    +0.111 A 
ENDBRANCH  11  12
BRANCH   6   2
ATOM      2  O   UNL     1      -4.988  -0.110  24.620  0.00  0.00    -0.376 OA
ATOM     13  C   UNL     1      -4.033  -0.901  23.930  0.00  0.00    +0.194 C 
ENDBRANCH   6   2
TORSDOF 2
ENDMDL
