MODEL 1
REMARK VINA RESULT:      -4.5      0.000      0.000
REMARK  Name = 75536105
REMARK  9 active torsions:
REMARK  status: ('A' for Active; 'I' for Inactive)
REMARK    1  A    between atoms: O_4  and  C_10
REMARK    2  A    between atoms: O_5  and  C_12
REMARK    3  A    between atoms: O_6  and  C_20
REMARK    4  A    between atoms: O_6  and  C_27
REMARK    5  A    between atoms: N_7  and  C_8
REMARK    6  A    between atoms: N_7  and  C_14
REMARK    7  A    between atoms: C_9  and  C_13
REMARK    8  A    between atoms: C_14  and  C_17
REMARK    9  A    between atoms: C_23  and  C_26
REMARK                            x       y       z     vdW  Elec       q    Type
REMARK                         _______ _______ _______ _____ _____    ______ ____
ROOT
ATOM      8  C   UNL     1      -4.586   2.692  24.764  0.00  0.00    +0.092 C 
ATOM      9  C   UNL     1      -5.136   1.304  24.366  0.00  0.00    +0.041 C 
ATOM     10  C   UNL     1      -5.844   3.463  25.164  0.00  0.00    +0.160 C 
ATOM     11  C   UNL     1      -6.464   1.142  25.153  0.00  0.00    +0.043 C 
ATOM     12  C   UNL     1      -6.630   2.429  25.965  0.00  0.00    +0.145 C 
ENDROOT
BRANCH   9  13
ATOM     13  C   UNL     1      -4.143   0.183  24.590  0.00  0.00    -0.042 A 
ATOM     15  C   UNL     1      -3.118   0.335  25.523  0.00  0.00    +0.007 A 
ATOM     16  C   UNL     1      -4.252  -1.002  23.861  0.00  0.00    +0.007 A 
ATOM     18  C   UNL     1      -2.203  -0.697  25.729  0.00  0.00    +0.046 A 
ATOM     19  C   UNL     1      -3.337  -2.034  24.066  0.00  0.00    +0.046 A 
ATOM     20  C   UNL     1      -2.312  -1.881  25.001  0.00  0.00    +0.120 A 
BRANCH  20   6
ATOM      6  O   UNL     1      -1.418  -2.889  25.201  0.00  0.00    -0.495 OA
ATOM     27  C   UNL     1      -0.095  -2.516  25.578  0.00  0.00    +0.277 C 
ENDBRANCH  20   6
ENDBRANCH   9  13
BRANCH  10   4
ATOM      4  O   UNL     1      -5.533   4.608  25.934  0.00  0.00    -0.388 OA
ATOM     29  H   UNL     1      -5.966   4.503  26.799  0.00  0.00    +0.210 HD
ENDBRANCH  10   4
BRANCH  12   5
ATOM      5  O   UNL     1      -6.046   2.258  27.253  0.00  0.00    -0.389 OA
ATOM     30  H   UNL     1      -6.719   2.498  27.912  0.00  0.00    +0.210 HD
ENDBRANCH  12   5
BRANCH   8   7
ATOM      7  N   UNL     1      -3.882   3.340  23.664  0.00  0.00    -0.306 NA
ATOM     28  H   UNL     1      -3.510   2.624  23.040  0.00  0.00    +0.123 HD
BRANCH   7  14
ATOM     14  C   UNL     1      -2.777   4.149  24.159  0.00  0.00    +0.116 C 
BRANCH  14  17
ATOM     17  C   UNL     1      -1.630   3.299  24.636  0.00  0.00    -0.033 A 
ATOM     21  C   UNL     1      -1.067   2.345  23.788  0.00  0.00    +0.017 A 
ATOM     22  C   UNL     1      -1.130   3.465  25.929  0.00  0.00    +0.005 A 
ATOM     23  C   UNL     1      -0.006   1.558  24.231  0.00  0.00    +0.055 A 
ATOM     24  C   UNL     1      -0.067   2.678  26.371  0.00  0.00    +0.001 A 
ATOM     25  C   UNL     1       0.496   1.724  25.523  0.00  0.00    +0.012 A 
BRANCH  23  26
ATOM      1  F   UNL     1       0.654  -0.713  23.868  0.00  0.00    -0.166 F 
ATOM      2  F   UNL     1       1.881   0.825  22.956  0.00  0.00    -0.166 F 
ATOM      3  F   UNL     1      -0.095   0.399  22.157  0.00  0.00    -0.166 F 
ATOM     26  C   UNL     1       0.597   0.539  23.324  0.00  0.00    +0.417 C 
ENDBRANCH  23  26
ENDBRANCH  14  17
ENDBRANCH   7  14
ENDBRANCH   8   7
TORSDOF 8
ENDMDL
MODEL 2
REMARK VINA RESULT:      -3.9      1.889      4.260
REMARK  Name = 75536105
REMARK  9 active torsions:
REMARK  status: ('A' for Active; 'I' for Inactive)
REMARK    1  A    between atoms: O_4  and  C_10
REMARK    2  A    between atoms: O_5  and  C_12
REMARK    3  A    between atoms: O_6  and  C_20
REMARK    4  A    between atoms: O_6  and  C_27
REMARK    5  A    between atoms: N_7  and  C_8
REMARK    6  A    between atoms: N_7  and  C_14
REMARK    7  A    between atoms: C_9  and  C_13
REMARK    8  A    between atoms: C_14  and  C_17
REMARK    9  A    between atoms: C_23  and  C_26
REMARK                            x       y       z     vdW  Elec       q    Type
REMARK                         _______ _______ _______ _____ _____    ______ ____
ROOT
ATOM      8  C   UNL     1      -4.385   2.287  25.276  0.00  0.00    +0.092 C 
ATOM      9  C   UNL     1      -3.117   2.804  25.993  0.00  0.00    +0.041 C 
ATOM     10  C   UNL     1      -5.439   3.332  25.637  0.00  0.00    +0.160 C 
ATOM     11  C   UNL     1      -3.314   4.338  26.130  0.00  0.00    +0.043 C 
ATOM     12  C   UNL     1      -4.673   4.644  25.497  0.00  0.00    +0.145 C 
ENDROOT
BRANCH   9  13
ATOM     13  C   UNL     1      -1.833   2.404  25.296  0.00  0.00    -0.042 A 
ATOM     15  C   UNL     1      -0.626   2.426  25.995  0.00  0.00    +0.007 A 
ATOM     16  C   UNL     1      -1.857   2.016  23.957  0.00  0.00    +0.007 A 
ATOM     18  C   UNL     1       0.557   2.059  25.354  0.00  0.00    +0.046 A 
ATOM     19  C   UNL     1      -0.674   1.649  23.316  0.00  0.00    +0.046 A 
ATOM     20  C   UNL     1       0.533   1.670  24.015  0.00  0.00    +0.120 A 
BRANCH  20   6
ATOM      6  O   UNL     1       1.688   1.313  23.388  0.00  0.00    -0.495 OA
ATOM     27  C   UNL     1       1.643   0.158  22.553  0.00  0.00    +0.277 C 
ENDBRANCH  20   6
ENDBRANCH   9  13
BRANCH  10   4
ATOM      4  O   UNL     1      -6.554   3.272  24.769  0.00  0.00    -0.388 OA
ATOM     29  H   UNL     1      -6.828   2.341  24.708  0.00  0.00    +0.210 HD
ENDBRANCH  10   4
BRANCH  12   5
ATOM      5  O   UNL     1      -4.495   4.964  24.120  0.00  0.00    -0.389 OA
ATOM     30  H   UNL     1      -5.365   5.212  23.764  0.00  0.00    +0.210 HD
ENDBRANCH  12   5
BRANCH   8   7
ATOM      7  N   UNL     1      -4.767   0.955  25.728  0.00  0.00    -0.306 NA
ATOM     28  H   UNL     1      -3.995   0.549  26.257  0.00  0.00    +0.123 HD
BRANCH   7  14
ATOM     14  C   UNL     1      -5.064   0.087  24.596  0.00  0.00    +0.116 C 
BRANCH  14  17
ATOM     17  C   UNL     1      -4.070  -1.038  24.477  0.00  0.00    -0.033 A 
ATOM     21  C   UNL     1      -2.784  -0.892  24.997  0.00  0.00    +0.017 A 
ATOM     22  C   UNL     1      -4.436  -2.227  23.844  0.00  0.00    +0.005 A 
ATOM     23  C   UNL     1      -1.865  -1.934  24.885  0.00  0.00    +0.055 A 
ATOM     24  C   UNL     1      -3.517  -3.269  23.733  0.00  0.00    +0.001 A 
ATOM     25  C   UNL     1      -2.231  -3.123  24.254  0.00  0.00    +0.012 A 
BRANCH  23  26
ATOM      1  F   UNL     1       0.401  -1.239  24.559  0.00  0.00    -0.166 F 
ATOM      2  F   UNL     1       0.075  -2.958  25.841  0.00  0.00    -0.166 F 
ATOM      3  F   UNL     1      -0.455  -0.968  26.540  0.00  0.00    -0.166 F 
ATOM     26  C   UNL     1      -0.490  -1.779  25.442  0.00  0.00    +0.417 C 
ENDBRANCH  23  26
ENDBRANCH  14  17
ENDBRANCH   7  14
ENDBRANCH   8   7
TORSDOF 8
ENDMDL
MODEL 3
REMARK VINA RESULT:      -3.9      1.478      2.323
REMARK  Name = 75536105
REMARK  9 active torsions:
REMARK  status: ('A' for Active; 'I' for Inactive)
REMARK    1  A    between atoms: O_4  and  C_10
REMARK    2  A    between atoms: O_5  and  C_12
REMARK    3  A    between atoms: O_6  and  C_20
REMARK    4  A    between atoms: O_6  and  C_27
REMARK    5  A    between atoms: N_7  and  C_8
REMARK    6  A    between atoms: N_7  and  C_14
REMARK    7  A    between atoms: C_9  and  C_13
REMARK    8  A    between atoms: C_14  and  C_17
REMARK    9  A    between atoms: C_23  and  C_26
REMARK                            x       y       z     vdW  Elec       q    Type
REMARK                         _______ _______ _______ _____ _____    ______ ____
ROOT
ATOM      8  C   UNL     1      -3.242   3.061  25.214  0.00  0.00    +0.092 C 
ATOM      9  C   UNL     1      -4.137   2.323  24.192  0.00  0.00    +0.041 C 
ATOM     10  C   UNL     1      -4.032   4.335  25.511  0.00  0.00    +0.160 C 
ATOM     11  C   UNL     1      -5.580   2.826  24.465  0.00  0.00    +0.043 C 
ATOM     12  C   UNL     1      -5.465   3.824  25.619  0.00  0.00    +0.145 C 
ENDROOT
BRANCH   9  13
ATOM     13  C   UNL     1      -3.985   0.818  24.243  0.00  0.00    -0.042 A 
ATOM     15  C   UNL     1      -3.597   0.117  23.101  0.00  0.00    +0.007 A 
ATOM     16  C   UNL     1      -4.235   0.132  25.432  0.00  0.00    +0.007 A 
ATOM     18  C   UNL     1      -3.458  -1.270  23.147  0.00  0.00    +0.046 A 
ATOM     19  C   UNL     1      -4.096  -1.256  25.478  0.00  0.00    +0.046 A 
ATOM     20  C   UNL     1      -3.707  -1.956  24.336  0.00  0.00    +0.120 A 
BRANCH  20   6
ATOM      6  O   UNL     1      -3.573  -3.310  24.381  0.00  0.00    -0.495 OA
ATOM     27  C   UNL     1      -2.435  -3.871  23.730  0.00  0.00    +0.277 C 
ENDBRANCH  20   6
ENDBRANCH   9  13
BRANCH  10   4
ATOM      4  O   UNL     1      -3.597   4.953  26.707  0.00  0.00    -0.388 OA
ATOM     29  H   UNL     1      -2.632   4.841  26.759  0.00  0.00    +0.210 HD
ENDBRANCH  10   4
BRANCH  12   5
ATOM      5  O   UNL     1      -5.653   3.144  26.857  0.00  0.00    -0.389 OA
ATOM     30  H   UNL     1      -5.860   3.815  27.529  0.00  0.00    +0.210 HD
ENDBRANCH  12   5
BRANCH   8   7
ATOM      7  N   UNL     1      -1.921   3.357  24.675  0.00  0.00    -0.306 NA
ATOM     28  H   UNL     1      -1.836   2.931  23.751  0.00  0.00    +0.123 HD
BRANCH   7  14
ATOM     14  C   UNL     1      -0.876   2.819  25.535  0.00  0.00    +0.116 C 
BRANCH  14  17
ATOM     17  C   UNL     1      -0.395   1.474  25.059  0.00  0.00    -0.033 A 
ATOM     21  C   UNL     1       0.619   1.392  24.105  0.00  0.00    +0.017 A 
ATOM     22  C   UNL     1      -0.966   0.309  25.573  0.00  0.00    +0.005 A 
ATOM     23  C   UNL     1       1.063   0.146  23.665  0.00  0.00    +0.055 A 
ATOM     24  C   UNL     1      -0.520  -0.937  25.134  0.00  0.00    +0.001 A 
ATOM     25  C   UNL     1       0.494  -1.019  24.179  0.00  0.00    +0.012 A 
BRANCH  23  26
ATOM      1  F   UNL     1       1.693  -0.188  21.381  0.00  0.00    -0.166 F 
ATOM      2  F   UNL     1       3.055  -0.933  22.896  0.00  0.00    -0.166 F 
ATOM      3  F   UNL     1       2.878   1.207  22.554  0.00  0.00    -0.166 F 
ATOM     26  C   UNL     1       2.148   0.058  22.645  0.00  0.00    +0.417 C 
ENDBRANCH  23  26
ENDBRANCH  14  17
ENDBRANCH   7  14
ENDBRANCH   8   7
TORSDOF 8
ENDMDL
MODEL 4
REMARK VINA RESULT:      -3.4      2.081      4.545
REMARK  Name = 75536105
REMARK  9 active torsions:
REMARK  status: ('A' for Active; 'I' for Inactive)
REMARK    1  A    between atoms: O_4  and  C_10
REMARK    2  A    between atoms: O_5  and  C_12
REMARK    3  A    between atoms: O_6  and  C_20
REMARK    4  A    between atoms: O_6  and  C_27
REMARK    5  A    between atoms: N_7  and  C_8
REMARK    6  A    between atoms: N_7  and  C_14
REMARK    7  A    between atoms: C_9  and  C_13
REMARK    8  A    between atoms: C_14  and  C_17
REMARK    9  A    between atoms: C_23  and  C_26
REMARK                            x       y       z     vdW  Elec       q    Type
REMARK                         _______ _______ _______ _____ _____    ______ ____
ROOT
ATOM      8  C   UNL     1      -2.958   2.887  24.109  0.00  0.00    +0.092 C 
ATOM      9  C   UNL     1      -1.919   2.199  25.023  0.00  0.00    +0.041 C 
ATOM     10  C   UNL     1      -3.580   3.942  25.023  0.00  0.00    +0.160 C 
ATOM     11  C   UNL     1      -1.542   3.258  26.094  0.00  0.00    +0.043 C 
ATOM     12  C   UNL     1      -2.368   4.502  25.762  0.00  0.00    +0.145 C 
ENDROOT
BRANCH   9  13
ATOM     13  C   UNL     1      -0.735   1.637  24.263  0.00  0.00    -0.042 A 
ATOM     15  C   UNL     1      -0.945   0.795  23.171  0.00  0.00    +0.007 A 
ATOM     16  C   UNL     1       0.563   1.960  24.657  0.00  0.00    +0.007 A 
ATOM     18  C   UNL     1       0.145   0.277  22.472  0.00  0.00    +0.046 A 
ATOM     19  C   UNL     1       1.653   1.442  23.958  0.00  0.00    +0.046 A 
ATOM     20  C   UNL     1       1.444   0.600  22.864  0.00  0.00    +0.120 A 
BRANCH  20   6
ATOM      6  O   UNL     1       2.508   0.093  22.183  0.00  0.00    -0.495 OA
ATOM     27  C   UNL     1       3.802   0.559  22.561  0.00  0.00    +0.277 C 
ENDBRANCH  20   6
ENDBRANCH   9  13
BRANCH  10   4
ATOM      4  O   UNL     1      -4.259   4.939  24.285  0.00  0.00    -0.388 OA
ATOM     29  H   UNL     1      -5.207   4.721  24.302  0.00  0.00    +0.210 HD
ENDBRANCH  10   4
BRANCH  12   5
ATOM      5  O   UNL     1      -1.620   5.356  24.903  0.00  0.00    -0.389 OA
ATOM     30  H   UNL     1      -0.680   5.247  25.130  0.00  0.00    +0.210 HD
ENDBRANCH  12   5
BRANCH   8   7
ATOM      7  N   UNL     1      -3.955   1.950  23.607  0.00  0.00    -0.306 NA
ATOM     28  H   UNL     1      -4.739   2.475  23.219  0.00  0.00    +0.123 HD
BRANCH   7  14
ATOM     14  C   UNL     1      -4.450   1.095  24.678  0.00  0.00    +0.116 C 
BRANCH  14  17
ATOM     17  C   UNL     1      -3.868  -0.291  24.602  0.00  0.00    -0.033 A 
ATOM     21  C   UNL     1      -2.585  -0.538  25.091  0.00  0.00    +0.017 A 
ATOM     22  C   UNL     1      -4.613  -1.330  24.041  0.00  0.00    +0.005 A 
ATOM     23  C   UNL     1      -2.048  -1.822  25.019  0.00  0.00    +0.055 A 
ATOM     24  C   UNL     1      -4.075  -2.614  23.971  0.00  0.00    +0.001 A 
ATOM     25  C   UNL     1      -2.792  -2.861  24.460  0.00  0.00    +0.012 A 
BRANCH  23  26
ATOM      1  F   UNL     1      -0.417  -3.412  25.752  0.00  0.00    -0.166 F 
ATOM      2  F   UNL     1      -0.421  -1.482  26.741  0.00  0.00    -0.166 F 
ATOM      3  F   UNL     1       0.302  -1.652  24.698  0.00  0.00    -0.166 F 
ATOM     26  C   UNL     1      -0.676  -2.087  25.543  0.00  0.00    +0.417 C 
ENDBRANCH  23  26
ENDBRANCH  14  17
ENDBRANCH   7  14
ENDBRANCH   8   7
TORSDOF 8
ENDMDL
MODEL 5
REMARK VINA RESULT:      -3.4      3.143      6.817
REMARK  Name = 75536105
REMARK  9 active torsions:
REMARK  status: ('A' for Active; 'I' for Inactive)
REMARK    1  A    between atoms: O_4  and  C_10
REMARK    2  A    between atoms: O_5  and  C_12
REMARK    3  A    between atoms: O_6  and  C_20
REMARK    4  A    between atoms: O_6  and  C_27
REMARK    5  A    between atoms: N_7  and  C_8
REMARK    6  A    between atoms: N_7  and  C_14
REMARK    7  A    between atoms: C_9  and  C_13
REMARK    8  A    between atoms: C_14  and  C_17
REMARK    9  A    between atoms: C_23  and  C_26
REMARK                            x       y       z     vdW  Elec       q    Type
REMARK                         _______ _______ _______ _____ _____    ______ ____
ROOT
ATOM      8  C   UNL     1       1.206  -0.649  24.154  0.00  0.00    +0.092 C 
ATOM      9  C   UNL     1       0.477   0.303  23.179  0.00  0.00    +0.041 C 
ATOM     10  C   UNL     1       2.356  -1.197  23.311  0.00  0.00    +0.160 C 
ATOM     11  C   UNL     1       1.552   0.747  22.150  0.00  0.00    +0.043 C 
ATOM     12  C   UNL     1       2.845   0.042  22.565  0.00  0.00    +0.145 C 
ENDROOT
BRANCH   9  13
ATOM     13  C   UNL     1      -0.224   1.450  23.876  0.00  0.00    -0.042 A 
ATOM     15  C   UNL     1       0.267   1.932  25.089  0.00  0.00    +0.007 A 
ATOM     16  C   UNL     1      -1.362   2.022  23.306  0.00  0.00    +0.007 A 
ATOM     18  C   UNL     1      -0.379   2.988  25.732  0.00  0.00    +0.046 A 
ATOM     19  C   UNL     1      -2.008   3.078  23.949  0.00  0.00    +0.046 A 
ATOM     20  C   UNL     1      -1.516   3.561  25.162  0.00  0.00    +0.120 A 
BRANCH  20   6
ATOM      6  O   UNL     1      -2.147   4.591  25.790  0.00  0.00    -0.495 OA
ATOM     27  C   UNL     1      -3.472   4.350  26.259  0.00  0.00    +0.277 C 
ENDBRANCH  20   6
ENDBRANCH   9  13
BRANCH  10   4
ATOM      4  O   UNL     1       3.370  -1.767  24.116  0.00  0.00    -0.388 OA
ATOM     29  H   UNL     1       3.371  -2.725  23.949  0.00  0.00    +0.210 HD
ENDBRANCH  10   4
BRANCH  12   5
ATOM      5  O   UNL     1       3.585   0.884  23.444  0.00  0.00    -0.389 OA
ATOM     30  H   UNL     1       2.948   1.321  24.034  0.00  0.00    +0.210 HD
ENDBRANCH  12   5
BRANCH   8   7
ATOM      7  N   UNL     1       0.335  -1.713  24.638  0.00  0.00    -0.306 NA
ATOM     28  H   UNL     1      -0.176  -2.108  23.848  0.00  0.00    +0.123 HD
BRANCH   7  14
ATOM     14  C   UNL     1      -0.624  -1.200  25.606  0.00  0.00    +0.116 C 
BRANCH  14  17
ATOM     17  C   UNL     1      -2.032  -1.243  25.076  0.00  0.00    -0.033 A 
ATOM     21  C   UNL     1      -2.862  -0.129  25.208  0.00  0.00    +0.017 A 
ATOM     22  C   UNL     1      -2.509  -2.398  24.454  0.00  0.00    +0.005 A 
ATOM     23  C   UNL     1      -4.166  -0.170  24.718  0.00  0.00    +0.055 A 
ATOM     24  C   UNL     1      -3.813  -2.437  23.963  0.00  0.00    +0.001 A 
ATOM     25  C   UNL     1      -4.643  -1.324  24.095  0.00  0.00    +0.012 A 
BRANCH  23  26
ATOM      1  F   UNL     1      -5.072   1.545  26.119  0.00  0.00    -0.166 F 
ATOM      2  F   UNL     1      -6.363   0.767  24.560  0.00  0.00    -0.166 F 
ATOM      3  F   UNL     1      -4.686   2.050  24.040  0.00  0.00    -0.166 F 
ATOM     26  C   UNL     1      -5.054   1.021  24.858  0.00  0.00    +0.417 C 
ENDBRANCH  23  26
ENDBRANCH  14  17
ENDBRANCH   7  14
ENDBRANCH   8   7
TORSDOF 8
ENDMDL
MODEL 6
REMARK VINA RESULT:      -3.3      1.545      2.083
REMARK  Name = 75536105
REMARK  9 active torsions:
REMARK  status: ('A' for Active; 'I' for Inactive)
REMARK    1  A    between atoms: O_4  and  C_10
REMARK    2  A    between atoms: O_5  and  C_12
REMARK    3  A    between atoms: O_6  and  C_20
REMARK    4  A    between atoms: O_6  and  C_27
REMARK    5  A    between atoms: N_7  and  C_8
REMARK    6  A    between atoms: N_7  and  C_14
REMARK    7  A    between atoms: C_9  and  C_13
REMARK    8  A    between atoms: C_14  and  C_17
REMARK    9  A    between atoms: C_23  and  C_26
REMARK                            x       y       z     vdW  Elec       q    Type
REMARK                         _______ _______ _______ _____ _____    ______ ____
ROOT
ATOM      8  C   UNL     1      -3.881   2.972  24.053  0.00  0.00    +0.092 C 
ATOM      9  C   UNL     1      -4.986   2.037  24.595  0.00  0.00    +0.041 C 
ATOM     10  C   UNL     1      -4.246   4.328  24.656  0.00  0.00    +0.160 C 
ATOM     11  C   UNL     1      -5.472   2.691  25.916  0.00  0.00    +0.043 C 
ATOM     12  C   UNL     1      -4.640   3.964  26.084  0.00  0.00    +0.145 C 
ENDROOT
BRANCH   9  13
ATOM     13  C   UNL     1      -4.532   0.600  24.746  0.00  0.00    -0.042 A 
ATOM     15  C   UNL     1      -3.923   0.183  25.929  0.00  0.00    +0.007 A 
ATOM     16  C   UNL     1      -4.720  -0.304  23.701  0.00  0.00    +0.007 A 
ATOM     18  C   UNL     1      -3.504  -1.140  26.069  0.00  0.00    +0.046 A 
ATOM     19  C   UNL     1      -4.300  -1.627  23.840  0.00  0.00    +0.046 A 
ATOM     20  C   UNL     1      -3.692  -2.045  25.024  0.00  0.00    +0.120 A 
BRANCH  20   6
ATOM      6  O   UNL     1      -3.282  -3.336  25.159  0.00  0.00    -0.495 OA
ATOM     27  C   UNL     1      -3.079  -4.081  23.960  0.00  0.00    +0.277 C 
ENDBRANCH  20   6
ENDBRANCH   9  13
BRANCH  10   4
ATOM      4  O   UNL     1      -3.156   5.228  24.618  0.00  0.00    -0.388 OA
ATOM     29  H   UNL     1      -3.105   5.661  25.487  0.00  0.00    +0.210 HD
ENDBRANCH  10   4
BRANCH  12   5
ATOM      5  O   UNL     1      -3.478   3.676  26.856  0.00  0.00    -0.389 OA
ATOM     30  H   UNL     1      -3.514   4.230  27.654  0.00  0.00    +0.210 HD
ENDBRANCH  12   5
BRANCH   8   7
ATOM      7  N   UNL     1      -3.863   3.015  22.596  0.00  0.00    -0.306 NA
ATOM     28  H   UNL     1      -4.602   2.409  22.237  0.00  0.00    +0.123 HD
BRANCH   7  14
ATOM     14  C   UNL     1      -2.585   2.549  22.078  0.00  0.00    +0.116 C 
BRANCH  14  17
ATOM     17  C   UNL     1      -1.654   2.122  23.182  0.00  0.00    -0.033 A 
ATOM     21  C   UNL     1      -1.345   0.772  23.352  0.00  0.00    +0.017 A 
ATOM     22  C   UNL     1      -1.101   3.078  24.036  0.00  0.00    +0.005 A 
ATOM     23  C   UNL     1      -0.484   0.379  24.375  0.00  0.00    +0.055 A 
ATOM     24  C   UNL     1      -0.239   2.683  25.058  0.00  0.00    +0.001 A 
ATOM     25  C   UNL     1       0.070   1.333  25.229  0.00  0.00    +0.012 A 
BRANCH  23  26
ATOM      1  F   UNL     1       1.150  -1.367  24.276  0.00  0.00    -0.166 F 
ATOM      2  F   UNL     1      -0.890  -1.900  23.766  0.00  0.00    -0.166 F 
ATOM      3  F   UNL     1      -0.360  -1.495  25.836  0.00  0.00    -0.166 F 
ATOM     26  C   UNL     1      -0.152  -1.064  24.557  0.00  0.00    +0.417 C 
ENDBRANCH  23  26
ENDBRANCH  14  17
ENDBRANCH   7  14
ENDBRANCH   8   7
TORSDOF 8
ENDMDL
MODEL 7
REMARK VINA RESULT:      -3.2      2.639      4.804
REMARK  Name = 75536105
REMARK  9 active torsions:
REMARK  status: ('A' for Active; 'I' for Inactive)
REMARK    1  A    between atoms: O_4  and  C_10
REMARK    2  A    between atoms: O_5  and  C_12
REMARK    3  A    between atoms: O_6  and  C_20
REMARK    4  A    between atoms: O_6  and  C_27
REMARK    5  A    between atoms: N_7  and  C_8
REMARK    6  A    between atoms: N_7  and  C_14
REMARK    7  A    between atoms: C_9  and  C_13
REMARK    8  A    between atoms: C_14  and  C_17
REMARK    9  A    between atoms: C_23  and  C_26
REMARK                            x       y       z     vdW  Elec       q    Type
REMARK                         _______ _______ _______ _____ _____    ______ ____
ROOT
ATOM      8  C   UNL     1      -2.712   2.965  23.977  0.00  0.00    +0.092 C 
ATOM      9  C   UNL     1      -1.838   2.163  24.968  0.00  0.00    +0.041 C 
ATOM     10  C   UNL     1      -3.342   4.040  24.861  0.00  0.00    +0.160 C 
ATOM     11  C   UNL     1      -1.495   3.153  26.114  0.00  0.00    +0.043 C 
ATOM     12  C   UNL     1      -2.177   4.472  25.746  0.00  0.00    +0.145 C 
ENDROOT
BRANCH   9  13
ATOM     13  C   UNL     1      -0.628   1.526  24.317  0.00  0.00    -0.042 A 
ATOM     15  C   UNL     1      -0.671   0.187  23.927  0.00  0.00    +0.007 A 
ATOM     16  C   UNL     1       0.528   2.278  24.108  0.00  0.00    +0.007 A 
ATOM     18  C   UNL     1       0.444  -0.400  23.328  0.00  0.00    +0.046 A 
ATOM     19  C   UNL     1       1.642   1.690  23.509  0.00  0.00    +0.046 A 
ATOM     20  C   UNL     1       1.600   0.351  23.119  0.00  0.00    +0.120 A 
BRANCH  20   6
ATOM      6  O   UNL     1       2.688  -0.222  22.535  0.00  0.00    -0.495 OA
ATOM     27  C   UNL     1       3.936   0.453  22.685  0.00  0.00    +0.277 C 
ENDBRANCH  20   6
ENDBRANCH   9  13
BRANCH  10   4
ATOM      4  O   UNL     1      -3.854   5.114  24.095  0.00  0.00    -0.388 OA
ATOM     29  H   UNL     1      -3.592   5.939  24.538  0.00  0.00    +0.210 HD
ENDBRANCH  10   4
BRANCH  12   5
ATOM      5  O   UNL     1      -1.272   5.285  25.005  0.00  0.00    -0.389 OA
ATOM     30  H   UNL     1      -1.544   6.211  25.130  0.00  0.00    +0.210 HD
ENDBRANCH  12   5
BRANCH   8   7
ATOM      7  N   UNL     1      -3.721   2.131  23.336  0.00  0.00    -0.306 NA
ATOM     28  H   UNL     1      -4.253   2.701  22.676  0.00  0.00    +0.123 HD
BRANCH   7  14
ATOM     14  C   UNL     1      -4.640   1.578  24.321  0.00  0.00    +0.116 C 
BRANCH  14  17
ATOM     17  C   UNL     1      -4.171   0.244  24.838  0.00  0.00    -0.033 A 
ATOM     21  C   UNL     1      -4.183  -0.873  24.003  0.00  0.00    +0.017 A 
ATOM     22  C   UNL     1      -3.724   0.126  26.155  0.00  0.00    +0.005 A 
ATOM     23  C   UNL     1      -3.748  -2.107  24.483  0.00  0.00    +0.055 A 
ATOM     24  C   UNL     1      -3.289  -1.109  26.635  0.00  0.00    +0.001 A 
ATOM     25  C   UNL     1      -3.301  -2.226  25.799  0.00  0.00    +0.012 A 
BRANCH  23  26
ATOM      1  F   UNL     1      -4.468  -3.116  22.436  0.00  0.00    -0.166 F 
ATOM      2  F   UNL     1      -4.307  -4.412  24.167  0.00  0.00    -0.166 F 
ATOM      3  F   UNL     1      -2.508  -3.674  23.194  0.00  0.00    -0.166 F 
ATOM     26  C   UNL     1      -3.760  -3.301  23.589  0.00  0.00    +0.417 C 
ENDBRANCH  23  26
ENDBRANCH  14  17
ENDBRANCH   7  14
ENDBRANCH   8   7
TORSDOF 8
ENDMDL
MODEL 8
REMARK VINA RESULT:      -3.2      3.539      5.556
REMARK  Name = 75536105
REMARK  9 active torsions:
REMARK  status: ('A' for Active; 'I' for Inactive)
REMARK    1  A    between atoms: O_4  and  C_10
REMARK    2  A    between atoms: O_5  and  C_12
REMARK    3  A    between atoms: O_6  and  C_20
REMARK    4  A    between atoms: O_6  and  C_27
REMARK    5  A    between atoms: N_7  and  C_8
REMARK    6  A    between atoms: N_7  and  C_14
REMARK    7  A    between atoms: C_9  and  C_13
REMARK    8  A    between atoms: C_14  and  C_17
REMARK    9  A    between atoms: C_23  and  C_26
REMARK                            x       y       z     vdW  Elec       q    Type
REMARK                         _______ _______ _______ _____ _____    ______ ____
ROOT
ATOM      8  C   UNL     1      -2.305  -0.017  23.708  0.00  0.00    +0.092 C 
ATOM      9  C   UNL     1      -1.168  -1.007  23.365  0.00  0.00    +0.041 C 
ATOM     10  C   UNL     1      -3.316  -0.892  24.448  0.00  0.00    +0.160 C 
ATOM     11  C   UNL     1      -1.256  -2.127  24.437  0.00  0.00    +0.043 C 
ATOM     12  C   UNL     1      -2.426  -1.746  25.346  0.00  0.00    +0.145 C 
ENDROOT
BRANCH   9  13
ATOM     13  C   UNL     1       0.190  -0.347  23.269  0.00  0.00    -0.042 A 
ATOM     15  C   UNL     1       1.162  -0.871  22.416  0.00  0.00    +0.007 A 
ATOM     16  C   UNL     1       0.471   0.785  24.034  0.00  0.00    +0.007 A 
ATOM     18  C   UNL     1       2.414  -0.263  22.328  0.00  0.00    +0.046 A 
ATOM     19  C   UNL     1       1.724   1.393  23.946  0.00  0.00    +0.046 A 
ATOM     20  C   UNL     1       2.695   0.869  23.093  0.00  0.00    +0.120 A 
BRANCH  20   6
ATOM      6  O   UNL     1       3.918   1.462  23.008  0.00  0.00    -0.495 OA
ATOM     27  C   UNL     1       5.054   0.649  23.295  0.00  0.00    +0.277 C 
ENDBRANCH  20   6
ENDBRANCH   9  13
BRANCH  10   4
ATOM      4  O   UNL     1      -4.233  -0.114  25.194  0.00  0.00    -0.388 OA
ATOM     29  H   UNL     1      -4.139  -0.368  26.128  0.00  0.00    +0.210 HD
ENDBRANCH  10   4
BRANCH  12   5
ATOM      5  O   UNL     1      -1.946  -0.973  26.441  0.00  0.00    -0.389 OA
ATOM     30  H   UNL     1      -1.507  -0.187  26.073  0.00  0.00    +0.210 HD
ENDBRANCH  12   5
BRANCH   8   7
ATOM      7  N   UNL     1      -2.884   0.588  22.515  0.00  0.00    -0.306 NA
ATOM     28  H   UNL     1      -2.546   0.089  21.691  0.00  0.00    +0.123 HD
BRANCH   7  14
ATOM     14  C   UNL     1      -2.501   1.988  22.404  0.00  0.00    +0.116 C 
BRANCH  14  17
ATOM     17  C   UNL     1      -2.847   2.765  23.646  0.00  0.00    -0.033 A 
ATOM     21  C   UNL     1      -4.154   2.754  24.135  0.00  0.00    +0.017 A 
ATOM     22  C   UNL     1      -1.860   3.496  24.309  0.00  0.00    +0.005 A 
ATOM     23  C   UNL     1      -4.474   3.474  25.285  0.00  0.00    +0.055 A 
ATOM     24  C   UNL     1      -2.181   4.215  25.460  0.00  0.00    +0.001 A 
ATOM     25  C   UNL     1      -3.488   4.205  25.948  0.00  0.00    +0.012 A 
BRANCH  23  26
ATOM      1  F   UNL     1      -6.458   4.695  25.828  0.00  0.00    -0.166 F 
ATOM      2  F   UNL     1      -5.971   3.000  27.090  0.00  0.00    -0.166 F 
ATOM      3  F   UNL     1      -6.702   2.672  25.069  0.00  0.00    -0.166 F 
ATOM     26  C   UNL     1      -5.871   3.462  25.808  0.00  0.00    +0.417 C 
ENDBRANCH  23  26
ENDBRANCH  14  17
ENDBRANCH   7  14
ENDBRANCH   8   7
TORSDOF 8
ENDMDL
MODEL 9
REMARK VINA RESULT:      -2.5      3.356      5.571
REMARK  Name = 75536105
REMARK  9 active torsions:
REMARK  status: ('A' for Active; 'I' for Inactive)
REMARK    1  A    between atoms: O_4  and  C_10
REMARK    2  A    between atoms: O_5  and  C_12
REMARK    3  A    between atoms: O_6  and  C_20
REMARK    4  A    between atoms: O_6  and  C_27
REMARK    5  A    between atoms: N_7  and  C_8
REMARK    6  A    between atoms: N_7  and  C_14
REMARK    7  A    between atoms: C_9  and  C_13
REMARK    8  A    between atoms: C_14  and  C_17
REMARK    9  A    between atoms: C_23  and  C_26
REMARK                            x       y       z     vdW  Elec       q    Type
REMARK                         _______ _______ _______ _____ _____    ______ ____
ROOT
ATOM      8  C   UNL     1      -1.236  -0.057  25.558  0.00  0.00    +0.092 C 
ATOM      9  C   UNL     1      -1.094   0.594  24.164  0.00  0.00    +0.041 C 
ATOM     10  C   UNL     1      -2.680  -0.560  25.561  0.00  0.00    +0.160 C 
ATOM     11  C   UNL     1      -2.137  -0.122  23.263  0.00  0.00    +0.043 C 
ATOM     12  C   UNL     1      -2.834  -1.146  24.161  0.00  0.00    +0.145 C 
ENDROOT
BRANCH   9  13
ATOM     13  C   UNL     1       0.321   0.552  23.627  0.00  0.00    -0.042 A 
ATOM     15  C   UNL     1       0.778  -0.581  22.955  0.00  0.00    +0.007 A 
ATOM     16  C   UNL     1       1.168   1.646  23.806  0.00  0.00    +0.007 A 
ATOM     18  C   UNL     1       2.081  -0.621  22.461  0.00  0.00    +0.046 A 
ATOM     19  C   UNL     1       2.472   1.606  23.312  0.00  0.00    +0.046 A 
ATOM     20  C   UNL     1       2.928   0.473  22.639  0.00  0.00    +0.120 A 
BRANCH  20   6
ATOM      6  O   UNL     1       4.202   0.434  22.158  0.00  0.00    -0.495 OA
ATOM     27  C   UNL     1       5.238   0.135  23.091  0.00  0.00    +0.277 C 
ENDBRANCH  20   6
ENDBRANCH   9  13
BRANCH  10   4
ATOM      4  O   UNL     1      -2.894  -1.529  26.570  0.00  0.00    -0.388 OA
ATOM     29  H   UNL     1      -3.683  -1.260  27.071  0.00  0.00    +0.210 HD
ENDBRANCH  10   4
BRANCH  12   5
ATOM      5  O   UNL     1      -2.155  -2.396  24.074  0.00  0.00    -0.389 OA
ATOM     30  H   UNL     1      -2.832  -3.093  24.049  0.00  0.00    +0.210 HD
ENDBRANCH  12   5
BRANCH   8   7
ATOM      7  N   UNL     1      -0.993   0.894  26.636  0.00  0.00    -0.306 NA
ATOM     28  H   UNL     1      -1.881   1.126  27.081  0.00  0.00    +0.123 HD
BRANCH   7  14
ATOM     14  C   UNL     1      -0.393   2.118  26.123  0.00  0.00    +0.116 C 
BRANCH  14  17
ATOM     17  C   UNL     1      -1.434   3.133  25.735  0.00  0.00    -0.033 A 
ATOM     21  C   UNL     1      -2.788   2.804  25.799  0.00  0.00    +0.017 A 
ATOM     22  C   UNL     1      -1.044   4.404  25.310  0.00  0.00    +0.005 A 
ATOM     23  C   UNL     1      -3.752   3.745  25.439  0.00  0.00    +0.055 A 
ATOM     24  C   UNL     1      -2.009   5.344  24.951  0.00  0.00    +0.001 A 
ATOM     25  C   UNL     1      -3.363   5.016  25.015  0.00  0.00    +0.012 A 
BRANCH  23  26
ATOM      1  F   UNL     1      -5.616   2.583  24.490  0.00  0.00    -0.166 F 
ATOM      2  F   UNL     1      -6.029   4.479  25.460  0.00  0.00    -0.166 F 
ATOM      3  F   UNL     1      -5.527   2.735  26.657  0.00  0.00    -0.166 F 
ATOM     26  C   UNL     1      -5.200   3.394  25.508  0.00  0.00    +0.417 C 
ENDBRANCH  23  26
ENDBRANCH  14  17
ENDBRANCH   7  14
ENDBRANCH   8   7
TORSDOF 8
ENDMDL
MODEL 10
REMARK VINA RESULT:      -2.5      1.887      2.804
REMARK  Name = 75536105
REMARK  9 active torsions:
REMARK  status: ('A' for Active; 'I' for Inactive)
REMARK    1  A    between atoms: O_4  and  C_10
REMARK    2  A    between atoms: O_5  and  C_12
REMARK    3  A    between atoms: O_6  and  C_20
REMARK    4  A    between atoms: O_6  and  C_27
REMARK    5  A    between atoms: N_7  and  C_8
REMARK    6  A    between atoms: N_7  and  C_14
REMARK    7  A    between atoms: C_9  and  C_13
REMARK    8  A    between atoms: C_14  and  C_17
REMARK    9  A    between atoms: C_23  and  C_26
REMARK                            x       y       z     vdW  Elec       q    Type
REMARK                         _______ _______ _______ _____ _____    ______ ____
ROOT
ATOM      8  C   UNL     1      -3.172   3.419  25.443  0.00  0.00    +0.092 C 
ATOM      9  C   UNL     1      -4.009   2.901  24.252  0.00  0.00    +0.041 C 
ATOM     10  C   UNL     1      -3.940   4.661  25.894  0.00  0.00    +0.160 C 
ATOM     11  C   UNL     1      -5.452   3.415  24.504  0.00  0.00    +0.043 C 
ATOM     12  C   UNL     1      -5.393   4.203  25.815  0.00  0.00    +0.145 C 
ENDROOT
BRANCH   9  13
ATOM     13  C   UNL     1      -3.911   1.402  24.060  0.00  0.00    -0.042 A 
ATOM     15  C   UNL     1      -4.478   0.541  24.999  0.00  0.00    +0.007 A 
ATOM     16  C   UNL     1      -3.251   0.883  22.946  0.00  0.00    +0.007 A 
ATOM     18  C   UNL     1      -4.387  -0.840  24.824  0.00  0.00    +0.046 A 
ATOM     19  C   UNL     1      -3.160  -0.498  22.770  0.00  0.00    +0.046 A 
ATOM     20  C   UNL     1      -3.728  -1.359  23.709  0.00  0.00    +0.120 A 
BRANCH  20   6
ATOM      6  O   UNL     1      -3.638  -2.707  23.538  0.00  0.00    -0.495 OA
ATOM     27  C   UNL     1      -3.883  -3.524  24.681  0.00  0.00    +0.277 C 
ENDBRANCH  20   6
ENDBRANCH   9  13
BRANCH  10   4
ATOM      4  O   UNL     1      -3.577   5.053  27.204  0.00  0.00    -0.388 OA
ATOM     29  H   UNL     1      -3.655   6.021  27.251  0.00  0.00    +0.210 HD
ENDBRANCH  10   4
BRANCH  12   5
ATOM      5  O   UNL     1      -5.696   3.337  26.905  0.00  0.00    -0.389 OA
ATOM     30  H   UNL     1      -4.941   2.734  27.016  0.00  0.00    +0.210 HD
ENDBRANCH  12   5
BRANCH   8   7
ATOM      7  N   UNL     1      -1.804   3.741  25.054  0.00  0.00    -0.306 NA
ATOM     28  H   UNL     1      -1.680   3.522  24.065  0.00  0.00    +0.123 HD
BRANCH   7  14
ATOM     14  C   UNL     1      -0.847   2.965  25.829  0.00  0.00    +0.116 C 
BRANCH  14  17
ATOM     17  C   UNL     1      -0.354   1.762  25.069  0.00  0.00    -0.033 A 
ATOM     21  C   UNL     1      -0.688   0.478  25.499  0.00  0.00    +0.017 A 
ATOM     22  C   UNL     1       0.440   1.933  23.933  0.00  0.00    +0.005 A 
ATOM     23  C   UNL     1      -0.231  -0.634  24.795  0.00  0.00    +0.055 A 
ATOM     24  C   UNL     1       0.896   0.820  23.229  0.00  0.00    +0.001 A 
ATOM     25  C   UNL     1       0.561  -0.464  23.659  0.00  0.00    +0.012 A 
BRANCH  23  26
ATOM      1  F   UNL     1      -0.899  -2.862  24.235  0.00  0.00    -0.166 F 
ATOM      2  F   UNL     1      -1.673  -2.041  26.086  0.00  0.00    -0.166 F 
ATOM      3  F   UNL     1       0.421  -2.611  25.945  0.00  0.00    -0.166 F 
ATOM     26  C   UNL     1      -0.590  -2.007  25.254  0.00  0.00    +0.417 C 
ENDBRANCH  23  26
ENDBRANCH  14  17
ENDBRANCH   7  14
ENDBRANCH   8   7
TORSDOF 8
ENDMDL
