MODEL 1
REMARK VINA RESULT:      -6.3      0.000      0.000
REMARK  Name = 28962095
REMARK  7 active torsions:
REMARK  status: ('A' for Active; 'I' for Inactive)
REMARK    1  A    between atoms: O_2  and  C_9
REMARK    2  A    between atoms: O_3  and  C_17
REMARK    3  A    between atoms: N_5  and  C_7
REMARK    4  A    between atoms: N_6  and  C_15
REMARK    5  A    between atoms: C_8  and  C_15
REMARK    6  A    between atoms: C_10  and  C_17
REMARK    7  A    between atoms: C_18  and  C_19
REMARK                            x       y       z     vdW  Elec       q    Type
REMARK                         _______ _______ _______ _____ _____    ______ ____
ROOT
ATOM      1  O   UNL     1      -0.917   3.056  25.393  0.00  0.00    -0.365 OA
ATOM      7  C   UNL     1      -2.256   1.089  25.367  0.00  0.00    +0.118 C 
ATOM      8  C   UNL     1      -0.837   1.633  25.159  0.00  0.00    +0.155 C 
ATOM      9  C   UNL     1      -3.133   2.294  25.062  0.00  0.00    +0.165 C 
ATOM     10  C   UNL     1      -2.287   3.414  25.655  0.00  0.00    +0.174 C 
ENDROOT
BRANCH   7   5
ATOM      5  N   UNL     1      -2.595  -0.131  24.634  0.00  0.00    -0.295 NA
ATOM     11  C   UNL     1      -1.809  -1.267  25.136  0.00  0.00    +0.085 C 
ATOM     12  C   UNL     1      -4.037  -0.401  24.724  0.00  0.00    +0.085 C 
ATOM     13  C   UNL     1      -2.116  -2.540  24.347  0.00  0.00    +0.015 C 
ATOM     14  C   UNL     1      -4.416  -1.647  23.922  0.00  0.00    +0.015 C 
ATOM     16  C   UNL     1      -3.607  -2.859  24.366  0.00  0.00    +0.002 C 
ENDBRANCH   7   5
BRANCH   9   2
ATOM      2  O   UNL     1      -3.290   2.481  23.661  0.00  0.00    -0.388 OA
ATOM     25  H   UNL     1      -3.229   1.607  23.240  0.00  0.00    +0.210 HD
ENDBRANCH   9   2
BRANCH   8  15
ATOM     15  C   UNL     1      -0.223   1.434  23.777  0.00  0.00    +0.137 C 
BRANCH  15   6
ATOM      4  O   UNL     1       1.232  -0.300  22.012  0.00  0.00    -0.270 OA
ATOM      6  N   UNL     1       1.161   1.084  23.873  0.00  0.00    -0.309 N 
ATOM     18  C   UNL     1       1.789   0.231  22.968  0.00  0.00    +0.244 C 
ATOM     26  H   UNL     1       1.664   1.433  24.682  0.00  0.00    +0.149 HD
BRANCH  18  19
ATOM     19  C   UNL     1       3.225  -0.054  23.222  0.00  0.00    +0.037 A 
ATOM     20  C   UNL     1       4.181   0.941  23.012  0.00  0.00    +0.013 A 
ATOM     21  C   UNL     1       3.618  -1.314  23.671  0.00  0.00    +0.013 A 
ATOM     22  C   UNL     1       5.529   0.674  23.252  0.00  0.00    +0.001 A 
ATOM     23  C   UNL     1       4.966  -1.581  23.910  0.00  0.00    +0.001 A 
ATOM     24  C   UNL     1       5.922  -0.587  23.701  0.00  0.00    +0.000 A 
ENDBRANCH  18  19
ENDBRANCH  15   6
ENDBRANCH   8  15
BRANCH  10  17
ATOM     17  C   UNL     1      -2.557   4.801  25.100  0.00  0.00    +0.190 C 
BRANCH  17   3
ATOM      3  O   UNL     1      -1.340   5.530  25.073  0.00  0.00    -0.392 OA
ATOM     27  H   UNL     1      -1.446   6.242  24.421  0.00  0.00    +0.210 HD
ENDBRANCH  17   3
ENDBRANCH  10  17
TORSDOF 7
ENDMDL
MODEL 2
REMARK VINA RESULT:      -4.2     14.793     17.791
REMARK  Name = 28962095
REMARK  7 active torsions:
REMARK  status: ('A' for Active; 'I' for Inactive)
REMARK    1  A    between atoms: O_2  and  C_9
REMARK    2  A    between atoms: O_3  and  C_17
REMARK    3  A    between atoms: N_5  and  C_7
REMARK    4  A    between atoms: N_6  and  C_15
REMARK    5  A    between atoms: C_8  and  C_15
REMARK    6  A    between atoms: C_10  and  C_17
REMARK    7  A    between atoms: C_18  and  C_19
REMARK                            x       y       z     vdW  Elec       q    Type
REMARK                         _______ _______ _______ _____ _____    ______ ____
ROOT
ATOM      1  O   UNL     1      -4.712  -9.085  11.804  0.00  0.00    -0.365 OA
ATOM      7  C   UNL     1      -6.638  -8.979  10.409  0.00  0.00    +0.118 C 
ATOM      8  C   UNL     1      -6.150  -9.221  11.843  0.00  0.00    +0.155 C 
ATOM      9  C   UNL     1      -5.431  -9.367   9.567  0.00  0.00    +0.165 C 
ATOM     10  C   UNL     1      -4.298  -8.850  10.445  0.00  0.00    +0.174 C 
ENDROOT
BRANCH   7   5
ATOM      5  N   UNL     1      -7.894  -9.628  10.036  0.00  0.00    -0.295 NA
ATOM     11  C   UNL     1      -9.016  -9.043  10.783  0.00  0.00    +0.085 C 
ATOM     12  C   UNL     1      -8.113  -9.528   8.585  0.00  0.00    +0.085 C 
ATOM     13  C   UNL     1     -10.331  -9.744  10.441  0.00  0.00    +0.015 C 
ATOM     14  C   UNL     1      -9.399 -10.244   8.171  0.00  0.00    +0.015 C 
ATOM     16  C   UNL     1     -10.602  -9.712   8.940  0.00  0.00    +0.002 C 
ENDBRANCH   7   5
BRANCH   9   2
ATOM      2  O   UNL     1      -5.336 -10.777   9.414  0.00  0.00    -0.388 OA
ATOM     25  H   UNL     1      -6.171 -11.087   9.024  0.00  0.00    +0.210 HD
ENDBRANCH   9   2
BRANCH   8  15
ATOM     15  C   UNL     1      -6.459 -10.585  12.450  0.00  0.00    +0.137 C 
BRANCH  15   6
ATOM      4  O   UNL     1      -4.358 -10.661  14.405  0.00  0.00    -0.270 OA
ATOM      6  N   UNL     1      -6.610 -10.496  13.871  0.00  0.00    -0.309 N 
ATOM     18  C   UNL     1      -5.531 -10.541  14.750  0.00  0.00    +0.244 C 
ATOM     26  H   UNL     1      -7.560 -10.465  14.227  0.00  0.00    +0.149 HD
BRANCH  18  19
ATOM     19  C   UNL     1      -5.857 -10.462  16.197  0.00  0.00    +0.037 A 
ATOM     20  C   UNL     1      -7.134 -10.072  16.604  0.00  0.00    +0.013 A 
ATOM     21  C   UNL     1      -4.889 -10.779  17.149  0.00  0.00    +0.013 A 
ATOM     22  C   UNL     1      -7.441 -10.000  17.962  0.00  0.00    +0.001 A 
ATOM     23  C   UNL     1      -5.196 -10.706  18.508  0.00  0.00    +0.001 A 
ATOM     24  C   UNL     1      -6.472 -10.317  18.915  0.00  0.00    +0.000 A 
ENDBRANCH  18  19
ENDBRANCH  15   6
ENDBRANCH   8  15
BRANCH  10  17
ATOM     17  C   UNL     1      -2.946  -9.499  10.214  0.00  0.00    +0.190 C 
BRANCH  17   3
ATOM      3  O   UNL     1      -2.494 -10.064  11.435  0.00  0.00    -0.392 OA
ATOM     27  H   UNL     1      -1.528 -10.150  11.371  0.00  0.00    +0.210 HD
ENDBRANCH  17   3
ENDBRANCH  10  17
TORSDOF 7
ENDMDL
MODEL 3
REMARK VINA RESULT:      -3.7      2.393      5.789
REMARK  Name = 28962095
REMARK  7 active torsions:
REMARK  status: ('A' for Active; 'I' for Inactive)
REMARK    1  A    between atoms: O_2  and  C_9
REMARK    2  A    between atoms: O_3  and  C_17
REMARK    3  A    between atoms: N_5  and  C_7
REMARK    4  A    between atoms: N_6  and  C_15
REMARK    5  A    between atoms: C_8  and  C_15
REMARK    6  A    between atoms: C_10  and  C_17
REMARK    7  A    between atoms: C_18  and  C_19
REMARK                            x       y       z     vdW  Elec       q    Type
REMARK                         _______ _______ _______ _____ _____    ______ ____
ROOT
ATOM      1  O   UNL     1       1.224   1.849  24.965  0.00  0.00    -0.365 OA
ATOM      7  C   UNL     1      -0.904   2.858  24.621  0.00  0.00    +0.118 C 
ATOM      8  C   UNL     1       0.080   2.358  25.686  0.00  0.00    +0.155 C 
ATOM      9  C   UNL     1      -0.546   2.020  23.403  0.00  0.00    +0.165 C 
ATOM     10  C   UNL     1       0.969   1.943  23.551  0.00  0.00    +0.174 C 
ENDROOT
BRANCH   7   5
ATOM      5  N   UNL     1      -2.319   2.847  24.992  0.00  0.00    -0.295 NA
ATOM     11  C   UNL     1      -2.626   3.979  25.877  0.00  0.00    +0.085 C 
ATOM     12  C   UNL     1      -3.165   2.867  23.791  0.00  0.00    +0.085 C 
ATOM     13  C   UNL     1      -4.091   3.954  26.315  0.00  0.00    +0.015 C 
ATOM     14  C   UNL     1      -4.649   2.806  24.160  0.00  0.00    +0.015 C 
ATOM     16  C   UNL     1      -5.029   3.934  25.112  0.00  0.00    +0.002 C 
ENDBRANCH   7   5
BRANCH   9   2
ATOM      2  O   UNL     1      -1.118   0.720  23.481  0.00  0.00    -0.388 OA
ATOM     25  H   UNL     1      -1.531   0.529  22.621  0.00  0.00    +0.210 HD
ENDBRANCH   9   2
BRANCH   8  15
ATOM     15  C   UNL     1      -0.411   1.243  26.602  0.00  0.00    +0.137 C 
BRANCH  15   6
ATOM      4  O   UNL     1      -0.302  -1.502  25.769  0.00  0.00    -0.270 OA
ATOM      6  N   UNL     1      -1.464   0.495  25.985  0.00  0.00    -0.309 N 
ATOM     18  C   UNL     1      -1.324  -0.840  25.611  0.00  0.00    +0.244 C 
ATOM     26  H   UNL     1      -2.313   1.002  25.762  0.00  0.00    +0.149 HD
BRANCH  18  19
ATOM     19  C   UNL     1      -2.502  -1.467  24.958  0.00  0.00    +0.037 A 
ATOM     20  C   UNL     1      -3.633  -0.700  24.677  0.00  0.00    +0.013 A 
ATOM     21  C   UNL     1      -2.476  -2.820  24.623  0.00  0.00    +0.013 A 
ATOM     22  C   UNL     1      -4.738  -1.288  24.062  0.00  0.00    +0.001 A 
ATOM     23  C   UNL     1      -3.582  -3.408  24.009  0.00  0.00    +0.001 A 
ATOM     24  C   UNL     1      -4.713  -2.642  23.727  0.00  0.00    +0.000 A 
ENDBRANCH  18  19
ENDBRANCH  15   6
ENDBRANCH   8  15
BRANCH  10  17
ATOM     17  C   UNL     1       1.635   0.776  22.844  0.00  0.00    +0.190 C 
BRANCH  17   3
ATOM      3  O   UNL     1       1.329  -0.420  23.543  0.00  0.00    -0.392 OA
ATOM     27  H   UNL     1       1.475  -0.245  24.488  0.00  0.00    +0.210 HD
ENDBRANCH  17   3
ENDBRANCH  10  17
TORSDOF 7
ENDMDL
MODEL 4
REMARK VINA RESULT:      -3.0      1.596      2.336
REMARK  Name = 28962095
REMARK  7 active torsions:
REMARK  status: ('A' for Active; 'I' for Inactive)
REMARK    1  A    between atoms: O_2  and  C_9
REMARK    2  A    between atoms: O_3  and  C_17
REMARK    3  A    between atoms: N_5  and  C_7
REMARK    4  A    between atoms: N_6  and  C_15
REMARK    5  A    between atoms: C_8  and  C_15
REMARK    6  A    between atoms: C_10  and  C_17
REMARK    7  A    between atoms: C_18  and  C_19
REMARK                            x       y       z     vdW  Elec       q    Type
REMARK                         _______ _______ _______ _____ _____    ______ ____
ROOT
ATOM      1  O   UNL     1      -2.847   3.672  25.246  0.00  0.00    -0.365 OA
ATOM      7  C   UNL     1      -3.120   1.313  25.409  0.00  0.00    +0.118 C 
ATOM      8  C   UNL     1      -2.186   2.428  24.923  0.00  0.00    +0.155 C 
ATOM      9  C   UNL     1      -4.490   1.973  25.372  0.00  0.00    +0.165 C 
ATOM     10  C   UNL     1      -4.134   3.384  25.824  0.00  0.00    +0.174 C 
ENDROOT
BRANCH   7   5
ATOM      5  N   UNL     1      -3.023   0.035  24.703  0.00  0.00    -0.295 NA
ATOM     11  C   UNL     1      -2.011  -0.824  25.333  0.00  0.00    +0.085 C 
ATOM     12  C   UNL     1      -4.333  -0.630  24.662  0.00  0.00    +0.085 C 
ATOM     13  C   UNL     1      -1.862  -2.145  24.577  0.00  0.00    +0.015 C 
ATOM     14  C   UNL     1      -4.260  -1.945  23.885  0.00  0.00    +0.015 C 
ATOM     16  C   UNL     1      -3.197  -2.872  24.462  0.00  0.00    +0.002 C 
ENDBRANCH   7   5
BRANCH   9   2
ATOM      2  O   UNL     1      -5.021   1.994  24.053  0.00  0.00    -0.388 OA
ATOM     25  H   UNL     1      -5.788   1.396  24.036  0.00  0.00    +0.210 HD
ENDBRANCH   9   2
BRANCH   8  15
ATOM     15  C   UNL     1      -1.872   2.457  23.431  0.00  0.00    +0.137 C 
BRANCH  15   6
ATOM      4  O   UNL     1       0.564   2.535  24.948  0.00  0.00    -0.270 OA
ATOM      6  N   UNL     1      -0.664   1.745  23.144  0.00  0.00    -0.309 N 
ATOM     18  C   UNL     1       0.477   1.841  23.938  0.00  0.00    +0.244 C 
ATOM     26  H   UNL     1      -0.645   1.208  22.284  0.00  0.00    +0.149 HD
BRANCH  18  19
ATOM     19  C   UNL     1       1.658   1.060  23.490  0.00  0.00    +0.037 A 
ATOM     20  C   UNL     1       1.562  -0.325  23.341  0.00  0.00    +0.013 A 
ATOM     21  C   UNL     1       2.861   1.709  23.215  0.00  0.00    +0.013 A 
ATOM     22  C   UNL     1       2.670  -1.058  22.918  0.00  0.00    +0.001 A 
ATOM     23  C   UNL     1       3.970   0.974  22.793  0.00  0.00    +0.001 A 
ATOM     24  C   UNL     1       3.874  -0.409  22.644  0.00  0.00    +0.000 A 
ENDBRANCH  18  19
ENDBRANCH  15   6
ENDBRANCH   8  15
BRANCH  10  17
ATOM     17  C   UNL     1      -5.118   4.466  25.419  0.00  0.00    +0.190 C 
BRANCH  17   3
ATOM      3  O   UNL     1      -6.423   4.071  25.811  0.00  0.00    -0.392 OA
ATOM     27  H   UNL     1      -6.653   3.284  25.289  0.00  0.00    +0.210 HD
ENDBRANCH  17   3
ENDBRANCH  10  17
TORSDOF 7
ENDMDL
MODEL 5
REMARK VINA RESULT:      -2.8      1.888      6.573
REMARK  Name = 28962095
REMARK  7 active torsions:
REMARK  status: ('A' for Active; 'I' for Inactive)
REMARK    1  A    between atoms: O_2  and  C_9
REMARK    2  A    between atoms: O_3  and  C_17
REMARK    3  A    between atoms: N_5  and  C_7
REMARK    4  A    between atoms: N_6  and  C_15
REMARK    5  A    between atoms: C_8  and  C_15
REMARK    6  A    between atoms: C_10  and  C_17
REMARK    7  A    between atoms: C_18  and  C_19
REMARK                            x       y       z     vdW  Elec       q    Type
REMARK                         _______ _______ _______ _____ _____    ______ ____
ROOT
ATOM      1  O   UNL     1       1.432   1.250  23.387  0.00  0.00    -0.365 OA
ATOM      7  C   UNL     1      -0.486  -0.153  23.244  0.00  0.00    +0.118 C 
ATOM      8  C   UNL     1       0.010   1.244  23.642  0.00  0.00    +0.155 C 
ATOM      9  C   UNL     1       0.754  -1.017  23.414  0.00  0.00    +0.165 C 
ATOM     10  C   UNL     1       1.835  -0.056  22.934  0.00  0.00    +0.174 C 
ENDROOT
BRANCH   7   5
ATOM      5  N   UNL     1      -1.682  -0.635  23.934  0.00  0.00    -0.295 NA
ATOM     11  C   UNL     1      -2.887  -0.316  23.155  0.00  0.00    +0.085 C 
ATOM     12  C   UNL     1      -1.581  -2.079  24.189  0.00  0.00    +0.085 C 
ATOM     13  C   UNL     1      -4.152  -0.769  23.886  0.00  0.00    +0.015 C 
ATOM     14  C   UNL     1      -2.803  -2.590  24.954  0.00  0.00    +0.015 C 
ATOM     16  C   UNL     1      -4.097  -2.257  24.219  0.00  0.00    +0.002 C 
ENDBRANCH   7   5
BRANCH   9   2
ATOM      2  O   UNL     1       0.966  -1.360  24.778  0.00  0.00    -0.388 OA
ATOM     25  H   UNL     1       0.931  -0.538  25.296  0.00  0.00    +0.210 HD
ENDBRANCH   9   2
BRANCH   8  15
ATOM     15  C   UNL     1      -0.191   1.653  25.097  0.00  0.00    +0.137 C 
BRANCH  15   6
ATOM      4  O   UNL     1      -1.926   3.532  23.792  0.00  0.00    -0.270 OA
ATOM      6  N   UNL     1      -1.575   1.879  25.383  0.00  0.00    -0.309 N 
ATOM     18  C   UNL     1      -2.346   2.815  24.697  0.00  0.00    +0.244 C 
ATOM     26  H   UNL     1      -1.967   1.369  26.167  0.00  0.00    +0.149 HD
BRANCH  18  19
ATOM     19  C   UNL     1      -3.760   2.948  25.131  0.00  0.00    +0.037 A 
ATOM     20  C   UNL     1      -4.504   1.809  25.444  0.00  0.00    +0.013 A 
ATOM     21  C   UNL     1      -4.344   4.210  25.229  0.00  0.00    +0.013 A 
ATOM     22  C   UNL     1      -5.831   1.934  25.854  0.00  0.00    +0.001 A 
ATOM     23  C   UNL     1      -5.672   4.335  25.638  0.00  0.00    +0.001 A 
ATOM     24  C   UNL     1      -6.415   3.197  25.952  0.00  0.00    +0.000 A 
ENDBRANCH  18  19
ENDBRANCH  15   6
ENDBRANCH   8  15
BRANCH  10  17
ATOM     17  C   UNL     1       3.237  -0.349  23.434  0.00  0.00    +0.190 C 
BRANCH  17   3
ATOM      3  O   UNL     1       4.000   0.846  23.386  0.00  0.00    -0.392 OA
ATOM     27  H   UNL     1       3.618   1.458  24.038  0.00  0.00    +0.210 HD
ENDBRANCH  17   3
ENDBRANCH  10  17
TORSDOF 7
ENDMDL
MODEL 6
REMARK VINA RESULT:      -2.8      2.097      3.726
REMARK  Name = 28962095
REMARK  7 active torsions:
REMARK  status: ('A' for Active; 'I' for Inactive)
REMARK    1  A    between atoms: O_2  and  C_9
REMARK    2  A    between atoms: O_3  and  C_17
REMARK    3  A    between atoms: N_5  and  C_7
REMARK    4  A    between atoms: N_6  and  C_15
REMARK    5  A    between atoms: C_8  and  C_15
REMARK    6  A    between atoms: C_10  and  C_17
REMARK    7  A    between atoms: C_18  and  C_19
REMARK                            x       y       z     vdW  Elec       q    Type
REMARK                         _______ _______ _______ _____ _____    ______ ____
ROOT
ATOM      1  O   UNL     1      -0.617  -1.148  23.737  0.00  0.00    -0.365 OA
ATOM      7  C   UNL     1      -2.702  -0.136  24.282  0.00  0.00    +0.118 C 
ATOM      8  C   UNL     1      -1.382   0.059  23.525  0.00  0.00    +0.155 C 
ATOM      9  C   UNL     1      -2.326  -1.127  25.374  0.00  0.00    +0.165 C 
ATOM     10  C   UNL     1      -1.349  -2.020  24.620  0.00  0.00    +0.174 C 
ENDROOT
BRANCH   7   5
ATOM      5  N   UNL     1      -3.368   1.080  24.745  0.00  0.00    -0.295 NA
ATOM     11  C   UNL     1      -3.342   2.110  23.697  0.00  0.00    +0.085 C 
ATOM     12  C   UNL     1      -4.745   0.784  25.165  0.00  0.00    +0.085 C 
ATOM     13  C   UNL     1      -3.992   3.407  24.183  0.00  0.00    +0.015 C 
ATOM     14  C   UNL     1      -5.441   2.037  25.699  0.00  0.00    +0.015 C 
ATOM     16  C   UNL     1      -5.415   3.164  24.673  0.00  0.00    +0.002 C 
ENDBRANCH   7   5
BRANCH   9   2
ATOM      2  O   UNL     1      -1.672  -0.481  26.458  0.00  0.00    -0.388 OA
ATOM     25  H   UNL     1      -2.075   0.398  26.564  0.00  0.00    +0.210 HD
ENDBRANCH   9   2
BRANCH   8  15
ATOM     15  C   UNL     1      -0.509   1.231  23.962  0.00  0.00    +0.137 C 
BRANCH  15   6
ATOM      4  O   UNL     1       1.092   0.137  21.845  0.00  0.00    -0.270 OA
ATOM      6  N   UNL     1       0.867   0.847  24.043  0.00  0.00    -0.309 N 
ATOM     18  C   UNL     1       1.570   0.322  22.961  0.00  0.00    +0.244 C 
ATOM     26  H   UNL     1       1.304   0.908  24.956  0.00  0.00    +0.149 HD
BRANCH  18  19
ATOM     19  C   UNL     1       2.985  -0.052  23.215  0.00  0.00    +0.037 A 
ATOM     20  C   UNL     1       3.998   0.893  23.045  0.00  0.00    +0.013 A 
ATOM     21  C   UNL     1       3.302  -1.346  23.626  0.00  0.00    +0.013 A 
ATOM     22  C   UNL     1       5.326   0.543  23.286  0.00  0.00    +0.001 A 
ATOM     23  C   UNL     1       4.631  -1.697  23.865  0.00  0.00    +0.001 A 
ATOM     24  C   UNL     1       5.643  -0.752  23.696  0.00  0.00    +0.000 A 
ENDBRANCH  18  19
ENDBRANCH  15   6
ENDBRANCH   8  15
BRANCH  10  17
ATOM     17  C   UNL     1      -0.370  -2.793  25.484  0.00  0.00    +0.190 C 
BRANCH  17   3
ATOM      3  O   UNL     1       0.758  -1.972  25.746  0.00  0.00    -0.392 OA
ATOM     27  H   UNL     1       1.100  -1.672  24.888  0.00  0.00    +0.210 HD
ENDBRANCH  17   3
ENDBRANCH  10  17
TORSDOF 7
ENDMDL
MODEL 7
REMARK VINA RESULT:      -2.5      3.040      6.050
REMARK  Name = 28962095
REMARK  7 active torsions:
REMARK  status: ('A' for Active; 'I' for Inactive)
REMARK    1  A    between atoms: O_2  and  C_9
REMARK    2  A    between atoms: O_3  and  C_17
REMARK    3  A    between atoms: N_5  and  C_7
REMARK    4  A    between atoms: N_6  and  C_15
REMARK    5  A    between atoms: C_8  and  C_15
REMARK    6  A    between atoms: C_10  and  C_17
REMARK    7  A    between atoms: C_18  and  C_19
REMARK                            x       y       z     vdW  Elec       q    Type
REMARK                         _______ _______ _______ _____ _____    ______ ____
ROOT
ATOM      1  O   UNL     1       0.411   2.193  23.909  0.00  0.00    -0.365 OA
ATOM      7  C   UNL     1      -0.565   0.165  24.683  0.00  0.00    +0.118 C 
ATOM      8  C   UNL     1      -0.242   0.995  23.434  0.00  0.00    +0.155 C 
ATOM      9  C   UNL     1      -0.666   1.217  25.777  0.00  0.00    +0.165 C 
ATOM     10  C   UNL     1       0.439   2.175  25.349  0.00  0.00    +0.174 C 
ENDROOT
BRANCH   7   5
ATOM      5  N   UNL     1      -1.709  -0.740  24.579  0.00  0.00    -0.295 NA
ATOM     11  C   UNL     1      -1.273  -2.070  24.131  0.00  0.00    +0.085 C 
ATOM     12  C   UNL     1      -2.421  -0.818  25.863  0.00  0.00    +0.085 C 
ATOM     13  C   UNL     1      -2.465  -3.015  23.970  0.00  0.00    +0.015 C 
ATOM     14  C   UNL     1      -3.650  -1.723  25.759  0.00  0.00    +0.015 C 
ATOM     16  C   UNL     1      -3.274  -3.113  25.259  0.00  0.00    +0.002 C 
ENDBRANCH   7   5
BRANCH   9   2
ATOM      2  O   UNL     1      -1.928   1.873  25.751  0.00  0.00    -0.388 OA
ATOM     25  H   UNL     1      -1.789   2.761  25.380  0.00  0.00    +0.210 HD
ENDBRANCH   9   2
BRANCH   8  15
ATOM     15  C   UNL     1      -1.425   1.433  22.578  0.00  0.00    +0.137 C 
BRANCH  15   6
ATOM      4  O   UNL     1      -2.826   3.801  23.398  0.00  0.00    -0.270 OA
ATOM      6  N   UNL     1      -2.628   1.489  23.351  0.00  0.00    -0.309 N 
ATOM     18  C   UNL     1      -3.244   2.688  23.706  0.00  0.00    +0.244 C 
ATOM     26  H   UNL     1      -2.988   0.607  23.698  0.00  0.00    +0.149 HD
BRANCH  18  19
ATOM     19  C   UNL     1      -4.472   2.577  24.533  0.00  0.00    +0.037 A 
ATOM     20  C   UNL     1      -5.130   1.351  24.644  0.00  0.00    +0.013 A 
ATOM     21  C   UNL     1      -4.967   3.696  25.201  0.00  0.00    +0.013 A 
ATOM     22  C   UNL     1      -6.282   1.246  25.423  0.00  0.00    +0.001 A 
ATOM     23  C   UNL     1      -6.120   3.591  25.979  0.00  0.00    +0.001 A 
ATOM     24  C   UNL     1      -6.778   2.366  26.091  0.00  0.00    +0.000 A 
ENDBRANCH  18  19
ENDBRANCH  15   6
ENDBRANCH   8  15
BRANCH  10  17
ATOM     17  C   UNL     1       0.311   3.594  25.870  0.00  0.00    +0.190 C 
BRANCH  17   3
ATOM      3  O   UNL     1      -0.626   4.295  25.068  0.00  0.00    -0.392 OA
ATOM     27  H   UNL     1      -0.961   3.669  24.405  0.00  0.00    +0.210 HD
ENDBRANCH  17   3
ENDBRANCH  10  17
TORSDOF 7
ENDMDL
