MODEL 1
REMARK VINA RESULT:       7.6      0.000      0.000
REMARK  Name = 11883073
REMARK  8 active torsions:
REMARK  status: ('A' for Active; 'I' for Inactive)
REMARK    1  A    between atoms: O_2  and  C_16
REMARK    2  A    between atoms: O_3  and  C_21
REMARK    3  A    between atoms: C_11  and  C_19
REMARK    4  A    between atoms: C_13  and  C_21
REMARK    5  A    between atoms: C_13  and  C_22
REMARK    6  A    between atoms: C_14  and  C_24
REMARK    7  A    between atoms: C_24  and  C_25
REMARK    8  A    between atoms: C_31  and  C_32
REMARK                            x       y       z     vdW  Elec       q    Type
REMARK                         _______ _______ _______ _____ _____    ______ ____
ROOT
ATOM      1  S   UNL     1       0.488   2.252  25.818  0.00  0.00    -0.057 S 
ATOM      6  O   UNL     1       1.944  -0.009  22.058  0.00  0.00    -0.266 OA
ATOM      8  N   UNL     1      -0.223   1.277  23.530  0.00  0.00    -0.229 NA
ATOM     10  N   UNL     1       2.090   1.009  24.155  0.00  0.00    -0.258 N 
ATOM     11  C   UNL     1      -3.864   2.181  24.421  0.00  0.00    -0.019 C 
ATOM     12  C   UNL     1      -3.421   3.436  25.294  0.00  0.00    +0.011 C 
ATOM     13  C   UNL     1      -4.559   4.202  26.073  0.00  0.00    +0.021 C 
ATOM     14  C   UNL     1      -2.677   1.844  23.405  0.00  0.00    +0.054 C 
ATOM     15  C   UNL     1      -5.125   2.544  23.597  0.00  0.00    +0.010 C 
ATOM     16  C   UNL     1      -5.760   4.446  25.116  0.00  0.00    +0.123 C 
ATOM     17  C   UNL     1      -2.173   3.111  26.167  0.00  0.00    +0.049 C 
ATOM     18  C   UNL     1      -6.239   3.177  24.419  0.00  0.00    +0.032 C 
ATOM     19  C   UNL     1      -4.175   0.930  25.281  0.00  0.00    +0.012 C 
ATOM     20  C   UNL     1      -1.344   1.839  24.109  0.00  0.00    +0.058 A 
ATOM     22  C   UNL     1      -4.024   5.597  26.507  0.00  0.00    +0.016 C 
ATOM     23  C   UNL     1      -1.136   2.429  25.339  0.00  0.00    +0.015 A 
ATOM     26  C   UNL     1       0.800   1.429  24.344  0.00  0.00    +0.165 A 
ATOM     31  C   UNL     1       2.609   0.317  23.039  0.00  0.00    +0.285 C 
ATOM     38  H   UNL     1       2.727   1.226  24.919  0.00  0.00    +0.157 HD
ENDROOT
BRANCH  31  32
ATOM      7  O   UNL     1       4.300  -1.216  23.724  0.00  0.00    -0.458 OA
ATOM     32  C   UNL     1       4.034  -0.046  23.137  0.00  0.00    +0.189 A 
ATOM     33  C   UNL     1       5.124   0.621  22.723  0.00  0.00    +0.054 A 
ATOM     34  C   UNL     1       6.208  -0.213  23.086  0.00  0.00    +0.042 A 
ATOM     35  C   UNL     1       5.655  -1.318  23.691  0.00  0.00    +0.196 A 
ENDBRANCH  31  32
BRANCH  16   2
ATOM      2  O   UNL     1      -6.857   5.022  25.824  0.00  0.00    -0.391 OA
ATOM     36  H   UNL     1      -7.408   4.298  26.165  0.00  0.00    +0.210 HD
ENDBRANCH  16   2
BRANCH  13  21
ATOM     21  C   UNL     1      -5.021   3.512  27.375  0.00  0.00    +0.165 C 
BRANCH  21   3
ATOM      3  O   UNL     1      -6.099   2.661  27.052  0.00  0.00    -0.394 OA
ATOM     37  H   UNL     1      -6.834   2.864  27.656  0.00  0.00    +0.209 HD
ENDBRANCH  21   3
ENDBRANCH  13  21
BRANCH  14  24
ATOM     24  C   UNL     1      -2.883   0.564  22.584  0.00  0.00    +0.106 C 
BRANCH  24  25
ATOM      4  O   UNL     1      -4.745  -0.681  23.362  0.00  0.00    -0.276 OA
ATOM      5  O   UNL     1      -1.296  -3.257  25.643  0.00  0.00    -0.377 OA
ATOM      9  N   UNL     1      -2.681  -1.212  24.284  0.00  0.00    -0.297 N 
ATOM     25  C   UNL     1      -3.528  -0.496  23.442  0.00  0.00    +0.216 C 
ATOM     27  C   UNL     1      -3.186  -1.745  25.550  0.00  0.00    +0.136 C 
ATOM     28  C   UNL     1      -1.239  -1.396  24.087  0.00  0.00    +0.136 C 
ATOM     29  C   UNL     1      -2.722  -3.181  25.744  0.00  0.00    +0.179 C 
ATOM     30  C   UNL     1      -0.851  -2.845  24.347  0.00  0.00    +0.179 C 
ENDBRANCH  24  25
ENDBRANCH  14  24
TORSDOF 6
ENDMDL
