MODEL 1
REMARK VINA RESULT:      11.4      0.000      0.000
REMARK  Name = 9419192
REMARK  5 active torsions:
REMARK  status: ('A' for Active; 'I' for Inactive)
REMARK    1  A    between atoms: O_7  and  C_27
REMARK    2  A    between atoms: O_7  and  C_31
REMARK    3  A    between atoms: N_9  and  C_20
REMARK    4  A    between atoms: N_10  and  C_15
REMARK    5  A    between atoms: C_21  and  C_24
REMARK                            x       y       z     vdW  Elec       q    Type
REMARK                         _______ _______ _______ _____ _____    ______ ____
ROOT
ATOM      4  O   UNL     1       0.942   1.614  25.555  0.00  0.00    -0.273 OA
ATOM      5  O   UNL     1      -0.013  -0.955  21.806  0.00  0.00    -0.252 OA
ATOM      8  N   UNL     1      -1.307   0.144  23.390  0.00  0.00    -0.273 N 
ATOM      9  N   UNL     1       0.918   0.319  23.573  0.00  0.00    -0.193 N 
ATOM     13  C   UNL     1      -1.138   0.937  24.576  0.00  0.00    +0.166 C 
ATOM     14  C   UNL     1      -1.778   0.256  25.781  0.00  0.00    +0.054 C 
ATOM     15  C   UNL     1      -3.224  -0.182  25.488  0.00  0.00    +0.077 C 
ATOM     16  C   UNL     1      -3.311  -0.999  24.187  0.00  0.00    +0.041 C 
ATOM     17  C   UNL     1      -2.640  -0.290  23.009  0.00  0.00    +0.112 C 
ATOM     18  C   UNL     1       0.377   1.001  24.659  0.00  0.00    +0.248 C 
ATOM     19  C   UNL     1      -0.103  -0.232  22.792  0.00  0.00    +0.316 C 
ENDROOT
BRANCH   9  20
ATOM     20  C   UNL     1       2.318   0.177  23.307  0.00  0.00    +0.046 A 
ATOM     22  C   UNL     1       3.035   1.235  22.743  0.00  0.00    +0.027 A 
ATOM     23  C   UNL     1       2.971  -1.020  23.608  0.00  0.00    +0.027 A 
ATOM     25  C   UNL     1       4.399   1.096  22.483  0.00  0.00    +0.048 A 
ATOM     26  C   UNL     1       4.335  -1.159  23.347  0.00  0.00    +0.048 A 
ATOM     27  C   UNL     1       5.048  -0.101  22.784  0.00  0.00    +0.130 A 
BRANCH  27   7
ATOM      7  O   UNL     1       6.379  -0.235  22.532  0.00  0.00    -0.406 OA
BRANCH   7  31
ATOM      1  F   UNL     1       7.137   1.239  24.064  0.00  0.00    -0.133 F 
ATOM      2  F   UNL     1       7.051  -0.871  24.623  0.00  0.00    -0.133 F 
ATOM      3  F   UNL     1       8.570  -0.158  23.184  0.00  0.00    -0.133 F 
ATOM     31  C   UNL     1       7.292  -0.023  23.602  0.00  0.00    +0.575 C 
ENDBRANCH   7  31
ENDBRANCH  27   7
ENDBRANCH   9  20
BRANCH  15  10
ATOM      6  O   UNL     1      -2.472   2.588  25.454  0.00  0.00    -0.268 OA
ATOM     10  N   UNL     1      -4.116   0.954  25.446  0.00  0.00    -0.307 N 
ATOM     21  C   UNL     1      -3.655   2.261  25.432  0.00  0.00    +0.264 C 
ATOM     32  H   UNL     1      -5.118   0.786  25.478  0.00  0.00    +0.149 HD
BRANCH  21  24
ATOM     11  N   UNL     1      -4.359   4.445  24.794  0.00  0.00    -0.247 NA
ATOM     12  N   UNL     1      -6.861   4.044  25.995  0.00  0.00    -0.259 NA
ATOM     24  C   UNL     1      -4.701   3.316  25.414  0.00  0.00    +0.143 A 
ATOM     28  C   UNL     1      -5.905   3.095  26.005  0.00  0.00    +0.143 A 
ATOM     29  C   UNL     1      -5.316   5.394  24.783  0.00  0.00    +0.131 A 
ATOM     30  C   UNL     1      -6.545   5.197  25.373  0.00  0.00    +0.130 A 
ENDBRANCH  21  24
ENDBRANCH  15  10
TORSDOF 5
ENDMDL
MODEL 2
REMARK VINA RESULT:      11.7      5.082      9.695
REMARK  Name = 9419192
REMARK  5 active torsions:
REMARK  status: ('A' for Active; 'I' for Inactive)
REMARK    1  A    between atoms: O_7  and  C_27
REMARK    2  A    between atoms: O_7  and  C_31
REMARK    3  A    between atoms: N_9  and  C_20
REMARK    4  A    between atoms: N_10  and  C_15
REMARK    5  A    between atoms: C_21  and  C_24
REMARK                            x       y       z     vdW  Elec       q    Type
REMARK                         _______ _______ _______ _____ _____    ______ ____
ROOT
ATOM      4  O   UNL     1      -0.752   2.848  23.746  0.00  0.00    -0.273 OA
ATOM      5  O   UNL     1      -2.833  -0.709  25.886  0.00  0.00    -0.252 OA
ATOM      8  N   UNL     1      -0.762  -0.411  24.882  0.00  0.00    -0.273 N 
ATOM      9  N   UNL     1      -2.146   1.349  24.935  0.00  0.00    -0.193 N 
ATOM     13  C   UNL     1      -0.024   0.607  24.188  0.00  0.00    +0.166 C 
ATOM     14  C   UNL     1       0.313   0.164  22.768  0.00  0.00    +0.054 C 
ATOM     15  C   UNL     1       0.949  -1.237  22.743  0.00  0.00    +0.077 C 
ATOM     16  C   UNL     1       0.105  -2.252  23.534  0.00  0.00    +0.041 C 
ATOM     17  C   UNL     1      -0.226  -1.760  24.944  0.00  0.00    +0.112 C 
ATOM     18  C   UNL     1      -1.014   1.757  24.237  0.00  0.00    +0.248 C 
ATOM     19  C   UNL     1      -2.017   0.011  25.323  0.00  0.00    +0.316 C 
ENDROOT
BRANCH   9  20
ATOM     20  C   UNL     1      -3.290   2.169  25.197  0.00  0.00    +0.046 A 
ATOM     22  C   UNL     1      -3.148   3.367  25.900  0.00  0.00    +0.027 A 
ATOM     23  C   UNL     1      -4.553   1.773  24.753  0.00  0.00    +0.027 A 
ATOM     25  C   UNL     1      -4.263   4.166  26.157  0.00  0.00    +0.048 A 
ATOM     26  C   UNL     1      -5.669   2.571  25.009  0.00  0.00    +0.048 A 
ATOM     27  C   UNL     1      -5.523   3.767  25.711  0.00  0.00    +0.130 A 
BRANCH  27   7
ATOM      7  O   UNL     1      -6.611   4.548  25.960  0.00  0.00    -0.406 OA
BRANCH   7  31
ATOM      1  F   UNL     1      -5.627   5.954  24.493  0.00  0.00    -0.133 F 
ATOM      2  F   UNL     1      -7.807   5.798  24.463  0.00  0.00    -0.133 F 
ATOM      3  F   UNL     1      -6.782   6.821  26.133  0.00  0.00    -0.133 F 
ATOM     31  C   UNL     1      -6.723   5.786  25.268  0.00  0.00    +0.575 C 
ENDBRANCH   7  31
ENDBRANCH  27   7
ENDBRANCH   9  20
BRANCH  15  10
ATOM      6  O   UNL     1       2.957   0.708  22.091  0.00  0.00    -0.268 OA
ATOM     10  N   UNL     1       2.308  -1.203  23.232  0.00  0.00    -0.307 N 
ATOM     21  C   UNL     1       3.208  -0.218  22.857  0.00  0.00    +0.264 C 
ATOM     32  H   UNL     1       2.628  -1.958  23.832  0.00  0.00    +0.149 HD
BRANCH  21  24
ATOM     11  N   UNL     1       5.294   0.783  23.423  0.00  0.00    -0.247 NA
ATOM     12  N   UNL     1       6.250  -1.656  24.424  0.00  0.00    -0.259 NA
ATOM     24  C   UNL     1       4.575  -0.339  23.427  0.00  0.00    +0.143 A 
ATOM     28  C   UNL     1       5.013  -1.534  23.905  0.00  0.00    +0.143 A 
ATOM     29  C   UNL     1       6.532   0.661  23.943  0.00  0.00    +0.131 A 
ATOM     30  C   UNL     1       7.001  -0.537  24.434  0.00  0.00    +0.130 A 
ENDBRANCH  21  24
ENDBRANCH  15  10
TORSDOF 5
ENDMDL
