MODEL 1
REMARK VINA RESULT:       8.5      0.000      0.000
REMARK  Name = 44716366
REMARK  13 active torsions:
REMARK  status: ('A' for Active; 'I' for Inactive)
REMARK    1  A    between atoms: O_1  and  C_18
REMARK    2  A    between atoms: O_1  and  C_23
REMARK    3  A    between atoms: O_3  and  C_26
REMARK    4  A    between atoms: O_3  and  C_34
REMARK    5  A    between atoms: O_4  and  C_29
REMARK    6  A    between atoms: O_4  and  C_36
REMARK    7  A    between atoms: N_7  and  C_21
REMARK    8  A    between atoms: N_9  and  C_28
REMARK    9  A    between atoms: C_11  and  C_17
REMARK   10  A    between atoms: C_12  and  C_18
REMARK   11  A    between atoms: C_20  and  C_22
REMARK   12  A    between atoms: C_35  and  C_37
REMARK   13  A    between atoms: C_37  and  C_38
REMARK                            x       y       z     vdW  Elec       q    Type
REMARK                         _______ _______ _______ _____ _____    ______ ____
ROOT
ATOM      6  N   UNL     1      -5.512   2.665  26.223  0.00  0.00    -0.296 NA
ATOM     10  C   UNL     1      -5.330   1.233  24.055  0.00  0.00    +0.002 C 
ATOM     11  C   UNL     1      -4.413   0.654  25.168  0.00  0.00    +0.055 C 
ATOM     12  C   UNL     1      -5.265   3.545  25.051  0.00  0.00    +0.095 C 
ATOM     13  C   UNL     1      -4.949   2.705  23.796  0.00  0.00    +0.026 C 
ATOM     14  C   UNL     1      -6.768   1.229  24.617  0.00  0.00    +0.019 C 
ATOM     15  C   UNL     1      -4.420   1.667  26.348  0.00  0.00    +0.094 C 
ATOM     16  C   UNL     1      -6.781   1.935  25.984  0.00  0.00    +0.085 C 
ENDROOT
BRANCH  11  17
ATOM      7  N   UNL     1      -2.601  -1.080  24.782  0.00  0.00    -0.270 N 
ATOM      8  N   UNL     1      -1.319  -1.250  24.416  0.00  0.00    -0.171 NA
ATOM     17  C   UNL     1      -3.004   0.223  24.786  0.00  0.00    +0.044 A 
ATOM     19  C   UNL     1      -1.911   0.956  24.396  0.00  0.00    +0.053 A 
ATOM     20  C   UNL     1      -0.902  -0.003  24.181  0.00  0.00    +0.093 A 
ATOM     21  C   UNL     1      -3.396  -2.236  25.125  0.00  0.00    +0.172 C 
BRANCH  20  22
ATOM     22  C   UNL     1       0.451   0.249  23.757  0.00  0.00    +0.006 A 
ATOM     24  C   UNL     1       1.335  -0.814  23.579  0.00  0.00    +0.059 A 
ATOM     25  C   UNL     1       0.876   1.558  23.528  0.00  0.00    +0.014 A 
ATOM     26  C   UNL     1       2.646  -0.569  23.169  0.00  0.00    +0.162 A 
ATOM     27  C   UNL     1       2.188   1.802  23.118  0.00  0.00    +0.050 A 
ATOM     29  C   UNL     1       3.072   0.739  22.939  0.00  0.00    +0.162 A 
BRANCH  26   3
ATOM      3  O   UNL     1       3.501  -1.616  22.998  0.00  0.00    -0.491 OA
ATOM     34  C   UNL     1       4.481  -1.825  24.012  0.00  0.00    +0.277 C 
ENDBRANCH  26   3
BRANCH  29   4
ATOM      4  O   UNL     1       4.350   0.990  22.538  0.00  0.00    -0.491 OA
ATOM     36  C   UNL     1       5.381   0.793  23.504  0.00  0.00    +0.277 C 
ENDBRANCH  29   4
ENDBRANCH  20  22
ENDBRANCH  11  17
BRANCH  12  18
ATOM     18  C   UNL     1      -4.182   4.591  25.326  0.00  0.00    +0.252 C 
BRANCH  18   1
ATOM      1  O   UNL     1      -3.084   4.331  24.475  0.00  0.00    -0.449 OA
BRANCH   1  23
ATOM      2  O   UNL     1      -0.908   5.010  24.657  0.00  0.00    -0.226 OA
ATOM      9  N   UNL     1      -1.834   3.433  26.118  0.00  0.00    -0.251 N 
ATOM     23  C   UNL     1      -1.837   4.319  25.058  0.00  0.00    +0.405 C 
ATOM     39  H   UNL     1      -2.709   2.946  26.299  0.00  0.00    +0.158 HD
BRANCH   9  28
ATOM     28  C   UNL     1      -0.764   3.116  26.986  0.00  0.00    +0.036 A 
ATOM     30  C   UNL     1       0.494   2.818  26.461  0.00  0.00    +0.024 A 
ATOM     31  C   UNL     1      -0.967   3.100  28.366  0.00  0.00    +0.024 A 
ATOM     32  C   UNL     1       1.549   2.504  27.318  0.00  0.00    +0.013 A 
ATOM     33  C   UNL     1       0.089   2.786  29.222  0.00  0.00    +0.013 A 
ATOM     35  C   UNL     1       1.347   2.487  28.698  0.00  0.00    +0.017 A 
BRANCH  35  37
ATOM      5  O   UNL     1       2.246   1.638  30.707  0.00  0.00    -0.292 OA
ATOM     37  C   UNL     1       2.447   2.158  29.591  0.00  0.00    +0.160 C 
ATOM     38  C   UNL     1       3.885   2.446  29.176  0.00  0.00    +0.091 C 
ENDBRANCH  35  37
ENDBRANCH   9  28
ENDBRANCH   1  23
ENDBRANCH  18   1
ENDBRANCH  12  18
TORSDOF 9
ENDMDL
MODEL 2
REMARK VINA RESULT:      12.5      2.938      4.692
REMARK  Name = 44716366
REMARK  13 active torsions:
REMARK  status: ('A' for Active; 'I' for Inactive)
REMARK    1  A    between atoms: O_1  and  C_18
REMARK    2  A    between atoms: O_1  and  C_23
REMARK    3  A    between atoms: O_3  and  C_26
REMARK    4  A    between atoms: O_3  and  C_34
REMARK    5  A    between atoms: O_4  and  C_29
REMARK    6  A    between atoms: O_4  and  C_36
REMARK    7  A    between atoms: N_7  and  C_21
REMARK    8  A    between atoms: N_9  and  C_28
REMARK    9  A    between atoms: C_11  and  C_17
REMARK   10  A    between atoms: C_12  and  C_18
REMARK   11  A    between atoms: C_20  and  C_22
REMARK   12  A    between atoms: C_35  and  C_37
REMARK   13  A    between atoms: C_37  and  C_38
REMARK                            x       y       z     vdW  Elec       q    Type
REMARK                         _______ _______ _______ _____ _____    ______ ____
ROOT
ATOM      6  N   UNL     1      -4.935   5.110  25.079  0.00  0.00    -0.296 NA
ATOM     10  C   UNL     1      -3.127   3.888  26.502  0.00  0.00    +0.002 C 
ATOM     11  C   UNL     1      -2.559   4.261  25.105  0.00  0.00    +0.055 C 
ATOM     12  C   UNL     1      -5.498   3.860  25.652  0.00  0.00    +0.095 C 
ATOM     13  C   UNL     1      -4.391   3.020  26.323  0.00  0.00    +0.026 C 
ATOM     14  C   UNL     1      -3.574   5.207  27.168  0.00  0.00    +0.019 C 
ATOM     15  C   UNL     1      -3.743   4.798  24.251  0.00  0.00    +0.094 C 
ATOM     16  C   UNL     1      -4.502   5.971  26.206  0.00  0.00    +0.085 C 
ENDROOT
BRANCH  11  17
ATOM      7  N   UNL     1      -2.191   2.569  23.250  0.00  0.00    -0.270 N 
ATOM      8  N   UNL     1      -1.315   1.685  22.743  0.00  0.00    -0.171 NA
ATOM     17  C   UNL     1      -1.737   3.217  24.361  0.00  0.00    +0.044 A 
ATOM     19  C   UNL     1      -0.478   2.724  24.597  0.00  0.00    +0.053 A 
ATOM     20  C   UNL     1      -0.271   1.784  23.569  0.00  0.00    +0.093 A 
ATOM     21  C   UNL     1      -3.472   2.742  22.607  0.00  0.00    +0.172 C 
BRANCH  20  22
ATOM     22  C   UNL     1       0.905   0.978  23.363  0.00  0.00    +0.006 A 
ATOM     24  C   UNL     1       2.164   1.576  23.338  0.00  0.00    +0.059 A 
ATOM     25  C   UNL     1       0.783  -0.400  23.185  0.00  0.00    +0.014 A 
ATOM     26  C   UNL     1       3.303   0.795  23.138  0.00  0.00    +0.162 A 
ATOM     27  C   UNL     1       1.922  -1.180  22.984  0.00  0.00    +0.050 A 
ATOM     29  C   UNL     1       3.181  -0.582  22.961  0.00  0.00    +0.162 A 
BRANCH  26   3
ATOM      3  O   UNL     1       4.528   1.391  23.117  0.00  0.00    -0.491 OA
ATOM     34  C   UNL     1       5.528   0.848  23.977  0.00  0.00    +0.277 C 
ENDBRANCH  26   3
BRANCH  29   4
ATOM      4  O   UNL     1       4.287  -1.355  22.764  0.00  0.00    -0.491 OA
ATOM     36  C   UNL     1       4.752  -2.114  23.879  0.00  0.00    +0.277 C 
ENDBRANCH  29   4
ENDBRANCH  20  22
ENDBRANCH  11  17
BRANCH  12  18
ATOM     18  C   UNL     1      -6.283   3.048  24.619  0.00  0.00    +0.252 C 
BRANCH  18   1
ATOM      1  O   UNL     1      -6.841   1.921  25.266  0.00  0.00    -0.449 OA
BRANCH   1  23
ATOM      2  O   UNL     1      -5.973   0.481  26.817  0.00  0.00    -0.226 OA
ATOM      9  N   UNL     1      -5.112   0.620  24.645  0.00  0.00    -0.251 N 
ATOM     23  C   UNL     1      -5.960   0.949  25.684  0.00  0.00    +0.405 C 
ATOM     39  H   UNL     1      -5.257   1.121  23.771  0.00  0.00    +0.158 HD
BRANCH   9  28
ATOM     28  C   UNL     1      -4.062  -0.327  24.643  0.00  0.00    +0.036 A 
ATOM     30  C   UNL     1      -2.883  -0.062  25.338  0.00  0.00    +0.024 A 
ATOM     31  C   UNL     1      -4.208  -1.526  23.946  0.00  0.00    +0.024 A 
ATOM     32  C   UNL     1      -1.847  -0.997  25.335  0.00  0.00    +0.013 A 
ATOM     33  C   UNL     1      -3.172  -2.461  23.943  0.00  0.00    +0.013 A 
ATOM     35  C   UNL     1      -1.992  -2.196  24.637  0.00  0.00    +0.017 A 
BRANCH  35  37
ATOM      5  O   UNL     1      -0.885  -4.109  23.812  0.00  0.00    -0.292 OA
ATOM     37  C   UNL     1      -0.911  -3.170  24.632  0.00  0.00    +0.160 C 
ATOM     38  C   UNL     1       0.225  -3.062  25.643  0.00  0.00    +0.091 C 
ENDBRANCH  35  37
ENDBRANCH   9  28
ENDBRANCH   1  23
ENDBRANCH  18   1
ENDBRANCH  12  18
TORSDOF 9
ENDMDL
