MODEL 1
REMARK VINA RESULT:       9.9      0.000      0.000
REMARK  Name = 11882950
REMARK  13 active torsions:
REMARK  status: ('A' for Active; 'I' for Inactive)
REMARK    1  A    between atoms: O_2  and  C_15
REMARK    2  A    between atoms: O_3  and  C_20
REMARK    3  A    between atoms: O_6  and  C_30
REMARK    4  A    between atoms: O_6  and  C_32
REMARK    5  A    between atoms: N_8  and  C_26
REMARK    6  A    between atoms: N_8  and  C_27
REMARK    7  A    between atoms: C_10  and  C_18
REMARK    8  A    between atoms: C_12  and  C_20
REMARK    9  A    between atoms: C_12  and  C_21
REMARK   10  A    between atoms: C_13  and  C_23
REMARK   11  A    between atoms: C_23  and  C_24
REMARK   12  A    between atoms: C_26  and  C_29
REMARK   13  A    between atoms: C_28  and  C_30
REMARK                            x       y       z     vdW  Elec       q    Type
REMARK                         _______ _______ _______ _____ _____    ______ ____
ROOT
ATOM      1  S   UNL     1       0.505   2.102  24.452  0.00  0.00    -0.057 S 
ATOM      5  O   UNL     1       0.853  -0.749  20.777  0.00  0.00    -0.272 OA
ATOM      7  N   UNL     1      -0.839   0.773  22.686  0.00  0.00    -0.229 NA
ATOM      9  N   UNL     1       1.563   0.615  22.569  0.00  0.00    -0.262 N 
ATOM     10  C   UNL     1      -4.054   1.797  24.551  0.00  0.00    -0.019 C 
ATOM     11  C   UNL     1      -3.426   3.177  25.038  0.00  0.00    +0.011 C 
ATOM     12  C   UNL     1      -4.299   4.055  26.016  0.00  0.00    +0.021 C 
ATOM     13  C   UNL     1      -3.234   1.306  23.271  0.00  0.00    +0.054 C 
ATOM     14  C   UNL     1      -5.530   2.022  24.131  0.00  0.00    +0.010 C 
ATOM     15  C   UNL     1      -5.752   4.139  25.471  0.00  0.00    +0.123 C 
ATOM     16  C   UNL     1      -1.951   2.999  25.502  0.00  0.00    +0.049 C 
ATOM     17  C   UNL     1      -6.358   2.774  25.162  0.00  0.00    +0.032 C 
ATOM     18  C   UNL     1      -4.011   0.698  25.643  0.00  0.00    +0.012 C 
ATOM     19  C   UNL     1      -1.749   1.417  23.503  0.00  0.00    +0.058 A 
ATOM     21  C   UNL     1      -3.730   5.502  26.041  0.00  0.00    +0.016 C 
ATOM     22  C   UNL     1      -1.194   2.196  24.498  0.00  0.00    +0.015 A 
ATOM     25  C   UNL     1       0.378   1.055  23.096  0.00  0.00    +0.165 A 
ATOM     28  C   UNL     1       1.731  -0.242  21.466  0.00  0.00    +0.256 C 
ATOM     40  H   UNL     1       2.397   0.957  23.041  0.00  0.00    +0.157 HD
ENDROOT
BRANCH  15   2
ATOM      2  O   UNL     1      -6.598   4.818  26.398  0.00  0.00    -0.391 OA
ATOM     38  H   UNL     1      -6.080   5.001  27.200  0.00  0.00    +0.210 HD
ENDBRANCH  15   2
BRANCH  12  20
ATOM     20  C   UNL     1      -4.288   3.580  27.486  0.00  0.00    +0.165 C 
BRANCH  20   3
ATOM      3  O   UNL     1      -3.211   4.213  28.137  0.00  0.00    -0.394 OA
ATOM     39  H   UNL     1      -3.143   3.847  29.035  0.00  0.00    +0.209 HD
ENDBRANCH  20   3
ENDBRANCH  12  20
BRANCH  13  23
ATOM     23  C   UNL     1      -3.620  -0.089  22.762  0.00  0.00    +0.106 C 
BRANCH  23  24
ATOM      4  O   UNL     1      -5.137  -1.013  24.372  0.00  0.00    -0.276 OA
ATOM      8  N   UNL     1      -2.988  -1.884  24.335  0.00  0.00    -0.301 N 
ATOM     24  C   UNL     1      -4.001  -1.026  23.892  0.00  0.00    +0.216 C 
ATOM     27  C   UNL     1      -1.651  -1.881  23.752  0.00  0.00    +0.132 C 
BRANCH   8  26
ATOM     26  C   UNL     1      -3.194  -2.847  25.414  0.00  0.00    +0.134 C 
BRANCH  26  29
ATOM     29  C   UNL     1      -2.863  -2.198  26.717  0.00  0.00    -0.016 C 
ATOM     31  C   UNL     1      -1.966  -1.216  26.855  0.00  0.00    +0.005 C 
ENDBRANCH  26  29
ENDBRANCH   8  26
ENDBRANCH  23  24
ENDBRANCH  13  23
BRANCH  28  30
ATOM     30  C   UNL     1       3.201  -0.499  21.186  0.00  0.00    +0.324 C 
BRANCH  30   6
ATOM      6  O   UNL     1       4.009   0.489  21.789  0.00  0.00    -0.483 OA
BRANCH   6  32
ATOM     32  C   UNL     1       4.694   0.132  22.926  0.00  0.00    +0.121 A 
ATOM     33  C   UNL     1       5.360   1.107  23.656  0.00  0.00    +0.045 A 
ATOM     34  C   UNL     1       4.711  -1.196  23.327  0.00  0.00    +0.045 A 
ATOM     35  C   UNL     1       6.056   0.745  24.810  0.00  0.00    +0.004 A 
ATOM     36  C   UNL     1       5.407  -1.558  24.480  0.00  0.00    +0.004 A 
ATOM     37  C   UNL     1       6.080  -0.587  25.222  0.00  0.00    +0.000 A 
ENDBRANCH   6  32
ENDBRANCH  30   6
ENDBRANCH  28  30
TORSDOF 10
ENDMDL
MODEL 2
REMARK VINA RESULT:      11.2      1.819      7.729
REMARK  Name = 11882950
REMARK  13 active torsions:
REMARK  status: ('A' for Active; 'I' for Inactive)
REMARK    1  A    between atoms: O_2  and  C_15
REMARK    2  A    between atoms: O_3  and  C_20
REMARK    3  A    between atoms: O_6  and  C_30
REMARK    4  A    between atoms: O_6  and  C_32
REMARK    5  A    between atoms: N_8  and  C_26
REMARK    6  A    between atoms: N_8  and  C_27
REMARK    7  A    between atoms: C_10  and  C_18
REMARK    8  A    between atoms: C_12  and  C_20
REMARK    9  A    between atoms: C_12  and  C_21
REMARK   10  A    between atoms: C_13  and  C_23
REMARK   11  A    between atoms: C_23  and  C_24
REMARK   12  A    between atoms: C_26  and  C_29
REMARK   13  A    between atoms: C_28  and  C_30
REMARK                            x       y       z     vdW  Elec       q    Type
REMARK                         _______ _______ _______ _____ _____    ______ ____
ROOT
ATOM      1  S   UNL     1      -1.809   2.124  23.048  0.00  0.00    -0.057 S 
ATOM      5  O   UNL     1      -4.674   0.339  26.267  0.00  0.00    -0.272 OA
ATOM      7  N   UNL     1      -2.024   0.357  24.926  0.00  0.00    -0.229 NA
ATOM      9  N   UNL     1      -3.955   1.736  24.504  0.00  0.00    -0.262 N 
ATOM     10  C   UNL     1       1.454  -0.959  23.907  0.00  0.00    -0.019 C 
ATOM     11  C   UNL     1       1.945   0.479  23.432  0.00  0.00    +0.011 C 
ATOM     12  C   UNL     1       3.368   0.562  22.755  0.00  0.00    +0.021 C 
ATOM     13  C   UNL     1       0.241  -0.753  24.926  0.00  0.00    +0.054 C 
ATOM     14  C   UNL     1       2.607  -1.676  24.656  0.00  0.00    +0.010 C 
ATOM     15  C   UNL     1       4.389  -0.244  23.606  0.00  0.00    +0.123 C 
ATOM     16  C   UNL     1       0.832   1.230  22.645  0.00  0.00    +0.049 C 
ATOM     17  C   UNL     1       3.930  -1.667  23.906  0.00  0.00    +0.032 C 
ATOM     18  C   UNL     1       0.992  -1.855  22.731  0.00  0.00    +0.012 C 
ATOM     19  C   UNL     1      -0.754   0.243  24.390  0.00  0.00    +0.058 A 
ATOM     21  C   UNL     1       3.841   2.044  22.747  0.00  0.00    +0.016 C 
ATOM     22  C   UNL     1      -0.463   1.136  23.379  0.00  0.00    +0.015 A 
ATOM     25  C   UNL     1      -2.671   1.310  24.291  0.00  0.00    +0.165 A 
ATOM     28  C   UNL     1      -4.863   1.239  25.457  0.00  0.00    +0.256 C 
ATOM     40  H   UNL     1      -4.263   2.493  23.899  0.00  0.00    +0.157 HD
ENDROOT
BRANCH  15   2
ATOM      2  O   UNL     1       5.657  -0.297  22.954  0.00  0.00    -0.391 OA
ATOM     38  H   UNL     1       5.648  -1.052  22.342  0.00  0.00    +0.210 HD
ENDBRANCH  15   2
BRANCH  12  20
ATOM     20  C   UNL     1       3.403   0.108  21.279  0.00  0.00    +0.165 C 
BRANCH  20   3
ATOM      3  O   UNL     1       2.076  -0.128  20.868  0.00  0.00    -0.394 OA
ATOM     39  H   UNL     1       1.883  -1.072  20.997  0.00  0.00    +0.209 HD
ENDBRANCH  20   3
ENDBRANCH  12  20
BRANCH  13  23
ATOM     23  C   UNL     1      -0.447  -2.051  25.369  0.00  0.00    +0.106 C 
BRANCH  23  24
ATOM      4  O   UNL     1      -1.249  -2.673  23.198  0.00  0.00    -0.276 OA
ATOM      8  N   UNL     1      -2.791  -2.690  24.930  0.00  0.00    -0.301 N 
ATOM     24  C   UNL     1      -1.515  -2.497  24.389  0.00  0.00    +0.216 C 
ATOM     27  C   UNL     1      -3.082  -2.475  26.342  0.00  0.00    +0.132 C 
BRANCH   8  26
ATOM     26  C   UNL     1      -3.928  -3.120  24.119  0.00  0.00    +0.134 C 
BRANCH  26  29
ATOM     29  C   UNL     1      -4.674  -1.916  23.648  0.00  0.00    -0.016 C 
ATOM     31  C   UNL     1      -4.133  -0.946  22.901  0.00  0.00    +0.005 C 
ENDBRANCH  26  29
ENDBRANCH   8  26
ENDBRANCH  23  24
ENDBRANCH  13  23
BRANCH  28  30
ATOM     30  C   UNL     1      -6.192   1.971  25.386  0.00  0.00    +0.324 C 
BRANCH  30   6
ATOM      6  O   UNL     1      -6.044   3.322  25.765  0.00  0.00    -0.483 OA
BRANCH   6  32
ATOM     32  C   UNL     1      -4.797   3.883  25.618  0.00  0.00    +0.121 A 
ATOM     33  C   UNL     1      -3.890   3.816  26.666  0.00  0.00    +0.045 A 
ATOM     34  C   UNL     1      -4.465   4.507  24.424  0.00  0.00    +0.045 A 
ATOM     35  C   UNL     1      -2.626   4.385  26.517  0.00  0.00    +0.004 A 
ATOM     36  C   UNL     1      -3.200   5.076  24.275  0.00  0.00    +0.004 A 
ATOM     37  C   UNL     1      -2.280   5.015  25.322  0.00  0.00    +0.000 A 
ENDBRANCH   6  32
ENDBRANCH  30   6
ENDBRANCH  28  30
TORSDOF 10
ENDMDL
MODEL 3
REMARK VINA RESULT:      11.7      1.987      2.622
REMARK  Name = 11882950
REMARK  13 active torsions:
REMARK  status: ('A' for Active; 'I' for Inactive)
REMARK    1  A    between atoms: O_2  and  C_15
REMARK    2  A    between atoms: O_3  and  C_20
REMARK    3  A    between atoms: O_6  and  C_30
REMARK    4  A    between atoms: O_6  and  C_32
REMARK    5  A    between atoms: N_8  and  C_26
REMARK    6  A    between atoms: N_8  and  C_27
REMARK    7  A    between atoms: C_10  and  C_18
REMARK    8  A    between atoms: C_12  and  C_20
REMARK    9  A    between atoms: C_12  and  C_21
REMARK   10  A    between atoms: C_13  and  C_23
REMARK   11  A    between atoms: C_23  and  C_24
REMARK   12  A    between atoms: C_26  and  C_29
REMARK   13  A    between atoms: C_28  and  C_30
REMARK                            x       y       z     vdW  Elec       q    Type
REMARK                         _______ _______ _______ _____ _____    ______ ____
ROOT
ATOM      1  S   UNL     1       1.166   3.188  23.428  0.00  0.00    -0.057 S 
ATOM      5  O   UNL     1       2.992  -1.104  23.513  0.00  0.00    -0.272 OA
ATOM      7  N   UNL     1       0.699   0.714  24.026  0.00  0.00    -0.229 NA
ATOM      9  N   UNL     1       2.885   1.227  23.150  0.00  0.00    -0.262 N 
ATOM     10  C   UNL     1      -2.688   1.840  25.484  0.00  0.00    -0.019 C 
ATOM     11  C   UNL     1      -2.819   3.046  24.453  0.00  0.00    +0.011 C 
ATOM     12  C   UNL     1      -4.046   4.020  24.643  0.00  0.00    +0.021 C 
ATOM     13  C   UNL     1      -1.680   0.768  24.862  0.00  0.00    +0.054 C 
ATOM     14  C   UNL     1      -4.071   1.164  25.666  0.00  0.00    +0.010 C 
ATOM     15  C   UNL     1      -5.337   3.182  24.858  0.00  0.00    +0.123 C 
ATOM     16  C   UNL     1      -1.460   3.781  24.258  0.00  0.00    +0.049 C 
ATOM     17  C   UNL     1      -5.201   2.139  25.962  0.00  0.00    +0.032 C 
ATOM     18  C   UNL     1      -2.168   2.290  26.872  0.00  0.00    +0.012 C 
ATOM     19  C   UNL     1      -0.442   1.436  24.323  0.00  0.00    +0.058 A 
ATOM     21  C   UNL     1      -4.243   4.847  23.341  0.00  0.00    +0.016 C 
ATOM     22  C   UNL     1      -0.370   2.786  24.042  0.00  0.00    +0.015 A 
ATOM     25  C   UNL     1       1.613   1.534  23.555  0.00  0.00    +0.165 A 
ATOM     28  C   UNL     1       3.490  -0.043  23.152  0.00  0.00    +0.256 C 
ATOM     40  H   UNL     1       3.432   2.017  22.816  0.00  0.00    +0.157 HD
ENDROOT
BRANCH  15   2
ATOM      2  O   UNL     1      -6.443   4.030  25.162  0.00  0.00    -0.391 OA
ATOM     38  H   UNL     1      -7.167   3.811  24.551  0.00  0.00    +0.210 HD
ENDBRANCH  15   2
BRANCH  12  20
ATOM     20  C   UNL     1      -3.871   5.059  25.773  0.00  0.00    +0.165 C 
BRANCH  20   3
ATOM      3  O   UNL     1      -2.504   5.398  25.839  0.00  0.00    -0.394 OA
ATOM     39  H   UNL     1      -2.379   6.242  25.374  0.00  0.00    +0.209 HD
ENDBRANCH  20   3
ENDBRANCH  12  20
BRANCH  13  23
ATOM     23  C   UNL     1      -1.328  -0.395  25.798  0.00  0.00    +0.106 C 
BRANCH  23  24
ATOM      4  O   UNL     1      -3.282  -1.495  26.647  0.00  0.00    -0.276 OA
ATOM      8  N   UNL     1      -2.286  -2.426  24.770  0.00  0.00    -0.301 N 
ATOM     24  C   UNL     1      -2.392  -1.477  25.793  0.00  0.00    +0.216 C 
ATOM     27  C   UNL     1      -1.225  -2.384  23.772  0.00  0.00    +0.132 C 
BRANCH   8  26
ATOM     26  C   UNL     1      -3.233  -3.530  24.627  0.00  0.00    +0.134 C 
BRANCH  26  29
ATOM     29  C   UNL     1      -4.416  -3.060  23.846  0.00  0.00    -0.016 C 
ATOM     31  C   UNL     1      -4.628  -1.783  23.509  0.00  0.00    +0.005 C 
ENDBRANCH  26  29
ENDBRANCH   8  26
ENDBRANCH  23  24
ENDBRANCH  13  23
BRANCH  28  30
ATOM     30  C   UNL     1       4.913   0.023  22.627  0.00  0.00    +0.324 C 
BRANCH  30   6
ATOM      6  O   UNL     1       5.837   0.131  23.688  0.00  0.00    -0.483 OA
BRANCH   6  32
ATOM     32  C   UNL     1       7.168  -0.028  23.381  0.00  0.00    +0.121 A 
ATOM     33  C   UNL     1       7.559  -1.081  22.566  0.00  0.00    +0.045 A 
ATOM     34  C   UNL     1       8.099   0.865  23.891  0.00  0.00    +0.045 A 
ATOM     35  C   UNL     1       8.909  -1.243  22.255  0.00  0.00    +0.004 A 
ATOM     36  C   UNL     1       9.449   0.703  23.581  0.00  0.00    +0.004 A 
ATOM     37  C   UNL     1       9.855  -0.351  22.762  0.00  0.00    +0.000 A 
ENDBRANCH   6  32
ENDBRANCH  30   6
ENDBRANCH  28  30
TORSDOF 10
ENDMDL
