MODEL 1
REMARK VINA RESULT:       5.6      0.000      0.000
REMARK  Name = 45361383
REMARK  13 active torsions:
REMARK  status: ('A' for Active; 'I' for Inactive)
REMARK    1  A    between atoms: O_1  and  C_11
REMARK    2  A    between atoms: O_4  and  C_28
REMARK    3  A    between atoms: O_4  and  C_34
REMARK    4  A    between atoms: O_5  and  C_35
REMARK    5  A    between atoms: O_5  and  C_36
REMARK    6  A    between atoms: N_6  and  C_15
REMARK    7  A    between atoms: C_8  and  C_18
REMARK    8  A    between atoms: C_10  and  C_20
REMARK    9  A    between atoms: C_13  and  C_19
REMARK   10  A    between atoms: C_19  and  C_21
REMARK   11  A    between atoms: C_19  and  C_22
REMARK   12  A    between atoms: C_23  and  C_29
REMARK   13  A    between atoms: C_24  and  C_28
REMARK                            x       y       z     vdW  Elec       q    Type
REMARK                         _______ _______ _______ _____ _____    ______ ____
ROOT
ATOM      8  C   UNL     1      -2.871  -1.235  24.860  0.00  0.00    -0.027 C 
ATOM      9  C   UNL     1      -2.448   0.018  24.023  0.00  0.00    +0.028 C 
ATOM     10  C   UNL     1      -0.895   0.247  24.108  0.00  0.00    +0.012 C 
ATOM     11  C   UNL     1      -3.325   1.254  24.373  0.00  0.00    +0.122 C 
ATOM     12  C   UNL     1      -4.384  -1.498  24.664  0.00  0.00    +0.007 C 
ATOM     13  C   UNL     1      -4.839   0.954  24.277  0.00  0.00    +0.029 C 
ATOM     14  C   UNL     1      -2.107  -2.473  24.337  0.00  0.00    +0.009 C 
ATOM     15  C   UNL     1      -0.137  -1.031  23.651  0.00  0.00    +0.076 C 
ATOM     16  C   UNL     1      -5.249  -0.303  25.043  0.00  0.00    +0.007 C 
ATOM     17  C   UNL     1      -0.595  -2.299  24.370  0.00  0.00    +0.023 C 
ATOM     18  C   UNL     1      -2.588  -1.062  26.374  0.00  0.00    +0.011 C 
ATOM     20  C   UNL     1      -0.404   1.449  23.283  0.00  0.00    +0.010 C 
ENDROOT
BRANCH  15   6
ATOM      3  O   UNL     1       1.760  -0.173  21.674  0.00  0.00    -0.270 OA
ATOM      6  N   UNL     1       1.294  -0.897  23.826  0.00  0.00    -0.308 N 
ATOM     23  C   UNL     1       2.129  -0.473  22.807  0.00  0.00    +0.244 C 
ATOM     37  H   UNL     1       1.682  -1.237  24.700  0.00  0.00    +0.149 HD
BRANCH  23  29
ATOM     29  C   UNL     1       3.575  -0.413  23.138  0.00  0.00    +0.037 A 
ATOM     30  C   UNL     1       4.312   0.734  22.844  0.00  0.00    +0.016 A 
ATOM     31  C   UNL     1       4.197  -1.505  23.744  0.00  0.00    +0.016 A 
ATOM     32  C   UNL     1       5.671   0.788  23.154  0.00  0.00    +0.046 A 
ATOM     33  C   UNL     1       5.556  -1.450  24.054  0.00  0.00    +0.046 A 
ATOM     35  C   UNL     1       6.293  -0.304  23.759  0.00  0.00    +0.120 A 
BRANCH  35   5
ATOM      5  O   UNL     1       7.619  -0.251  24.062  0.00  0.00    -0.495 OA
ATOM     36  C   UNL     1       8.535  -0.243  22.968  0.00  0.00    +0.277 C 
ENDBRANCH  35   5
ENDBRANCH  23  29
ENDBRANCH  15   6
BRANCH  11   1
ATOM      1  O   UNL     1      -3.057   2.307  23.447  0.00  0.00    -0.391 OA
ATOM     38  H   UNL     1      -3.078   1.933  22.550  0.00  0.00    +0.210 HD
ENDBRANCH  11   1
BRANCH  13  19
ATOM     19  C   UNL     1      -5.686   2.141  24.750  0.00  0.00    +0.078 C 
ATOM     22  C   UNL     1      -5.932   3.124  23.620  0.00  0.00    +0.017 C 
BRANCH  19  21
ATOM      2  O   UNL     1      -5.237   2.546  27.052  0.00  0.00    -0.275 OA
ATOM      7  N   UNL     1      -4.011   3.758  25.509  0.00  0.00    -0.296 N 
ATOM     21  C   UNL     1      -4.966   2.826  25.884  0.00  0.00    +0.219 C 
ATOM     24  C   UNL     1      -3.289   4.582  26.480  0.00  0.00    +0.102 C 
ATOM     25  C   UNL     1      -3.657   4.121  24.140  0.00  0.00    +0.108 C 
ATOM     26  C   UNL     1      -2.707   5.717  25.633  0.00  0.00    +0.026 C 
ATOM     27  C   UNL     1      -2.468   5.060  24.279  0.00  0.00    +0.021 C 
BRANCH  24  28
ATOM     28  C   UNL     1      -2.202   3.781  27.195  0.00  0.00    +0.181 C 
BRANCH  28   4
ATOM      4  O   UNL     1      -1.513   3.004  26.233  0.00  0.00    -0.381 OA
ATOM     34  C   UNL     1      -0.192   2.688  26.659  0.00  0.00    +0.194 C 
ENDBRANCH  28   4
ENDBRANCH  24  28
ENDBRANCH  19  21
ENDBRANCH  13  19
TORSDOF 8
ENDMDL
