MODEL 1
REMARK VINA RESULT:      -4.9      0.000      0.000
REMARK  Name = 7049358
REMARK  15 active torsions:
REMARK  status: ('A' for Active; 'I' for Inactive)
REMARK    1  A    between atoms: O_1  and  C_10
REMARK    2  A    between atoms: O_2  and  C_12
REMARK    3  A    between atoms: N_6  and  C_11
REMARK    4  A    between atoms: N_7  and  C_18
REMARK    5  A    between atoms: N_8  and  C_17
REMARK    6  A    between atoms: C_14  and  C_16
REMARK    7  A    between atoms: C_17  and  C_19
REMARK    8  A    between atoms: C_17  and  C_21
REMARK    9  A    between atoms: C_18  and  C_20
REMARK   10  A    between atoms: C_18  and  C_25
REMARK   11  A    between atoms: C_20  and  C_22
REMARK   12  A    between atoms: C_21  and  C_23
REMARK   13  A    between atoms: C_21  and  C_24
REMARK   14  A    between atoms: C_22  and  C_26
REMARK   15  A    between atoms: C_22  and  C_27
REMARK                            x       y       z     vdW  Elec       q    Type
REMARK                         _______ _______ _______ _____ _____    ______ ____
ROOT
ATOM     10  C   UNL     1      -0.494  -1.708  24.907  0.00  0.00    +0.167 C 
ATOM     11  C   UNL     1      -0.051  -0.863  23.697  0.00  0.00    +0.127 C 
ATOM     12  C   UNL     1      -1.999  -2.001  24.867  0.00  0.00    +0.149 C 
ATOM     13  C   UNL     1      -2.837  -0.714  24.782  0.00  0.00    +0.074 C 
ATOM     14  C   UNL     1      -2.230   0.335  23.894  0.00  0.00    +0.015 C 
ATOM     15  C   UNL     1      -0.986   0.277  23.394  0.00  0.00    +0.006 C 
ENDROOT
BRANCH  14  16
ATOM      3  O   UNL     1      -3.081   1.908  22.372  0.00  0.00    -0.271 OA
ATOM      7  N   UNL     1      -3.748   2.020  24.603  0.00  0.00    -0.300 N 
ATOM     16  C   UNL     1      -3.053   1.492  23.530  0.00  0.00    +0.241 C 
ATOM     29  H   UNL     1      -3.703   1.552  25.503  0.00  0.00    +0.150 HD
BRANCH   7  18
ATOM     18  C   UNL     1      -4.622   3.165  24.489  0.00  0.00    +0.159 C 
BRANCH  18  25
ATOM      5  O   UNL     1      -6.006   1.943  26.071  0.00  0.00    -0.274 OA
ATOM      9  N   UNL     1      -6.247   4.223  25.936  0.00  0.00    -0.328 N 
ATOM     25  C   UNL     1      -5.694   3.015  25.561  0.00  0.00    +0.231 C 
ATOM     34  H   UNL     1      -6.964   4.266  26.651  0.00  0.00    +0.145 HD
ATOM     35  H   UNL     1      -5.964   5.105  25.521  0.00  0.00    +0.145 HD
ENDBRANCH  18  25
BRANCH  18  20
ATOM     20  C   UNL     1      -3.871   4.490  24.672  0.00  0.00    +0.034 C 
BRANCH  20  22
ATOM     22  C   UNL     1      -2.400   4.345  25.113  0.00  0.00    -0.015 C 
ATOM     26  C   UNL     1      -1.619   5.653  24.976  0.00  0.00    +0.007 C 
ATOM     27  C   UNL     1      -2.341   3.859  26.563  0.00  0.00    +0.007 C 
ENDBRANCH  20  22
ENDBRANCH  18  20
ENDBRANCH   7  18
ENDBRANCH  14  16
BRANCH  11   6
ATOM      4  O   UNL     1       1.848  -0.254  21.626  0.00  0.00    -0.274 OA
ATOM      6  N   UNL     1       1.281  -0.338  23.873  0.00  0.00    -0.305 N 
ATOM     19  C   UNL     1       2.132  -0.074  22.809  0.00  0.00    +0.231 C 
ATOM     28  H   UNL     1       1.618  -0.196  24.821  0.00  0.00    +0.149 HD
BRANCH  19  17
ATOM     17  C   UNL     1       3.488   0.464  23.264  0.00  0.00    +0.140 C 
BRANCH  17   8
ATOM      8  N   UNL     1       3.765   1.655  22.456  0.00  0.00    -0.320 NA
ATOM     32  H   UNL     1       3.578   1.455  21.475  0.00  0.00    +0.119 HD
ATOM     33  H   UNL     1       3.125   2.403  22.721  0.00  0.00    +0.119 HD
ENDBRANCH  17   8
BRANCH  17  21
ATOM     21  C   UNL     1       4.626  -0.576  23.146  0.00  0.00    +0.009 C 
ATOM     23  C   UNL     1       5.984   0.020  23.532  0.00  0.00    +0.009 C 
ATOM     24  C   UNL     1       4.381  -1.861  23.943  0.00  0.00    +0.009 C 
ENDBRANCH  17  21
ENDBRANCH  19  17
ENDBRANCH  11   6
BRANCH  10   1
ATOM      1  O   UNL     1      -0.193  -1.010  26.116  0.00  0.00    -0.387 OA
ATOM     30  H   UNL     1      -0.986  -1.040  26.676  0.00  0.00    +0.210 HD
ENDBRANCH  10   1
BRANCH  12   2
ATOM      2  O   UNL     1      -2.304  -2.858  23.769  0.00  0.00    -0.389 OA
ATOM     31  H   UNL     1      -3.043  -3.429  24.038  0.00  0.00    +0.210 HD
ENDBRANCH  12   2
TORSDOF 11
ENDMDL
MODEL 2
REMARK VINA RESULT:      -2.6      1.993      6.590
REMARK  Name = 7049358
REMARK  15 active torsions:
REMARK  status: ('A' for Active; 'I' for Inactive)
REMARK    1  A    between atoms: O_1  and  C_10
REMARK    2  A    between atoms: O_2  and  C_12
REMARK    3  A    between atoms: N_6  and  C_11
REMARK    4  A    between atoms: N_7  and  C_18
REMARK    5  A    between atoms: N_8  and  C_17
REMARK    6  A    between atoms: C_14  and  C_16
REMARK    7  A    between atoms: C_17  and  C_19
REMARK    8  A    between atoms: C_17  and  C_21
REMARK    9  A    between atoms: C_18  and  C_20
REMARK   10  A    between atoms: C_18  and  C_25
REMARK   11  A    between atoms: C_20  and  C_22
REMARK   12  A    between atoms: C_21  and  C_23
REMARK   13  A    between atoms: C_21  and  C_24
REMARK   14  A    between atoms: C_22  and  C_26
REMARK   15  A    between atoms: C_22  and  C_27
REMARK                            x       y       z     vdW  Elec       q    Type
REMARK                         _______ _______ _______ _____ _____    ______ ____
ROOT
ATOM     10  C   UNL     1      -4.439  -2.034  24.567  0.00  0.00    +0.167 C 
ATOM     11  C   UNL     1      -3.902  -1.177  25.729  0.00  0.00    +0.127 C 
ATOM     12  C   UNL     1      -3.463  -3.160  24.202  0.00  0.00    +0.149 C 
ATOM     13  C   UNL     1      -2.061  -2.624  23.864  0.00  0.00    +0.074 C 
ATOM     14  C   UNL     1      -1.631  -1.484  24.743  0.00  0.00    +0.015 C 
ATOM     15  C   UNL     1      -2.444  -0.832  25.589  0.00  0.00    +0.006 C 
ENDROOT
BRANCH  14  16
ATOM      3  O   UNL     1       0.668  -1.800  25.103  0.00  0.00    -0.271 OA
ATOM      7  N   UNL     1      -0.062   0.200  24.154  0.00  0.00    -0.300 N 
ATOM     16  C   UNL     1      -0.228  -1.063  24.692  0.00  0.00    +0.241 C 
ATOM     29  H   UNL     1      -0.870   0.693  23.783  0.00  0.00    +0.150 HD
BRANCH   7  18
ATOM     18  C   UNL     1       1.230   0.830  24.004  0.00  0.00    +0.159 C 
BRANCH  18  25
ATOM      5  O   UNL     1       1.182  -0.279  21.841  0.00  0.00    -0.274 OA
ATOM      9  N   UNL     1       3.158   0.648  22.556  0.00  0.00    -0.328 N 
ATOM     25  C   UNL     1       1.825   0.321  22.699  0.00  0.00    +0.231 C 
ATOM     34  H   UNL     1       3.674   0.380  21.725  0.00  0.00    +0.145 HD
ATOM     35  H   UNL     1       3.673   1.164  23.264  0.00  0.00    +0.145 HD
ENDBRANCH  18  25
BRANCH  18  20
ATOM     20  C   UNL     1       1.131   2.361  23.980  0.00  0.00    +0.034 C 
BRANCH  20  22
ATOM     22  C   UNL     1      -0.130   2.939  24.656  0.00  0.00    -0.015 C 
ATOM     26  C   UNL     1      -0.119   2.743  26.173  0.00  0.00    +0.007 C 
ATOM     27  C   UNL     1      -0.254   4.429  24.330  0.00  0.00    +0.007 C 
ENDBRANCH  20  22
ENDBRANCH  18  20
ENDBRANCH   7  18
ENDBRANCH  14  16
BRANCH  11   6
ATOM      4  O   UNL     1      -3.501   1.288  24.304  0.00  0.00    -0.274 OA
ATOM      6  N   UNL     1      -4.656   0.043  25.883  0.00  0.00    -0.305 N 
ATOM     19  C   UNL     1      -4.389   1.190  25.149  0.00  0.00    +0.231 C 
ATOM     28  H   UNL     1      -5.386   0.068  26.590  0.00  0.00    +0.149 HD
BRANCH  19  17
ATOM     17  C   UNL     1      -5.322   2.345  25.509  0.00  0.00    +0.140 C 
BRANCH  17   8
ATOM      8  N   UNL     1      -6.559   2.147  24.748  0.00  0.00    -0.320 NA
ATOM     32  H   UNL     1      -7.334   1.987  25.389  0.00  0.00    +0.119 HD
ATOM     33  H   UNL     1      -6.784   3.000  24.237  0.00  0.00    +0.119 HD
ENDBRANCH  17   8
BRANCH  17  21
ATOM     21  C   UNL     1      -4.704   3.735  25.231  0.00  0.00    +0.009 C 
ATOM     23  C   UNL     1      -3.562   4.055  26.202  0.00  0.00    +0.009 C 
ATOM     24  C   UNL     1      -4.226   3.928  23.788  0.00  0.00    +0.009 C 
ENDBRANCH  17  21
ENDBRANCH  19  17
ENDBRANCH  11   6
BRANCH  10   1
ATOM      1  O   UNL     1      -4.642  -1.211  23.417  0.00  0.00    -0.387 OA
ATOM     30  H   UNL     1      -4.139  -1.604  22.684  0.00  0.00    +0.210 HD
ENDBRANCH  10   1
BRANCH  12   2
ATOM      2  O   UNL     1      -3.383  -4.106  25.266  0.00  0.00    -0.389 OA
ATOM     31  H   UNL     1      -4.110  -4.741  25.151  0.00  0.00    +0.210 HD
ENDBRANCH  12   2
TORSDOF 11
ENDMDL
MODEL 3
REMARK VINA RESULT:      -1.2      1.556      2.146
REMARK  Name = 7049358
REMARK  15 active torsions:
REMARK  status: ('A' for Active; 'I' for Inactive)
REMARK    1  A    between atoms: O_1  and  C_10
REMARK    2  A    between atoms: O_2  and  C_12
REMARK    3  A    between atoms: N_6  and  C_11
REMARK    4  A    between atoms: N_7  and  C_18
REMARK    5  A    between atoms: N_8  and  C_17
REMARK    6  A    between atoms: C_14  and  C_16
REMARK    7  A    between atoms: C_17  and  C_19
REMARK    8  A    between atoms: C_17  and  C_21
REMARK    9  A    between atoms: C_18  and  C_20
REMARK   10  A    between atoms: C_18  and  C_25
REMARK   11  A    between atoms: C_20  and  C_22
REMARK   12  A    between atoms: C_21  and  C_23
REMARK   13  A    between atoms: C_21  and  C_24
REMARK   14  A    between atoms: C_22  and  C_26
REMARK   15  A    between atoms: C_22  and  C_27
REMARK                            x       y       z     vdW  Elec       q    Type
REMARK                         _______ _______ _______ _____ _____    ______ ____
ROOT
ATOM     10  C   UNL     1      -0.578  -2.281  24.828  0.00  0.00    +0.167 C 
ATOM     11  C   UNL     1      -0.427  -1.052  23.912  0.00  0.00    +0.127 C 
ATOM     12  C   UNL     1      -2.038  -2.744  24.910  0.00  0.00    +0.149 C 
ATOM     13  C   UNL     1      -2.978  -1.617  25.372  0.00  0.00    +0.074 C 
ATOM     14  C   UNL     1      -2.624  -0.274  24.800  0.00  0.00    +0.015 C 
ATOM     15  C   UNL     1      -1.488  -0.009  24.136  0.00  0.00    +0.006 C 
ENDROOT
BRANCH  14  16
ATOM      3  O   UNL     1      -4.793   0.590  25.058  0.00  0.00    -0.271 OA
ATOM      7  N   UNL     1      -2.992   2.067  24.970  0.00  0.00    -0.300 N 
ATOM     16  C   UNL     1      -3.588   0.819  24.956  0.00  0.00    +0.241 C 
ATOM     29  H   UNL     1      -1.978   2.135  24.948  0.00  0.00    +0.150 HD
BRANCH   7  18
ATOM     18  C   UNL     1      -3.738   3.296  25.110  0.00  0.00    +0.159 C 
BRANCH  18  25
ATOM      5  O   UNL     1      -1.905   4.855  25.457  0.00  0.00    -0.274 OA
ATOM      9  N   UNL     1      -3.319   4.417  27.212  0.00  0.00    -0.328 N 
ATOM     25  C   UNL     1      -2.873   4.255  25.917  0.00  0.00    +0.231 C 
ATOM     34  H   UNL     1      -2.840   5.039  27.854  0.00  0.00    +0.145 HD
ATOM     35  H   UNL     1      -4.134   3.931  27.574  0.00  0.00    +0.145 HD
ENDBRANCH  18  25
BRANCH  18  20
ATOM     20  C   UNL     1      -4.095   3.918  23.754  0.00  0.00    +0.034 C 
BRANCH  20  22
ATOM     22  C   UNL     1      -3.799   3.022  22.534  0.00  0.00    -0.015 C 
ATOM     26  C   UNL     1      -4.253   3.660  21.219  0.00  0.00    +0.007 C 
ATOM     27  C   UNL     1      -2.300   2.718  22.467  0.00  0.00    +0.007 C 
ENDBRANCH  20  22
ENDBRANCH  18  20
ENDBRANCH   7  18
ENDBRANCH  14  16
BRANCH  11   6
ATOM      4  O   UNL     1       1.398  -0.358  21.802  0.00  0.00    -0.274 OA
ATOM      6  N   UNL     1       0.870  -0.435  24.058  0.00  0.00    -0.305 N 
ATOM     19  C   UNL     1       1.686  -0.136  22.977  0.00  0.00    +0.231 C 
ATOM     28  H   UNL     1       1.209  -0.253  24.998  0.00  0.00    +0.149 HD
BRANCH  19  17
ATOM     17  C   UNL     1       3.009   0.501  23.401  0.00  0.00    +0.140 C 
BRANCH  17   8
ATOM      8  N   UNL     1       3.120   1.771  22.679  0.00  0.00    -0.320 NA
ATOM     32  H   UNL     1       2.192   2.094  22.409  0.00  0.00    +0.119 HD
ATOM     33  H   UNL     1       3.498   2.484  23.302  0.00  0.00    +0.119 HD
ENDBRANCH  17   8
BRANCH  17  21
ATOM     21  C   UNL     1       4.233  -0.407  23.139  0.00  0.00    +0.009 C 
ATOM     23  C   UNL     1       5.551   0.310  23.450  0.00  0.00    +0.009 C 
ATOM     24  C   UNL     1       4.185  -1.747  23.881  0.00  0.00    +0.009 C 
ENDBRANCH  17  21
ENDBRANCH  19  17
ENDBRANCH  11   6
BRANCH  10   1
ATOM      1  O   UNL     1      -0.124  -1.959  26.144  0.00  0.00    -0.387 OA
ATOM     30  H   UNL     1       0.689  -2.466  26.305  0.00  0.00    +0.210 HD
ENDBRANCH  10   1
BRANCH  12   2
ATOM      2  O   UNL     1      -2.465  -3.251  23.648  0.00  0.00    -0.389 OA
ATOM     31  H   UNL     1      -2.184  -4.180  23.593  0.00  0.00    +0.210 HD
ENDBRANCH  12   2
TORSDOF 11
ENDMDL
MODEL 4
REMARK VINA RESULT:      -1.0      2.789      7.436
REMARK  Name = 7049358
REMARK  15 active torsions:
REMARK  status: ('A' for Active; 'I' for Inactive)
REMARK    1  A    between atoms: O_1  and  C_10
REMARK    2  A    between atoms: O_2  and  C_12
REMARK    3  A    between atoms: N_6  and  C_11
REMARK    4  A    between atoms: N_7  and  C_18
REMARK    5  A    between atoms: N_8  and  C_17
REMARK    6  A    between atoms: C_14  and  C_16
REMARK    7  A    between atoms: C_17  and  C_19
REMARK    8  A    between atoms: C_17  and  C_21
REMARK    9  A    between atoms: C_18  and  C_20
REMARK   10  A    between atoms: C_18  and  C_25
REMARK   11  A    between atoms: C_20  and  C_22
REMARK   12  A    between atoms: C_21  and  C_23
REMARK   13  A    between atoms: C_21  and  C_24
REMARK   14  A    between atoms: C_22  and  C_26
REMARK   15  A    between atoms: C_22  and  C_27
REMARK                            x       y       z     vdW  Elec       q    Type
REMARK                         _______ _______ _______ _____ _____    ______ ____
ROOT
ATOM     10  C   UNL     1      -1.707   4.770  24.767  0.00  0.00    +0.167 C 
ATOM     11  C   UNL     1      -2.445   3.935  23.702  0.00  0.00    +0.127 C 
ATOM     12  C   UNL     1      -0.186   4.603  24.657  0.00  0.00    +0.149 C 
ATOM     13  C   UNL     1       0.243   3.129  24.746  0.00  0.00    +0.074 C 
ATOM     14  C   UNL     1      -0.691   2.193  24.033  0.00  0.00    +0.015 C 
ATOM     15  C   UNL     1      -1.895   2.543  23.553  0.00  0.00    +0.006 C 
ENDROOT
BRANCH  14  16
ATOM      3  O   UNL     1       0.755   0.553  23.175  0.00  0.00    -0.271 OA
ATOM      7  N   UNL     1      -1.092  -0.116  24.429  0.00  0.00    -0.300 N 
ATOM     16  C   UNL     1      -0.257   0.808  23.827  0.00  0.00    +0.241 C 
ATOM     29  H   UNL     1      -1.864   0.211  25.003  0.00  0.00    +0.150 HD
BRANCH   7  18
ATOM     18  C   UNL     1      -0.870  -1.542  24.362  0.00  0.00    +0.159 C 
BRANCH  18  25
ATOM      5  O   UNL     1       0.582  -2.909  25.753  0.00  0.00    -0.274 OA
ATOM      9  N   UNL     1      -0.450  -1.089  26.700  0.00  0.00    -0.328 N 
ATOM     25  C   UNL     1      -0.176  -1.947  25.655  0.00  0.00    +0.231 C 
ATOM     34  H   UNL     1      -0.041  -1.237  27.616  0.00  0.00    +0.145 HD
ATOM     35  H   UNL     1      -1.061  -0.284  26.600  0.00  0.00    +0.145 HD
ENDBRANCH  18  25
BRANCH  18  20
ATOM     20  C   UNL     1      -2.177  -2.327  24.193  0.00  0.00    +0.034 C 
BRANCH  20  22
ATOM     22  C   UNL     1      -3.461  -1.502  24.419  0.00  0.00    -0.015 C 
ATOM     26  C   UNL     1      -4.682  -2.127  23.740  0.00  0.00    +0.007 C 
ATOM     27  C   UNL     1      -3.725  -1.355  25.919  0.00  0.00    +0.007 C 
ENDBRANCH  20  22
ENDBRANCH  18  20
ENDBRANCH   7  18
ENDBRANCH  14  16
BRANCH  11   6
ATOM      4  O   UNL     1      -3.724   2.229  25.631  0.00  0.00    -0.274 OA
ATOM      6  N   UNL     1      -3.858   3.850  23.978  0.00  0.00    -0.305 N 
ATOM     19  C   UNL     1      -4.388   2.992  24.931  0.00  0.00    +0.231 C 
ATOM     28  H   UNL     1      -4.489   4.416  23.418  0.00  0.00    +0.149 HD
BRANCH  19  17
ATOM     17  C   UNL     1      -5.911   3.086  25.020  0.00  0.00    +0.140 C 
BRANCH  17   8
ATOM      8  N   UNL     1      -6.217   4.151  25.978  0.00  0.00    -0.320 NA
ATOM     32  H   UNL     1      -6.228   3.770  26.923  0.00  0.00    +0.119 HD
ATOM     33  H   UNL     1      -5.473   4.847  25.962  0.00  0.00    +0.119 HD
ENDBRANCH  17   8
BRANCH  17  21
ATOM     21  C   UNL     1      -6.579   1.751  25.426  0.00  0.00    +0.009 C 
ATOM     23  C   UNL     1      -6.099   0.586  24.555  0.00  0.00    +0.009 C 
ATOM     24  C   UNL     1      -6.409   1.395  26.907  0.00  0.00    +0.009 C 
ENDBRANCH  17  21
ENDBRANCH  19  17
ENDBRANCH  11   6
BRANCH  10   1
ATOM      1  O   UNL     1      -2.122   4.359  26.071  0.00  0.00    -0.387 OA
ATOM     30  H   UNL     1      -1.459   3.732  26.404  0.00  0.00    +0.210 HD
ENDBRANCH  10   1
BRANCH  12   2
ATOM      2  O   UNL     1       0.285   5.177  23.440  0.00  0.00    -0.389 OA
ATOM     31  H   UNL     1       1.212   4.907  23.326  0.00  0.00    +0.210 HD
ENDBRANCH  12   2
TORSDOF 11
ENDMDL
