MODEL 1
REMARK VINA RESULT:      -0.6      0.000      0.000
REMARK  Name = 25338560
REMARK  11 active torsions:
REMARK  status: ('A' for Active; 'I' for Inactive)
REMARK    1  A    between atoms: O_3  and  C_19
REMARK    2  A    between atoms: O_3  and  C_23
REMARK    3  A    between atoms: O_4  and  C_26
REMARK    4  A    between atoms: O_4  and  C_28
REMARK    5  A    between atoms: O_5  and  C_27
REMARK    6  A    between atoms: N_7  and  C_16
REMARK    7  A    between atoms: N_8  and  C_11
REMARK    8  A    between atoms: C_12  and  C_15
REMARK    9  A    between atoms: C_17  and  C_19
REMARK   10  A    between atoms: C_18  and  C_20
REMARK   11  A    between atoms: C_23  and  C_27
REMARK                            x       y       z     vdW  Elec       q    Type
REMARK                         _______ _______ _______ _____ _____    ______ ____
ROOT
ATOM      7  N   UNL     1      -2.787  -0.476  25.678  0.00  0.00    -0.293 NA
ATOM     11  C   UNL     1      -4.654   0.198  24.456  0.00  0.00    +0.089 C 
ATOM     12  C   UNL     1      -2.406  -0.743  24.277  0.00  0.00    +0.147 C 
ATOM     13  C   UNL     1      -3.566  -0.164  23.444  0.00  0.00    +0.052 C 
ATOM     14  C   UNL     1      -4.250  -0.550  25.717  0.00  0.00    +0.107 C 
ATOM     16  C   UNL     1      -2.169  -1.395  26.626  0.00  0.00    +0.105 C 
ENDROOT
BRANCH  12  15
ATOM      1  O   UNL     1      -1.063   1.145  23.502  0.00  0.00    -0.336 OA
ATOM      9  N   UNL     1       0.117  -0.720  23.882  0.00  0.00    -0.190 NA
ATOM     10  N   UNL     1       0.269   1.459  23.203  0.00  0.00    -0.056 NA
ATOM     15  C   UNL     1      -1.065  -0.156  23.894  0.00  0.00    +0.245 A 
ATOM     18  C   UNL     1       0.902   0.308  23.450  0.00  0.00    +0.202 A 
BRANCH  18  20
ATOM     20  C   UNL     1       2.318   0.155  23.281  0.00  0.00    +0.023 A 
ATOM     21  C   UNL     1       2.935  -1.049  23.619  0.00  0.00    +0.015 A 
ATOM     22  C   UNL     1       3.078   1.210  22.777  0.00  0.00    +0.015 A 
ATOM     24  C   UNL     1       4.312  -1.198  23.454  0.00  0.00    +0.046 A 
ATOM     25  C   UNL     1       4.455   1.062  22.612  0.00  0.00    +0.046 A 
ATOM     26  C   UNL     1       5.072  -0.142  22.950  0.00  0.00    +0.120 A 
BRANCH  26   4
ATOM      4  O   UNL     1       6.416  -0.286  22.789  0.00  0.00    -0.495 OA
ATOM     28  C   UNL     1       7.211  -0.330  23.973  0.00  0.00    +0.277 C 
ENDBRANCH  26   4
ENDBRANCH  18  20
ENDBRANCH  12  15
BRANCH  11   8
ATOM      2  O   UNL     1      -6.433   1.604  26.250  0.00  0.00    -0.273 OA
ATOM      8  N   UNL     1      -4.714   1.622  24.685  0.00  0.00    -0.309 N 
ATOM     17  C   UNL     1      -5.606   2.206  25.570  0.00  0.00    +0.239 C 
ATOM     29  H   UNL     1      -4.110   2.221  24.128  0.00  0.00    +0.149 HD
BRANCH  17  19
ATOM     19  C   UNL     1      -5.448   3.711  25.613  0.00  0.00    +0.256 C 
BRANCH  19   3
ATOM      3  O   UNL     1      -4.202   4.097  25.073  0.00  0.00    -0.359 OA
BRANCH   3  23
ATOM     23  C   UNL     1      -3.221   4.294  26.088  0.00  0.00    +0.280 C 
BRANCH  23  27
ATOM      6  O   UNL     1      -1.012   4.581  25.117  0.00  0.00    -0.248 OA
ATOM     27  C   UNL     1      -1.874   3.853  25.586  0.00  0.00    +0.331 C 
BRANCH  27   5
ATOM      5  O   UNL     1      -1.739   2.511  25.727  0.00  0.00    -0.479 OA
ATOM     30  H   UNL     1      -1.792   2.234  26.666  0.00  0.00    +0.295 HD
ENDBRANCH  27   5
ENDBRANCH  23  27
ENDBRANCH   3  23
ENDBRANCH  19   3
ENDBRANCH  17  19
ENDBRANCH  11   8
TORSDOF 9
ENDMDL
MODEL 2
REMARK VINA RESULT:      -0.1      1.314      1.993
REMARK  Name = 25338560
REMARK  11 active torsions:
REMARK  status: ('A' for Active; 'I' for Inactive)
REMARK    1  A    between atoms: O_3  and  C_19
REMARK    2  A    between atoms: O_3  and  C_23
REMARK    3  A    between atoms: O_4  and  C_26
REMARK    4  A    between atoms: O_4  and  C_28
REMARK    5  A    between atoms: O_5  and  C_27
REMARK    6  A    between atoms: N_7  and  C_16
REMARK    7  A    between atoms: N_8  and  C_11
REMARK    8  A    between atoms: C_12  and  C_15
REMARK    9  A    between atoms: C_17  and  C_19
REMARK   10  A    between atoms: C_18  and  C_20
REMARK   11  A    between atoms: C_23  and  C_27
REMARK                            x       y       z     vdW  Elec       q    Type
REMARK                         _______ _______ _______ _____ _____    ______ ____
ROOT
ATOM      7  N   UNL     1      -3.628   0.117  25.148  0.00  0.00    -0.293 NA
ATOM     11  C   UNL     1      -4.170   2.010  23.902  0.00  0.00    +0.089 C 
ATOM     12  C   UNL     1      -2.975  -0.121  23.846  0.00  0.00    +0.147 C 
ATOM     13  C   UNL     1      -3.194   1.187  23.060  0.00  0.00    +0.052 C 
ATOM     14  C   UNL     1      -4.763   1.002  24.873  0.00  0.00    +0.107 C 
ATOM     16  C   UNL     1      -4.044  -1.112  25.815  0.00  0.00    +0.105 C 
ENDROOT
BRANCH  12  15
ATOM      1  O   UNL     1      -1.227  -1.608  24.682  0.00  0.00    -0.336 OA
ATOM      9  N   UNL     1      -0.461   0.110  23.468  0.00  0.00    -0.190 NA
ATOM     10  N   UNL     1       0.167  -1.746  24.649  0.00  0.00    -0.056 NA
ATOM     15  C   UNL     1      -1.513  -0.492  23.963  0.00  0.00    +0.245 A 
ATOM     18  C   UNL     1       0.546  -0.694  23.916  0.00  0.00    +0.202 A 
BRANCH  18  20
ATOM     20  C   UNL     1       1.920  -0.422  23.610  0.00  0.00    +0.023 A 
ATOM     21  C   UNL     1       2.277   0.789  23.019  0.00  0.00    +0.015 A 
ATOM     22  C   UNL     1       2.901  -1.371  23.903  0.00  0.00    +0.015 A 
ATOM     24  C   UNL     1       3.615   1.053  22.721  0.00  0.00    +0.046 A 
ATOM     25  C   UNL     1       4.237  -1.108  23.605  0.00  0.00    +0.046 A 
ATOM     26  C   UNL     1       4.594   0.104  23.014  0.00  0.00    +0.120 A 
BRANCH  26   4
ATOM      4  O   UNL     1       5.899   0.361  22.724  0.00  0.00    -0.495 OA
ATOM     28  C   UNL     1       6.863  -0.592  23.167  0.00  0.00    +0.277 C 
ENDBRANCH  26   4
ENDBRANCH  18  20
ENDBRANCH  12  15
BRANCH  11   8
ATOM      2  O   UNL     1      -5.220   3.613  26.068  0.00  0.00    -0.273 OA
ATOM      8  N   UNL     1      -3.497   3.080  24.600  0.00  0.00    -0.309 N 
ATOM     17  C   UNL     1      -4.086   3.794  25.631  0.00  0.00    +0.239 C 
ATOM     29  H   UNL     1      -2.572   3.352  24.278  0.00  0.00    +0.149 HD
BRANCH  17  19
ATOM     19  C   UNL     1      -3.156   4.854  26.181  0.00  0.00    +0.256 C 
BRANCH  19   3
ATOM      3  O   UNL     1      -1.845   4.669  25.691  0.00  0.00    -0.359 OA
BRANCH   3  23
ATOM     23  C   UNL     1      -1.240   3.492  26.220  0.00  0.00    +0.280 C 
BRANCH  23  27
ATOM      6  O   UNL     1      -0.216   3.194  24.037  0.00  0.00    -0.248 OA
ATOM     27  C   UNL     1      -0.253   2.937  25.231  0.00  0.00    +0.331 C 
BRANCH  27   5
ATOM      5  O   UNL     1       0.611   2.096  25.853  0.00  0.00    -0.479 OA
ATOM     30  H   UNL     1       0.521   1.175  25.530  0.00  0.00    +0.295 HD
ENDBRANCH  27   5
ENDBRANCH  23  27
ENDBRANCH   3  23
ENDBRANCH  19   3
ENDBRANCH  17  19
ENDBRANCH  11   8
TORSDOF 9
ENDMDL
MODEL 3
REMARK VINA RESULT:       1.2      2.162      3.886
REMARK  Name = 25338560
REMARK  11 active torsions:
REMARK  status: ('A' for Active; 'I' for Inactive)
REMARK    1  A    between atoms: O_3  and  C_19
REMARK    2  A    between atoms: O_3  and  C_23
REMARK    3  A    between atoms: O_4  and  C_26
REMARK    4  A    between atoms: O_4  and  C_28
REMARK    5  A    between atoms: O_5  and  C_27
REMARK    6  A    between atoms: N_7  and  C_16
REMARK    7  A    between atoms: N_8  and  C_11
REMARK    8  A    between atoms: C_12  and  C_15
REMARK    9  A    between atoms: C_17  and  C_19
REMARK   10  A    between atoms: C_18  and  C_20
REMARK   11  A    between atoms: C_23  and  C_27
REMARK                            x       y       z     vdW  Elec       q    Type
REMARK                         _______ _______ _______ _____ _____    ______ ____
ROOT
ATOM      7  N   UNL     1      -4.066   2.523  23.691  0.00  0.00    -0.293 NA
ATOM     11  C   UNL     1      -4.821   0.961  25.248  0.00  0.00    +0.089 C 
ATOM     12  C   UNL     1      -3.170   2.718  24.847  0.00  0.00    +0.147 C 
ATOM     13  C   UNL     1      -3.554   1.593  25.828  0.00  0.00    +0.052 C 
ATOM     14  C   UNL     1      -5.315   1.984  24.237  0.00  0.00    +0.107 C 
ATOM     16  C   UNL     1      -4.289   3.743  22.924  0.00  0.00    +0.105 C 
ENDROOT
BRANCH  12  15
ATOM      1  O   UNL     1      -1.057   3.891  24.491  0.00  0.00    -0.336 OA
ATOM      9  N   UNL     1      -0.943   1.681  24.153  0.00  0.00    -0.190 NA
ATOM     10  N   UNL     1       0.268   3.621  24.128  0.00  0.00    -0.056 NA
ATOM     15  C   UNL     1      -1.702   2.695  24.482  0.00  0.00    +0.245 A 
ATOM     18  C   UNL     1       0.256   2.298  23.944  0.00  0.00    +0.202 A 
BRANCH  18  20
ATOM     20  C   UNL     1       1.424   1.562  23.555  0.00  0.00    +0.023 A 
ATOM     21  C   UNL     1       1.370   0.172  23.448  0.00  0.00    +0.015 A 
ATOM     22  C   UNL     1       2.614   2.237  23.283  0.00  0.00    +0.015 A 
ATOM     24  C   UNL     1       2.507  -0.543  23.070  0.00  0.00    +0.046 A 
ATOM     25  C   UNL     1       3.751   1.522  22.905  0.00  0.00    +0.046 A 
ATOM     26  C   UNL     1       3.697   0.133  22.798  0.00  0.00    +0.120 A 
BRANCH  26   4
ATOM      4  O   UNL     1       4.806  -0.565  22.430  0.00  0.00    -0.495 OA
ATOM     28  C   UNL     1       5.964  -0.426  23.252  0.00  0.00    +0.277 C 
ENDBRANCH  26   4
ENDBRANCH  18  20
ENDBRANCH  12  15
BRANCH  11   8
ATOM      2  O   UNL     1      -3.586  -1.355  26.462  0.00  0.00    -0.273 OA
ATOM      8  N   UNL     1      -4.541  -0.308  24.619  0.00  0.00    -0.309 N 
ATOM     17  C   UNL     1      -3.943  -1.364  25.287  0.00  0.00    +0.239 C 
ATOM     29  H   UNL     1      -4.744  -0.404  23.627  0.00  0.00    +0.149 HD
BRANCH  17  19
ATOM     19  C   UNL     1      -3.771  -2.570  24.389  0.00  0.00    +0.256 C 
BRANCH  19   3
ATOM      3  O   UNL     1      -2.424  -2.995  24.377  0.00  0.00    -0.359 OA
BRANCH   3  23
ATOM     23  C   UNL     1      -1.528  -1.911  24.149  0.00  0.00    +0.280 C 
BRANCH  23  27
ATOM      6  O   UNL     1       0.312  -2.574  25.591  0.00  0.00    -0.248 OA
ATOM     27  C   UNL     1      -0.577  -1.785  25.307  0.00  0.00    +0.331 C 
BRANCH  27   5
ATOM      5  O   UNL     1      -0.841  -0.655  26.009  0.00  0.00    -0.479 OA
ATOM     30  H   UNL     1      -1.558  -0.128  25.598  0.00  0.00    +0.295 HD
ENDBRANCH  27   5
ENDBRANCH  23  27
ENDBRANCH   3  23
ENDBRANCH  19   3
ENDBRANCH  17  19
ENDBRANCH  11   8
TORSDOF 9
ENDMDL
MODEL 4
REMARK VINA RESULT:       2.0      2.184      3.562
REMARK  Name = 25338560
REMARK  11 active torsions:
REMARK  status: ('A' for Active; 'I' for Inactive)
REMARK    1  A    between atoms: O_3  and  C_19
REMARK    2  A    between atoms: O_3  and  C_23
REMARK    3  A    between atoms: O_4  and  C_26
REMARK    4  A    between atoms: O_4  and  C_28
REMARK    5  A    between atoms: O_5  and  C_27
REMARK    6  A    between atoms: N_7  and  C_16
REMARK    7  A    between atoms: N_8  and  C_11
REMARK    8  A    between atoms: C_12  and  C_15
REMARK    9  A    between atoms: C_17  and  C_19
REMARK   10  A    between atoms: C_18  and  C_20
REMARK   11  A    between atoms: C_23  and  C_27
REMARK                            x       y       z     vdW  Elec       q    Type
REMARK                         _______ _______ _______ _____ _____    ______ ____
ROOT
ATOM      7  N   UNL     1      -2.773   1.927  22.931  0.00  0.00    -0.293 NA
ATOM     11  C   UNL     1      -3.612   1.767  25.099  0.00  0.00    +0.089 C 
ATOM     12  C   UNL     1      -1.603   2.216  23.783  0.00  0.00    +0.147 C 
ATOM     13  C   UNL     1      -2.101   1.966  25.220  0.00  0.00    +0.052 C 
ATOM     14  C   UNL     1      -3.947   2.309  23.719  0.00  0.00    +0.107 C 
ATOM     16  C   UNL     1      -2.730   2.616  21.646  0.00  0.00    +0.105 C 
ENDROOT
BRANCH  12  15
ATOM      1  O   UNL     1      -0.585   0.337  22.599  0.00  0.00    -0.336 OA
ATOM      9  N   UNL     1       0.856   1.530  23.830  0.00  0.00    -0.190 NA
ATOM     10  N   UNL     1       0.666  -0.269  22.428  0.00  0.00    -0.056 NA
ATOM     15  C   UNL     1      -0.385   1.387  23.437  0.00  0.00    +0.245 A 
ATOM     18  C   UNL     1       1.463   0.491  23.186  0.00  0.00    +0.202 A 
BRANCH  18  20
ATOM     20  C   UNL     1       2.869   0.242  23.318  0.00  0.00    +0.023 A 
ATOM     21  C   UNL     1       3.321  -1.017  23.714  0.00  0.00    +0.015 A 
ATOM     22  C   UNL     1       3.786   1.259  23.051  0.00  0.00    +0.015 A 
ATOM     24  C   UNL     1       4.689  -1.258  23.844  0.00  0.00    +0.046 A 
ATOM     25  C   UNL     1       5.153   1.018  23.180  0.00  0.00    +0.046 A 
ATOM     26  C   UNL     1       5.605  -0.241  23.576  0.00  0.00    +0.120 A 
BRANCH  26   4
ATOM      4  O   UNL     1       6.939  -0.476  23.702  0.00  0.00    -0.495 OA
ATOM     28  C   UNL     1       7.644  -0.870  22.525  0.00  0.00    +0.277 C 
ENDBRANCH  26   4
ENDBRANCH  18  20
ENDBRANCH  12  15
BRANCH  11   8
ATOM      2  O   UNL     1      -3.671  -0.212  22.992  0.00  0.00    -0.273 OA
ATOM      8  N   UNL     1      -3.976   0.375  25.221  0.00  0.00    -0.309 N 
ATOM     17  C   UNL     1      -3.973  -0.500  24.146  0.00  0.00    +0.239 C 
ATOM     29  H   UNL     1      -4.301   0.044  26.125  0.00  0.00    +0.149 HD
BRANCH  17  19
ATOM     19  C   UNL     1      -4.395  -1.894  24.559  0.00  0.00    +0.256 C 
BRANCH  19   3
ATOM      3  O   UNL     1      -3.345  -2.551  25.239  0.00  0.00    -0.359 OA
BRANCH   3  23
ATOM     23  C   UNL     1      -2.084  -2.324  24.616  0.00  0.00    +0.280 C 
BRANCH  23  27
ATOM      6  O   UNL     1      -1.561  -0.944  26.546  0.00  0.00    -0.248 OA
ATOM     27  C   UNL     1      -1.202  -1.520  25.530  0.00  0.00    +0.331 C 
BRANCH  27   5
ATOM      5  O   UNL     1       0.074  -1.519  25.069  0.00  0.00    -0.479 OA
ATOM     30  H   UNL     1       0.241  -0.773  24.455  0.00  0.00    +0.295 HD
ENDBRANCH  27   5
ENDBRANCH  23  27
ENDBRANCH   3  23
ENDBRANCH  19   3
ENDBRANCH  17  19
ENDBRANCH  11   8
TORSDOF 9
ENDMDL
MODEL 5
REMARK VINA RESULT:       2.0      2.040      4.279
REMARK  Name = 25338560
REMARK  11 active torsions:
REMARK  status: ('A' for Active; 'I' for Inactive)
REMARK    1  A    between atoms: O_3  and  C_19
REMARK    2  A    between atoms: O_3  and  C_23
REMARK    3  A    between atoms: O_4  and  C_26
REMARK    4  A    between atoms: O_4  and  C_28
REMARK    5  A    between atoms: O_5  and  C_27
REMARK    6  A    between atoms: N_7  and  C_16
REMARK    7  A    between atoms: N_8  and  C_11
REMARK    8  A    between atoms: C_12  and  C_15
REMARK    9  A    between atoms: C_17  and  C_19
REMARK   10  A    between atoms: C_18  and  C_20
REMARK   11  A    between atoms: C_23  and  C_27
REMARK                            x       y       z     vdW  Elec       q    Type
REMARK                         _______ _______ _______ _____ _____    ______ ____
ROOT
ATOM      7  N   UNL     1      -4.420   4.234  24.390  0.00  0.00    -0.293 NA
ATOM     11  C   UNL     1      -5.485   2.787  25.876  0.00  0.00    +0.089 C 
ATOM     12  C   UNL     1      -3.435   4.057  25.475  0.00  0.00    +0.147 C 
ATOM     13  C   UNL     1      -4.058   2.986  26.391  0.00  0.00    +0.052 C 
ATOM     14  C   UNL     1      -5.733   4.004  24.999  0.00  0.00    +0.107 C 
ATOM     16  C   UNL     1      -4.338   5.541  23.748  0.00  0.00    +0.105 C 
ENDROOT
BRANCH  12  15
ATOM      1  O   UNL     1      -1.172   4.686  24.806  0.00  0.00    -0.336 OA
ATOM      9  N   UNL     1      -1.580   2.487  24.692  0.00  0.00    -0.190 NA
ATOM     10  N   UNL     1       0.014   4.092  24.353  0.00  0.00    -0.056 NA
ATOM     15  C   UNL     1      -2.058   3.671  24.982  0.00  0.00    +0.245 A 
ATOM     18  C   UNL     1      -0.308   2.796  24.311  0.00  0.00    +0.202 A 
BRANCH  18  20
ATOM     20  C   UNL     1       0.620   1.784  23.896  0.00  0.00    +0.023 A 
ATOM     21  C   UNL     1       0.209   0.455  23.804  0.00  0.00    +0.015 A 
ATOM     22  C   UNL     1       1.935   2.130  23.583  0.00  0.00    +0.015 A 
ATOM     24  C   UNL     1       1.113  -0.529  23.401  0.00  0.00    +0.046 A 
ATOM     25  C   UNL     1       2.839   1.148  23.180  0.00  0.00    +0.046 A 
ATOM     26  C   UNL     1       2.428  -0.182  23.088  0.00  0.00    +0.120 A 
BRANCH  26   4
ATOM      4  O   UNL     1       3.309  -1.141  22.695  0.00  0.00    -0.495 OA
ATOM     28  C   UNL     1       4.391  -1.432  23.579  0.00  0.00    +0.277 C 
ENDBRANCH  26   4
ENDBRANCH  18  20
ENDBRANCH  12  15
BRANCH  11   8
ATOM      2  O   UNL     1      -3.588   0.608  25.756  0.00  0.00    -0.273 OA
ATOM      8  N   UNL     1      -5.612   1.562  25.124  0.00  0.00    -0.309 N 
ATOM     17  C   UNL     1      -4.644   0.570  25.130  0.00  0.00    +0.239 C 
ATOM     29  H   UNL     1      -6.425   1.453  24.522  0.00  0.00    +0.149 HD
BRANCH  17  19
ATOM     19  C   UNL     1      -5.037  -0.602  24.256  0.00  0.00    +0.256 C 
BRANCH  19   3
ATOM      3  O   UNL     1      -3.901  -1.161  23.631  0.00  0.00    -0.359 OA
BRANCH   3  23
ATOM     23  C   UNL     1      -3.517  -2.395  24.231  0.00  0.00    +0.280 C 
BRANCH  23  27
ATOM      6  O   UNL     1      -1.170  -2.971  23.980  0.00  0.00    -0.248 OA
ATOM     27  C   UNL     1      -2.052  -2.363  24.568  0.00  0.00    +0.331 C 
BRANCH  27   5
ATOM      5  O   UNL     1      -1.833  -1.550  25.632  0.00  0.00    -0.479 OA
ATOM     30  H   UNL     1      -1.088  -1.865  26.186  0.00  0.00    +0.295 HD
ENDBRANCH  27   5
ENDBRANCH  23  27
ENDBRANCH   3  23
ENDBRANCH  19   3
ENDBRANCH  17  19
ENDBRANCH  11   8
TORSDOF 9
ENDMDL
MODEL 6
REMARK VINA RESULT:       2.6      1.964      3.595
REMARK  Name = 25338560
REMARK  11 active torsions:
REMARK  status: ('A' for Active; 'I' for Inactive)
REMARK    1  A    between atoms: O_3  and  C_19
REMARK    2  A    between atoms: O_3  and  C_23
REMARK    3  A    between atoms: O_4  and  C_26
REMARK    4  A    between atoms: O_4  and  C_28
REMARK    5  A    between atoms: O_5  and  C_27
REMARK    6  A    between atoms: N_7  and  C_16
REMARK    7  A    between atoms: N_8  and  C_11
REMARK    8  A    between atoms: C_12  and  C_15
REMARK    9  A    between atoms: C_17  and  C_19
REMARK   10  A    between atoms: C_18  and  C_20
REMARK   11  A    between atoms: C_23  and  C_27
REMARK                            x       y       z     vdW  Elec       q    Type
REMARK                         _______ _______ _______ _____ _____    ______ ____
ROOT
ATOM      7  N   UNL     1      -2.641   2.418  22.786  0.00  0.00    -0.293 NA
ATOM     11  C   UNL     1      -3.300   3.240  24.865  0.00  0.00    +0.089 C 
ATOM     12  C   UNL     1      -1.371   2.804  23.430  0.00  0.00    +0.147 C 
ATOM     13  C   UNL     1      -1.771   3.208  24.862  0.00  0.00    +0.052 C 
ATOM     14  C   UNL     1      -3.672   3.265  23.391  0.00  0.00    +0.107 C 
ATOM     16  C   UNL     1      -2.612   2.548  21.333  0.00  0.00    +0.105 C 
ENDROOT
BRANCH  12  15
ATOM      1  O   UNL     1      -0.782   0.438  23.284  0.00  0.00    -0.336 OA
ATOM      9  N   UNL     1       0.979   1.807  23.482  0.00  0.00    -0.190 NA
ATOM     10  N   UNL     1       0.352  -0.385  23.283  0.00  0.00    -0.056 NA
ATOM     15  C   UNL     1      -0.325   1.711  23.404  0.00  0.00    +0.245 A 
ATOM     18  C   UNL     1       1.350   0.496  23.404  0.00  0.00    +0.202 A 
BRANCH  18  20
ATOM     20  C   UNL     1       2.727   0.100  23.447  0.00  0.00    +0.023 A 
ATOM     21  C   UNL     1       3.728   1.018  23.132  0.00  0.00    +0.015 A 
ATOM     22  C   UNL     1       3.067  -1.205  23.805  0.00  0.00    +0.015 A 
ATOM     24  C   UNL     1       5.068   0.632  23.172  0.00  0.00    +0.046 A 
ATOM     25  C   UNL     1       4.406  -1.592  23.846  0.00  0.00    +0.046 A 
ATOM     26  C   UNL     1       5.407  -0.673  23.531  0.00  0.00    +0.120 A 
BRANCH  26   4
ATOM      4  O   UNL     1       6.714  -1.051  23.571  0.00  0.00    -0.495 OA
ATOM     28  C   UNL     1       7.655  -0.203  22.915  0.00  0.00    +0.277 C 
ENDBRANCH  26   4
ENDBRANCH  18  20
ENDBRANCH  12  15
BRANCH  11   8
ATOM      2  O   UNL     1      -5.965   2.160  24.556  0.00  0.00    -0.273 OA
ATOM      8  N   UNL     1      -3.854   2.082  25.527  0.00  0.00    -0.309 N 
ATOM     17  C   UNL     1      -5.149   1.640  25.313  0.00  0.00    +0.239 C 
ATOM     29  H   UNL     1      -3.281   1.610  26.222  0.00  0.00    +0.149 HD
BRANCH  17  19
ATOM     19  C   UNL     1      -5.463   0.408  26.135  0.00  0.00    +0.256 C 
BRANCH  19   3
ATOM      3  O   UNL     1      -4.435  -0.552  26.007  0.00  0.00    -0.359 OA
BRANCH   3  23
ATOM     23  C   UNL     1      -4.167  -0.865  24.643  0.00  0.00    +0.280 C 
BRANCH  23  27
ATOM      6  O   UNL     1      -3.662  -3.221  24.326  0.00  0.00    -0.248 OA
ATOM     27  C   UNL     1      -3.287  -2.082  24.564  0.00  0.00    +0.331 C 
BRANCH  27   5
ATOM      5  O   UNL     1      -1.995  -1.742  24.796  0.00  0.00    -0.479 OA
ATOM     30  H   UNL     1      -1.381  -2.482  24.606  0.00  0.00    +0.295 HD
ENDBRANCH  27   5
ENDBRANCH  23  27
ENDBRANCH   3  23
ENDBRANCH  19   3
ENDBRANCH  17  19
ENDBRANCH  11   8
TORSDOF 9
ENDMDL
MODEL 7
REMARK VINA RESULT:       3.3      1.287      2.340
REMARK  Name = 25338560
REMARK  11 active torsions:
REMARK  status: ('A' for Active; 'I' for Inactive)
REMARK    1  A    between atoms: O_3  and  C_19
REMARK    2  A    between atoms: O_3  and  C_23
REMARK    3  A    between atoms: O_4  and  C_26
REMARK    4  A    between atoms: O_4  and  C_28
REMARK    5  A    between atoms: O_5  and  C_27
REMARK    6  A    between atoms: N_7  and  C_16
REMARK    7  A    between atoms: N_8  and  C_11
REMARK    8  A    between atoms: C_12  and  C_15
REMARK    9  A    between atoms: C_17  and  C_19
REMARK   10  A    between atoms: C_18  and  C_20
REMARK   11  A    between atoms: C_23  and  C_27
REMARK                            x       y       z     vdW  Elec       q    Type
REMARK                         _______ _______ _______ _____ _____    ______ ____
ROOT
ATOM      7  N   UNL     1      -1.861  -0.861  25.432  0.00  0.00    -0.293 NA
ATOM     11  C   UNL     1      -3.658   0.380  24.615  0.00  0.00    +0.089 C 
ATOM     12  C   UNL     1      -1.766  -1.026  23.969  0.00  0.00    +0.147 C 
ATOM     13  C   UNL     1      -2.852  -0.091  23.403  0.00  0.00    +0.052 C 
ATOM     14  C   UNL     1      -3.275  -0.598  25.715  0.00  0.00    +0.107 C 
ATOM     16  C   UNL     1      -1.362  -2.013  26.174  0.00  0.00    +0.105 C 
ENDROOT
BRANCH  12  15
ATOM      1  O   UNL     1      -0.330  -0.364  22.106  0.00  0.00    -0.336 OA
ATOM      9  N   UNL     1       0.772  -0.752  24.017  0.00  0.00    -0.190 NA
ATOM     10  N   UNL     1       1.024  -0.136  21.828  0.00  0.00    -0.056 NA
ATOM     15  C   UNL     1      -0.391  -0.722  23.416  0.00  0.00    +0.245 A 
ATOM     18  C   UNL     1       1.609  -0.386  23.003  0.00  0.00    +0.202 A 
BRANCH  18  20
ATOM     20  C   UNL     1       3.025  -0.276  23.199  0.00  0.00    +0.023 A 
ATOM     21  C   UNL     1       3.745  -1.355  23.710  0.00  0.00    +0.015 A 
ATOM     22  C   UNL     1       3.683   0.911  22.877  0.00  0.00    +0.015 A 
ATOM     24  C   UNL     1       5.123  -1.247  23.901  0.00  0.00    +0.046 A 
ATOM     25  C   UNL     1       5.060   1.019  23.067  0.00  0.00    +0.046 A 
ATOM     26  C   UNL     1       5.780  -0.060  23.579  0.00  0.00    +0.120 A 
BRANCH  26   4
ATOM      4  O   UNL     1       7.124   0.046  23.764  0.00  0.00    -0.495 OA
ATOM     28  C   UNL     1       7.965  -0.639  22.836  0.00  0.00    +0.277 C 
ENDBRANCH  26   4
ENDBRANCH  18  20
ENDBRANCH  12  15
BRANCH  11   8
ATOM      2  O   UNL     1      -2.192   2.303  23.028  0.00  0.00    -0.273 OA
ATOM      8  N   UNL     1      -3.326   1.737  24.978  0.00  0.00    -0.309 N 
ATOM     17  C   UNL     1      -2.616   2.588  24.145  0.00  0.00    +0.239 C 
ATOM     29  H   UNL     1      -3.579   2.058  25.909  0.00  0.00    +0.149 HD
BRANCH  17  19
ATOM     19  C   UNL     1      -2.412   3.948  24.777  0.00  0.00    +0.256 C 
BRANCH  19   3
ATOM      3  O   UNL     1      -3.654   4.557  25.060  0.00  0.00    -0.359 OA
BRANCH   3  23
ATOM     23  C   UNL     1      -4.331   3.910  26.134  0.00  0.00    +0.280 C 
BRANCH  23  27
ATOM      6  O   UNL     1      -6.187   2.523  25.401  0.00  0.00    -0.248 OA
ATOM     27  C   UNL     1      -5.751   3.614  25.736  0.00  0.00    +0.331 C 
BRANCH  27   5
ATOM      5  O   UNL     1      -6.500   4.743  25.801  0.00  0.00    -0.479 OA
ATOM     30  H   UNL     1      -6.068   5.439  26.339  0.00  0.00    +0.295 HD
ENDBRANCH  27   5
ENDBRANCH  23  27
ENDBRANCH   3  23
ENDBRANCH  19   3
ENDBRANCH  17  19
ENDBRANCH  11   8
TORSDOF 9
ENDMDL
